MODEL 1
REMARK VINA RESULT:      -9.8      0.000      0.000
REMARK  Name = 
REMARK  6 active torsions:
REMARK  status: ('A' for Active; 'I' for Inactive)
REMARK    1  A    between atoms: C_3  and  N_18
REMARK    2  A    between atoms: C_6  and  C_7
REMARK    3  A    between atoms: C_7  and  N_8
REMARK    4  A    between atoms: C_9  and  C_11
REMARK    5  A    between atoms: N_18  and  C_19
REMARK    6  A    between atoms: C_19  and  C_20
REMARK                            x       y       z     vdW  Elec       q    Type
REMARK                         _______ _______ _______ _____ _____    ______ ____
ROOT
ATOM      1  O   UNL     1      -4.105   0.975  25.615  0.00  0.00    -0.219 OA
ATOM      2  C   UNL     1      -3.852   1.107  24.841  0.00  0.00    +0.199 C 
ATOM      3  C   UNL     1      -3.804   0.540  24.244  0.00  0.00    +0.135 C 
ATOM      4  C   UNL     1      -3.525   0.911  23.563  0.00  0.00    +0.162 C 
ATOM      5  O   UNL     1      -3.400   1.708  23.739  0.00  0.00    -0.350 OA
ATOM      6  C   UNL     1      -3.602   1.829  24.529  0.00  0.00    +0.169 C 
ENDROOT
BRANCH   6   7
ATOM      7  C   UNL     1      -3.562   2.545  24.935  0.00  0.00    +0.148 C 
BRANCH   7   8
ATOM      8  N   UNL     1      -2.913   3.043  24.830  0.00  0.00    -0.199 NA
ATOM      9  C   UNL     1      -2.809   3.695  25.325  0.00  0.00    +0.265 C 
ATOM     10  O   UNL     1      -3.355   3.849  25.924  0.00  0.00    -0.268 OA
BRANCH   9  11
ATOM     11  C   UNL     1      -2.160   4.193  25.220  0.00  0.00    +0.055 A 
ATOM     12  C   UNL     1      -1.400   3.875  25.172  0.00  0.00    +0.007 A 
ATOM     13  C   UNL     1      -0.751   4.373  25.067  0.00  0.00    +0.030 A 
ATOM     14  C   UNL     1      -0.861   5.189  25.010  0.00  0.00    +0.140 A 
ATOM     15  F   UNL     1      -0.212   5.687  24.905  0.00  0.00    -0.204 F 
ATOM     16  C   UNL     1      -1.621   5.507  25.058  0.00  0.00    +0.030 A 
ATOM     17  C   UNL     1      -2.271   5.009  25.163  0.00  0.00    +0.007 A 
ENDBRANCH   9  11
ENDBRANCH   7   8
ENDBRANCH   6   7
BRANCH   3  18
ATOM     18  N   UNL     1      -4.000  -0.258  24.315  0.00  0.00    -0.209 NA
BRANCH  18  19
ATOM     19  C   UNL     1      -3.578  -0.827  23.893  0.00  0.00    +0.115 C 
BRANCH  19  20
ATOM     20  C   UNL     1      -3.652  -1.625  24.087  0.00  0.00    -0.002 A 
ATOM     21  C   UNL     1      -3.127  -1.970  24.622  0.00  0.00    +0.018 A 
ATOM     22  C   UNL     1      -3.201  -2.768  24.816  0.00  0.00    +0.099 A 
ATOM     23  N   UNL     1      -3.800  -3.221  24.475  0.00  0.00    -0.242 NA
ATOM     24  C   UNL     1      -4.325  -2.877  23.940  0.00  0.00    +0.099 A 
ATOM     25  C   UNL     1      -4.251  -2.078  23.746  0.00  0.00    +0.018 A 
ENDBRANCH  19  20
ENDBRANCH  18  19
ENDBRANCH   3  18
TORSDOF 6
ENDMDL
MODEL 2
REMARK VINA RESULT:      -9.7      1.851      2.216
REMARK  Name = 
REMARK  6 active torsions:
REMARK  status: ('A' for Active; 'I' for Inactive)
REMARK    1  A    between atoms: C_3  and  N_18
REMARK    2  A    between atoms: C_6  and  C_7
REMARK    3  A    between atoms: C_7  and  N_8
REMARK    4  A    between atoms: C_9  and  C_11
REMARK    5  A    between atoms: N_18  and  C_19
REMARK    6  A    between atoms: C_19  and  C_20
REMARK                            x       y       z     vdW  Elec       q    Type
REMARK                         _______ _______ _______ _____ _____    ______ ____
ROOT
ATOM      1  O   UNL     1      -1.235   0.372  23.919  0.00  0.00    -0.219 OA
ATOM      2  C   UNL     1      -1.267   0.246  24.734  0.00  0.00    +0.199 C 
ATOM      3  C   UNL     1      -1.659  -0.372  25.114  0.00  0.00    +0.135 C 
ATOM      4  C   UNL     1      -1.547  -0.284  25.926  0.00  0.00    +0.162 C 
ATOM      5  O   UNL     1      -1.086   0.389  26.048  0.00  0.00    -0.350 OA
ATOM      6  C   UNL     1      -0.913   0.717  25.312  0.00  0.00    +0.169 C 
ENDROOT
BRANCH   6   7
ATOM      7  C   UNL     1      -0.464   1.395  25.176  0.00  0.00    +0.148 C 
BRANCH   7   8
ATOM      8  N   UNL     1      -0.830   2.134  25.159  0.00  0.00    -0.199 NA
ATOM      9  C   UNL     1      -0.379   2.820  25.244  0.00  0.00    +0.265 C 
ATOM     10  O   UNL     1       0.438   2.766  25.347  0.00  0.00    -0.268 OA
BRANCH   9  11
ATOM     11  C   UNL     1      -0.745   3.559  25.227  0.00  0.00    +0.055 A 
ATOM     12  C   UNL     1      -0.410   4.175  24.792  0.00  0.00    +0.007 A 
ATOM     13  C   UNL     1      -0.775   4.914  24.775  0.00  0.00    +0.030 A 
ATOM     14  C   UNL     1      -1.476   5.038  25.194  0.00  0.00    +0.140 A 
ATOM     15  F   UNL     1      -1.842   5.777  25.177  0.00  0.00    -0.204 F 
ATOM     16  C   UNL     1      -1.811   4.422  25.629  0.00  0.00    +0.030 A 
ATOM     17  C   UNL     1      -1.445   3.683  25.646  0.00  0.00    +0.007 A 
ENDBRANCH   9  11
ENDBRANCH   7   8
ENDBRANCH   6   7
BRANCH   3  18
ATOM     18  N   UNL     1      -2.088  -0.974  24.746  0.00  0.00    -0.209 NA
BRANCH  18  19
ATOM     19  C   UNL     1      -2.769  -1.273  25.103  0.00  0.00    +0.115 C 
BRANCH  19  20
ATOM     20  C   UNL     1      -3.268  -1.777  24.682  0.00  0.00    -0.002 A 
ATOM     21  C   UNL     1      -3.902  -1.468  24.253  0.00  0.00    +0.018 A 
ATOM     22  C   UNL     1      -4.401  -1.972  23.833  0.00  0.00    +0.099 A 
ATOM     23  N   UNL     1      -4.266  -2.786  23.841  0.00  0.00    -0.242 NA
ATOM     24  C   UNL     1      -3.633  -3.096  24.270  0.00  0.00    +0.099 A 
ATOM     25  C   UNL     1      -3.134  -2.591  24.690  0.00  0.00    +0.018 A 
ENDBRANCH  19  20
ENDBRANCH  18  19
ENDBRANCH   3  18
TORSDOF 6
ENDMDL
MODEL 3
REMARK VINA RESULT:      -9.5      2.146      5.947
REMARK  Name = 
REMARK  6 active torsions:
REMARK  status: ('A' for Active; 'I' for Inactive)
REMARK    1  A    between atoms: C_3  and  N_18
REMARK    2  A    between atoms: C_6  and  C_7
REMARK    3  A    between atoms: C_7  and  N_8
REMARK    4  A    between atoms: C_9  and  C_11
REMARK    5  A    between atoms: N_18  and  C_19
REMARK    6  A    between atoms: C_19  and  C_20
REMARK                            x       y       z     vdW  Elec       q    Type
REMARK                         _______ _______ _______ _____ _____    ______ ____
ROOT
ATOM      1  O   UNL     1      -3.177   2.019  23.598  0.00  0.00    -0.219 OA
ATOM      2  C   UNL     1      -3.501   2.111  24.351  0.00  0.00    +0.199 C 
ATOM      3  C   UNL     1      -3.347   2.730  24.873  0.00  0.00    +0.135 C 
ATOM      4  C   UNL     1      -3.787   2.601  25.558  0.00  0.00    +0.162 C 
ATOM      5  O   UNL     1      -4.212   1.901  25.460  0.00  0.00    -0.350 OA
ATOM      6  C   UNL     1      -4.036   1.598  24.714  0.00  0.00    +0.169 C 
ENDROOT
BRANCH   6   7
ATOM      7  C   UNL     1      -4.340   0.904  24.388  0.00  0.00    +0.148 C 
BRANCH   7   8
ATOM      8  N   UNL     1      -3.994   0.177  24.569  0.00  0.00    -0.199 NA
ATOM      9  C   UNL     1      -4.390  -0.524  24.389  0.00  0.00    +0.265 C 
ATOM     10  O   UNL     1      -5.131  -0.498  24.028  0.00  0.00    -0.268 OA
BRANCH   9  11
ATOM     11  C   UNL     1      -4.044  -1.251  24.570  0.00  0.00    +0.055 A 
ATOM     12  C   UNL     1      -3.701  -1.372  25.311  0.00  0.00    +0.007 A 
ATOM     13  C   UNL     1      -3.355  -2.098  25.492  0.00  0.00    +0.030 A 
ATOM     14  C   UNL     1      -3.352  -2.704  24.931  0.00  0.00    +0.140 A 
ATOM     15  F   UNL     1      -3.006  -3.431  25.112  0.00  0.00    -0.204 F 
ATOM     16  C   UNL     1      -3.694  -2.584  24.190  0.00  0.00    +0.030 A 
ATOM     17  C   UNL     1      -4.040  -1.857  24.010  0.00  0.00    +0.007 A 
ENDBRANCH   9  11
ENDBRANCH   7   8
ENDBRANCH   6   7
BRANCH   3  18
ATOM     18  N   UNL     1      -2.842   3.368  24.733  0.00  0.00    -0.209 NA
BRANCH  18  19
ATOM     19  C   UNL     1      -2.382   3.672  25.347  0.00  0.00    +0.115 C 
BRANCH  19  20
ATOM     20  C   UNL     1      -1.790   4.223  25.185  0.00  0.00    -0.002 A 
ATOM     21  C   UNL     1      -1.965   5.029  25.182  0.00  0.00    +0.018 A 
ATOM     22  C   UNL     1      -1.373   5.579  25.020  0.00  0.00    +0.099 A 
ATOM     23  N   UNL     1      -0.605   5.324  24.861  0.00  0.00    -0.242 NA
ATOM     24  C   UNL     1      -0.429   4.518  24.864  0.00  0.00    +0.099 A 
ATOM     25  C   UNL     1      -1.022   3.967  25.026  0.00  0.00    +0.018 A 
ENDBRANCH  19  20
ENDBRANCH  18  19
ENDBRANCH   3  18
TORSDOF 6
ENDMDL
MODEL 4
REMARK VINA RESULT:      -9.5      2.868      6.276
REMARK  Name = 
REMARK  6 active torsions:
REMARK  status: ('A' for Active; 'I' for Inactive)
REMARK    1  A    between atoms: C_3  and  N_18
REMARK    2  A    between atoms: C_6  and  C_7
REMARK    3  A    between atoms: C_7  and  N_8
REMARK    4  A    between atoms: C_9  and  C_11
REMARK    5  A    between atoms: N_18  and  C_19
REMARK    6  A    between atoms: C_19  and  C_20
REMARK                            x       y       z     vdW  Elec       q    Type
REMARK                         _______ _______ _______ _____ _____    ______ ____
ROOT
ATOM      1  O   UNL     1      -0.848   1.182  25.985  0.00  0.00    -0.219 OA
ATOM      2  C   UNL     1      -0.698   1.157  25.174  0.00  0.00    +0.199 C 
ATOM      3  C   UNL     1      -0.587   1.808  24.681  0.00  0.00    +0.135 C 
ATOM      4  C   UNL     1      -0.453   1.530  23.916  0.00  0.00    +0.162 C 
ATOM      5  O   UNL     1      -0.481   0.706  23.937  0.00  0.00    -0.350 OA
ATOM      6  C   UNL     1      -0.632   0.475  24.713  0.00  0.00    +0.169 C 
ENDROOT
BRANCH   6   7
ATOM      7  C   UNL     1      -0.705  -0.301  24.983  0.00  0.00    +0.148 C 
BRANCH   7   8
ATOM      8  N   UNL     1      -1.384  -0.736  24.808  0.00  0.00    -0.199 NA
ATOM      9  C   UNL     1      -1.435  -1.529  25.032  0.00  0.00    +0.265 C 
ATOM     10  O   UNL     1      -0.807  -1.885  25.432  0.00  0.00    -0.268 OA
BRANCH   9  11
ATOM     11  C   UNL     1      -2.113  -1.964  24.857  0.00  0.00    +0.055 A 
ATOM     12  C   UNL     1      -2.827  -1.783  25.228  0.00  0.00    +0.007 A 
ATOM     13  C   UNL     1      -3.506  -2.218  25.053  0.00  0.00    +0.030 A 
ATOM     14  C   UNL     1      -3.470  -2.835  24.506  0.00  0.00    +0.140 A 
ATOM     15  F   UNL     1      -4.148  -3.270  24.330  0.00  0.00    -0.204 F 
ATOM     16  C   UNL     1      -2.756  -3.017  24.134  0.00  0.00    +0.030 A 
ATOM     17  C   UNL     1      -2.078  -2.581  24.309  0.00  0.00    +0.007 A 
ENDBRANCH   9  11
ENDBRANCH   7   8
ENDBRANCH   6   7
BRANCH   3  18
ATOM     18  N   UNL     1      -0.607   2.600  24.912  0.00  0.00    -0.209 NA
BRANCH  18  19
ATOM     19  C   UNL     1      -0.929   3.170  24.409  0.00  0.00    +0.115 C 
BRANCH  19  20
ATOM     20  C   UNL     1      -1.124   3.916  24.701  0.00  0.00    -0.002 A 
ATOM     21  C   UNL     1      -1.858   4.041  25.057  0.00  0.00    +0.018 A 
ATOM     22  C   UNL     1      -2.053   4.787  25.349  0.00  0.00    +0.099 A 
ATOM     23  N   UNL     1      -1.515   5.408  25.285  0.00  0.00    -0.242 NA
ATOM     24  C   UNL     1      -0.781   5.284  24.929  0.00  0.00    +0.099 A 
ATOM     25  C   UNL     1      -0.586   4.537  24.637  0.00  0.00    +0.018 A 
ENDBRANCH  19  20
ENDBRANCH  18  19
ENDBRANCH   3  18
TORSDOF 6
ENDMDL
MODEL 5
REMARK VINA RESULT:      -7.3      3.323      4.321
REMARK  Name = 
REMARK  6 active torsions:
REMARK  status: ('A' for Active; 'I' for Inactive)
REMARK    1  A    between atoms: C_3  and  N_18
REMARK    2  A    between atoms: C_6  and  C_7
REMARK    3  A    between atoms: C_7  and  N_8
REMARK    4  A    between atoms: C_9  and  C_11
REMARK    5  A    between atoms: N_18  and  C_19
REMARK    6  A    between atoms: C_19  and  C_20
REMARK                            x       y       z     vdW  Elec       q    Type
REMARK                         _______ _______ _______ _____ _____    ______ ____
ROOT
ATOM      1  O   UNL     1      -2.040   0.944  23.077  0.00  0.00    -0.219 OA
ATOM      2  C   UNL     1      -1.823   0.782  23.856  0.00  0.00    +0.199 C 
ATOM      3  C   UNL     1      -1.054   0.671  24.133  0.00  0.00    +0.135 C 
ATOM      4  C   UNL     1      -1.093   0.522  24.943  0.00  0.00    +0.162 C 
ATOM      5  O   UNL     1      -1.886   0.542  25.168  0.00  0.00    -0.350 OA
ATOM      6  C   UNL     1      -2.338   0.702  24.497  0.00  0.00    +0.169 C 
ENDROOT
BRANCH   6   7
ATOM      7  C   UNL     1      -3.159   0.771  24.469  0.00  0.00    +0.148 C 
BRANCH   7   8
ATOM      8  N   UNL     1      -3.524   1.462  24.733  0.00  0.00    -0.199 NA
ATOM      9  C   UNL     1      -4.347   1.510  24.760  0.00  0.00    +0.265 C 
ATOM     10  O   UNL     1      -4.805   0.867  24.522  0.00  0.00    -0.268 OA
BRANCH   9  11
ATOM     11  C   UNL     1      -4.712   2.202  25.024  0.00  0.00    +0.055 A 
ATOM     12  C   UNL     1      -4.433   2.937  24.773  0.00  0.00    +0.007 A 
ATOM     13  C   UNL     1      -4.797   3.628  25.037  0.00  0.00    +0.030 A 
ATOM     14  C   UNL     1      -5.441   3.584  25.552  0.00  0.00    +0.140 A 
ATOM     15  F   UNL     1      -5.806   4.276  25.816  0.00  0.00    -0.204 F 
ATOM     16  C   UNL     1      -5.720   2.849  25.802  0.00  0.00    +0.030 A 
ATOM     17  C   UNL     1      -5.355   2.158  25.538  0.00  0.00    +0.007 A 
ENDBRANCH   9  11
ENDBRANCH   7   8
ENDBRANCH   6   7
BRANCH   3  18
ATOM     18  N   UNL     1      -0.366   0.702  23.678  0.00  0.00    -0.209 NA
BRANCH  18  19
ATOM     19  C   UNL     1       0.300   0.272  23.906  0.00  0.00    +0.115 C 
BRANCH  19  20
ATOM     20  C   UNL     1       0.965   0.251  23.419  0.00  0.00    -0.002 A 
ATOM     21  C   UNL     1       1.593   0.769  23.556  0.00  0.00    +0.018 A 
ATOM     22  C   UNL     1       2.258   0.748  23.069  0.00  0.00    +0.099 A 
ATOM     23  N   UNL     1       2.296   0.210  22.445  0.00  0.00    -0.242 NA
ATOM     24  C   UNL     1       1.669  -0.308  22.308  0.00  0.00    +0.099 A 
ATOM     25  C   UNL     1       1.003  -0.287  22.795  0.00  0.00    +0.018 A 
ENDBRANCH  19  20
ENDBRANCH  18  19
ENDBRANCH   3  18
TORSDOF 6
ENDMDL
MODEL 6
REMARK VINA RESULT:      -6.9     16.167     18.479
REMARK  Name = 
REMARK  6 active torsions:
REMARK  status: ('A' for Active; 'I' for Inactive)
REMARK    1  A    between atoms: C_3  and  N_18
REMARK    2  A    between atoms: C_6  and  C_7
REMARK    3  A    between atoms: C_7  and  N_8
REMARK    4  A    between atoms: C_9  and  C_11
REMARK    5  A    between atoms: N_18  and  C_19
REMARK    6  A    between atoms: C_19  and  C_20
REMARK                            x       y       z     vdW  Elec       q    Type
REMARK                         _______ _______ _______ _____ _____    ______ ____
ROOT
ATOM      1  O   UNL     1      13.240   6.603  19.043  0.00  0.00    -0.219 OA
ATOM      2  C   UNL     1      13.528   7.376  19.016  0.00  0.00    +0.199 C 
ATOM      3  C   UNL     1      14.311   7.597  18.880  0.00  0.00    +0.135 C 
ATOM      4  C   UNL     1      14.350   8.421  18.900  0.00  0.00    +0.162 C 
ATOM      5  O   UNL     1      13.591   8.708  19.049  0.00  0.00    -0.350 OA
ATOM      6  C   UNL     1      13.083   8.063  19.120  0.00  0.00    +0.169 C 
ENDROOT
BRANCH   6   7
ATOM      7  C   UNL     1      12.273   8.098  19.269  0.00  0.00    +0.148 C 
BRANCH   7   8
ATOM      8  N   UNL     1      11.998   8.134  20.046  0.00  0.00    -0.199 NA
ATOM      9  C   UNL     1      11.203   8.298  20.196  0.00  0.00    +0.265 C 
ATOM     10  O   UNL     1      10.684   8.426  19.568  0.00  0.00    -0.268 OA
BRANCH   9  11
ATOM     11  C   UNL     1      10.928   8.334  20.973  0.00  0.00    +0.055 A 
ATOM     12  C   UNL     1      10.678   7.646  21.354  0.00  0.00    +0.007 A 
ATOM     13  C   UNL     1      10.404   7.682  22.131  0.00  0.00    +0.030 A 
ATOM     14  C   UNL     1      10.379   8.406  22.527  0.00  0.00    +0.140 A 
ATOM     15  F   UNL     1      10.104   8.442  23.304  0.00  0.00    -0.204 F 
ATOM     16  C   UNL     1      10.629   9.093  22.146  0.00  0.00    +0.030 A 
ATOM     17  C   UNL     1      10.904   9.058  21.369  0.00  0.00    +0.007 A 
ENDBRANCH   9  11
ENDBRANCH   7   8
ENDBRANCH   6   7
BRANCH   3  18
ATOM     18  N   UNL     1      14.943   7.084  18.747  0.00  0.00    -0.209 NA
BRANCH  18  19
ATOM     19  C   UNL     1      15.685   7.251  19.069  0.00  0.00    +0.115 C 
BRANCH  19  20
ATOM     20  C   UNL     1      16.254   6.657  19.124  0.00  0.00    -0.002 A 
ATOM     21  C   UNL     1      16.601   6.485  19.853  0.00  0.00    +0.018 A 
ATOM     22  C   UNL     1      17.170   5.891  19.908  0.00  0.00    +0.099 A 
ATOM     23  N   UNL     1      17.392   5.469  19.235  0.00  0.00    -0.242 NA
ATOM     24  C   UNL     1      17.046   5.641  18.507  0.00  0.00    +0.099 A 
ATOM     25  C   UNL     1      16.476   6.235  18.451  0.00  0.00    +0.018 A 
ENDBRANCH  19  20
ENDBRANCH  18  19
ENDBRANCH   3  18
TORSDOF 6
ENDMDL
MODEL 7
REMARK VINA RESULT:      -6.6     17.400     19.058
REMARK  Name = 
REMARK  6 active torsions:
REMARK  status: ('A' for Active; 'I' for Inactive)
REMARK    1  A    between atoms: C_3  and  N_18
REMARK    2  A    between atoms: C_6  and  C_7
REMARK    3  A    between atoms: C_7  and  N_8
REMARK    4  A    between atoms: C_9  and  C_11
REMARK    5  A    between atoms: N_18  and  C_19
REMARK    6  A    between atoms: C_19  and  C_20
REMARK                            x       y       z     vdW  Elec       q    Type
REMARK                         _______ _______ _______ _____ _____    ______ ____
ROOT
ATOM      1  O   UNL     1      13.134   6.776  19.590  0.00  0.00    -0.219 OA
ATOM      2  C   UNL     1      13.382   7.556  19.693  0.00  0.00    +0.199 C 
ATOM      3  C   UNL     1      14.106   7.798  20.005  0.00  0.00    +0.135 C 
ATOM      4  C   UNL     1      14.120   8.622  20.007  0.00  0.00    +0.162 C 
ATOM      5  O   UNL     1      13.405   8.890  19.695  0.00  0.00    -0.350 OA
ATOM      6  C   UNL     1      12.948   8.232  19.501  0.00  0.00    +0.169 C 
ENDROOT
BRANCH   6   7
ATOM      7  C   UNL     1      12.192   8.246  19.173  0.00  0.00    +0.148 C 
BRANCH   7   8
ATOM      8  N   UNL     1      12.094   8.403  18.369  0.00  0.00    -0.199 NA
ATOM      9  C   UNL     1      11.335   8.466  18.050  0.00  0.00    +0.265 C 
ATOM     10  O   UNL     1      10.675   8.371  18.536  0.00  0.00    -0.268 OA
BRANCH   9  11
ATOM     11  C   UNL     1      11.238   8.622  17.246  0.00  0.00    +0.055 A 
ATOM     12  C   UNL     1      10.515   8.466  16.881  0.00  0.00    +0.007 A 
ATOM     13  C   UNL     1      10.417   8.623  16.077  0.00  0.00    +0.030 A 
ATOM     14  C   UNL     1      11.042   8.936  15.638  0.00  0.00    +0.140 A 
ATOM     15  F   UNL     1      10.944   9.093  14.834  0.00  0.00    -0.204 F 
ATOM     16  C   UNL     1      11.765   9.093  16.004  0.00  0.00    +0.030 A 
ATOM     17  C   UNL     1      11.863   8.936  16.808  0.00  0.00    +0.007 A 
ENDBRANCH   9  11
ENDBRANCH   7   8
ENDBRANCH   6   7
BRANCH   3  18
ATOM     18  N   UNL     1      14.709   7.301  20.270  0.00  0.00    -0.209 NA
BRANCH  18  19
ATOM     19  C   UNL     1      15.462   7.607  20.413  0.00  0.00    +0.115 C 
BRANCH  19  20
ATOM     20  C   UNL     1      16.110   7.100  20.470  0.00  0.00    -0.002 A 
ATOM     21  C   UNL     1      16.547   6.911  19.797  0.00  0.00    +0.018 A 
ATOM     22  C   UNL     1      17.195   6.404  19.854  0.00  0.00    +0.099 A 
ATOM     23  N   UNL     1      17.405   6.085  20.585  0.00  0.00    -0.242 NA
ATOM     24  C   UNL     1      16.968   6.273  21.259  0.00  0.00    +0.099 A 
ATOM     25  C   UNL     1      16.320   6.781  21.202  0.00  0.00    +0.018 A 
ENDBRANCH  19  20
ENDBRANCH  18  19
ENDBRANCH   3  18
TORSDOF 6
ENDMDL
MODEL 8
REMARK VINA RESULT:      -6.4     17.817     19.891
REMARK  Name = 
REMARK  6 active torsions:
REMARK  status: ('A' for Active; 'I' for Inactive)
REMARK    1  A    between atoms: C_3  and  N_18
REMARK    2  A    between atoms: C_6  and  C_7
REMARK    3  A    between atoms: C_7  and  N_8
REMARK    4  A    between atoms: C_9  and  C_11
REMARK    5  A    between atoms: N_18  and  C_19
REMARK    6  A    between atoms: C_19  and  C_20
REMARK                            x       y       z     vdW  Elec       q    Type
REMARK                         _______ _______ _______ _____ _____    ______ ____
ROOT
ATOM      1  O   UNL     1      13.919   6.708  17.120  0.00  0.00    -0.219 OA
ATOM      2  C   UNL     1      14.141   7.454  17.394  0.00  0.00    +0.199 C 
ATOM      3  C   UNL     1      13.728   8.158  17.274  0.00  0.00    +0.135 C 
ATOM      4  C   UNL     1      14.146   8.765  17.642  0.00  0.00    +0.162 C 
ATOM      5  O   UNL     1      14.819   8.437  17.990  0.00  0.00    -0.350 OA
ATOM      6  C   UNL     1      14.816   7.627  17.837  0.00  0.00    +0.169 C 
ENDROOT
BRANCH   6   7
ATOM      7  C   UNL     1      15.386   7.085  18.083  0.00  0.00    +0.148 C 
BRANCH   7   8
ATOM      8  N   UNL     1      15.659   7.099  18.861  0.00  0.00    -0.199 NA
ATOM      9  C   UNL     1      16.153   6.497  19.136  0.00  0.00    +0.265 C 
ATOM     10  O   UNL     1      16.373   5.883  18.632  0.00  0.00    -0.268 OA
BRANCH   9  11
ATOM     11  C   UNL     1      16.425   6.511  19.914  0.00  0.00    +0.055 A 
ATOM     12  C   UNL     1      16.002   6.121  20.506  0.00  0.00    +0.007 A 
ATOM     13  C   UNL     1      16.275   6.135  21.285  0.00  0.00    +0.030 A 
ATOM     14  C   UNL     1      16.971   6.537  21.471  0.00  0.00    +0.140 A 
ATOM     15  F   UNL     1      17.244   6.551  22.250  0.00  0.00    -0.204 F 
ATOM     16  C   UNL     1      17.394   6.926  20.879  0.00  0.00    +0.030 A 
ATOM     17  C   UNL     1      17.121   6.913  20.101  0.00  0.00    +0.007 A 
ENDBRANCH   9  11
ENDBRANCH   7   8
ENDBRANCH   6   7
BRANCH   3  18
ATOM     18  N   UNL     1      13.019   8.239  16.858  0.00  0.00    -0.209 NA
BRANCH  18  19
ATOM     19  C   UNL     1      12.458   8.791  17.103  0.00  0.00    +0.115 C 
BRANCH  19  20
ATOM     20  C   UNL     1      11.729   8.837  16.720  0.00  0.00    -0.002 A 
ATOM     21  C   UNL     1      11.034   8.674  17.133  0.00  0.00    +0.018 A 
ATOM     22  C   UNL     1      10.305   8.720  16.750  0.00  0.00    +0.099 A 
ATOM     23  N   UNL     1      10.271   8.929  15.953  0.00  0.00    -0.242 NA
ATOM     24  C   UNL     1      10.966   9.093  15.539  0.00  0.00    +0.099 A 
ATOM     25  C   UNL     1      11.695   9.047  15.923  0.00  0.00    +0.018 A 
ENDBRANCH  19  20
ENDBRANCH  18  19
ENDBRANCH   3  18
TORSDOF 6
ENDMDL
MODEL 9
REMARK VINA RESULT:      -6.1     17.615     18.647
REMARK  Name = 
REMARK  6 active torsions:
REMARK  status: ('A' for Active; 'I' for Inactive)
REMARK    1  A    between atoms: C_3  and  N_18
REMARK    2  A    between atoms: C_6  and  C_7
REMARK    3  A    between atoms: C_7  and  N_8
REMARK    4  A    between atoms: C_9  and  C_11
REMARK    5  A    between atoms: N_18  and  C_19
REMARK    6  A    between atoms: C_19  and  C_20
REMARK                            x       y       z     vdW  Elec       q    Type
REMARK                         _______ _______ _______ _____ _____    ______ ____
ROOT
ATOM      1  O   UNL     1      12.220   6.802  18.953  0.00  0.00    -0.219 OA
ATOM      2  C   UNL     1      12.182   7.577  19.235  0.00  0.00    +0.199 C 
ATOM      3  C   UNL     1      11.836   8.217  18.848  0.00  0.00    +0.135 C 
ATOM      4  C   UNL     1      11.924   8.883  19.327  0.00  0.00    +0.162 C 
ATOM      5  O   UNL     1      12.325   8.653  20.011  0.00  0.00    -0.350 OA
ATOM      6  C   UNL     1      12.485   7.847  19.954  0.00  0.00    +0.169 C 
ENDROOT
BRANCH   6   7
ATOM      7  C   UNL     1      12.877   7.389  20.517  0.00  0.00    +0.148 C 
BRANCH   7   8
ATOM      8  N   UNL     1      13.701   7.354  20.517  0.00  0.00    -0.199 NA
ATOM      9  C   UNL     1      14.109   7.227  21.224  0.00  0.00    +0.265 C 
ATOM     10  O   UNL     1      13.691   7.136  21.929  0.00  0.00    -0.268 OA
BRANCH   9  11
ATOM     11  C   UNL     1      14.933   7.192  21.224  0.00  0.00    +0.055 A 
ATOM     12  C   UNL     1      15.318   6.541  20.895  0.00  0.00    +0.007 A 
ATOM     13  C   UNL     1      16.142   6.506  20.895  0.00  0.00    +0.030 A 
ATOM     14  C   UNL     1      16.581   7.122  21.225  0.00  0.00    +0.140 A 
ATOM     15  F   UNL     1      17.405   7.086  21.226  0.00  0.00    -0.204 F 
ATOM     16  C   UNL     1      16.196   7.773  21.554  0.00  0.00    +0.030 A 
ATOM     17  C   UNL     1      15.372   7.808  21.554  0.00  0.00    +0.007 A 
ENDBRANCH   9  11
ENDBRANCH   7   8
ENDBRANCH   6   7
BRANCH   3  18
ATOM     18  N   UNL     1      11.466   8.196  18.110  0.00  0.00    -0.209 NA
BRANCH  18  19
ATOM     19  C   UNL     1      11.313   8.898  17.705  0.00  0.00    +0.115 C 
BRANCH  19  20
ATOM     20  C   UNL     1      11.293   8.903  16.881  0.00  0.00    -0.002 A 
ATOM     21  C   UNL     1      11.976   9.074  16.452  0.00  0.00    +0.018 A 
ATOM     22  C   UNL     1      11.956   9.079  15.628  0.00  0.00    +0.099 A 
ATOM     23  N   UNL     1      11.252   8.913  15.232  0.00  0.00    -0.242 NA
ATOM     24  C   UNL     1      10.568   8.742  15.660  0.00  0.00    +0.099 A 
ATOM     25  C   UNL     1      10.588   8.737  16.485  0.00  0.00    +0.018 A 
ENDBRANCH  19  20
ENDBRANCH  18  19
ENDBRANCH   3  18
TORSDOF 6
ENDMDL
