MODEL 1
REMARK VINA RESULT:     -13.1      0.000      0.000
REMARK  Name = 
REMARK  6 active torsions:
REMARK  status: ('A' for Active; 'I' for Inactive)
REMARK    1  A    between atoms: C_2  and  C_4
REMARK    2  A    between atoms: C_4  and  C_5
REMARK    3  A    between atoms: C_7  and  C_26
REMARK    4  A    between atoms: N_11  and  C_12
REMARK    5  A    between atoms: C_12  and  C_13
REMARK    6  A    between atoms: N_28  and  C_29
REMARK                            x       y       z     vdW  Elec       q    Type
REMARK                         _______ _______ _______ _____ _____    ______ ____
ROOT
ATOM      5  C   UNL     1      -4.556   1.934  24.787  0.00  0.00    +0.095 C 
ATOM      6  N   UNL     1      -4.478   1.113  24.795  0.00  0.00    -0.207 NA
ATOM      7  C   UNL     1      -3.790   0.662  24.861  0.00  0.00    +0.155 C 
ATOM      8  C   UNL     1      -3.010   0.922  24.935  0.00  0.00    +0.055 C 
ATOM      9  C   UNL     1      -2.726   1.696  24.961  0.00  0.00    -0.002 A 
ATOM     10  C   UNL     1      -1.927   1.885  25.036  0.00  0.00    +0.072 A 
ATOM     11  N   UNL     1      -1.858   2.708  25.042  0.00  0.00    -0.322 N 
ATOM     20  C   UNL     1      -2.615   3.027  24.970  0.00  0.00    +0.060 A 
ATOM     21  C   UNL     1      -3.152   2.402  24.919  0.00  0.00    +0.011 A 
ATOM     22  C   UNL     1      -3.967   2.507  24.842  0.00  0.00    -0.005 A 
ATOM     23  C   UNL     1      -4.229   3.335  24.816  0.00  0.00    -0.003 A 
ATOM     24  C   UNL     1      -3.693   3.960  24.866  0.00  0.00    +0.001 A 
ATOM     25  C   UNL     1      -2.885   3.806  24.943  0.00  0.00    +0.017 A 
ENDROOT
BRANCH   7  26
ATOM     26  C   UNL     1      -3.895  -0.156  24.852  0.00  0.00    +0.257 C 
ATOM     27  O   UNL     1      -4.082  -0.555  25.550  0.00  0.00    -0.272 OA
ATOM     28  N   UNL     1      -3.814  -0.574  24.146  0.00  0.00    -0.206 NA
BRANCH  28  29
ATOM     29  C   UNL     1      -3.920  -1.393  24.138  0.00  0.00    +0.095 C 
ATOM     30  C   UNL     1      -4.463  -1.907  23.790  0.00  0.00    +0.022 C 
ATOM     31  C   UNL     1      -4.070  -2.549  24.126  0.00  0.00    +0.004 C 
ATOM     32  C   UNL     1      -3.527  -2.035  24.474  0.00  0.00    +0.022 C 
ENDBRANCH  28  29
ENDBRANCH   7  26
BRANCH   5   4
ATOM      4  C   UNL     1      -5.327   2.218  24.714  0.00  0.00    +0.022 C 
BRANCH   4   2
ATOM      1  C   UNL     1      -6.502   1.406  24.748  0.00  0.00    +0.000 C 
ATOM      2  C   UNL     1      -5.940   1.865  25.139  0.00  0.00    +0.002 C 
ATOM      3  C   UNL     1      -5.988   1.971  25.957  0.00  0.00    +0.000 C 
ENDBRANCH   4   2
ENDBRANCH   5   4
BRANCH  11  12
ATOM     12  C   UNL     1      -1.156   3.136  25.108  0.00  0.00    +0.137 C 
BRANCH  12  13
ATOM     13  C   UNL     1      -0.431   2.743  25.106  0.00  0.00    +0.050 A 
ATOM     14  C   UNL     1      -0.022   2.477  25.772  0.00  0.00    +0.152 A 
ATOM     15  C   UNL     1      -0.267   2.558  26.556  0.00  0.00    +0.075 C 
ATOM     16  O   UNL     1       0.674   2.117  25.517  0.00  0.00    -0.358 OA
ATOM     17  N   UNL     1       0.696   2.159  24.693  0.00  0.00    -0.082 NA
ATOM     18  C   UNL     1       0.013   2.546  24.440  0.00  0.00    +0.098 A 
ATOM     19  C   UNL     1      -0.190   2.708  23.656  0.00  0.00    +0.055 C 
ENDBRANCH  12  13
ENDBRANCH  11  12
TORSDOF 6
ENDMDL
MODEL 2
REMARK VINA RESULT:     -11.8      1.837      3.931
REMARK  Name = 
REMARK  6 active torsions:
REMARK  status: ('A' for Active; 'I' for Inactive)
REMARK    1  A    between atoms: C_2  and  C_4
REMARK    2  A    between atoms: C_4  and  C_5
REMARK    3  A    between atoms: C_7  and  C_26
REMARK    4  A    between atoms: N_11  and  C_12
REMARK    5  A    between atoms: C_12  and  C_13
REMARK    6  A    between atoms: N_28  and  C_29
REMARK                            x       y       z     vdW  Elec       q    Type
REMARK                         _______ _______ _______ _____ _____    ______ ____
ROOT
ATOM      5  C   UNL     1      -4.129   2.167  24.860  0.00  0.00    +0.095 C 
ATOM      6  N   UNL     1      -3.568   2.747  25.033  0.00  0.00    -0.207 NA
ATOM      7  C   UNL     1      -2.751   2.664  25.118  0.00  0.00    +0.155 C 
ATOM      8  C   UNL     1      -2.294   1.981  25.051  0.00  0.00    +0.055 C 
ATOM      9  C   UNL     1      -2.540   1.212  24.882  0.00  0.00    -0.002 A 
ATOM     10  C   UNL     1      -2.024   0.570  24.829  0.00  0.00    +0.072 A 
ATOM     11  N   UNL     1      -2.469  -0.102  24.654  0.00  0.00    -0.322 N 
ATOM     20  C   UNL     1      -3.261   0.124  24.598  0.00  0.00    +0.060 A 
ATOM     21  C   UNL     1      -3.305   0.936  24.739  0.00  0.00    +0.011 A 
ATOM     22  C   UNL     1      -4.012   1.362  24.729  0.00  0.00    -0.005 A 
ATOM     23  C   UNL     1      -4.721   0.891  24.557  0.00  0.00    -0.003 A 
ATOM     24  C   UNL     1      -4.678   0.080  24.416  0.00  0.00    +0.001 A 
ATOM     25  C   UNL     1      -3.947  -0.304  24.436  0.00  0.00    +0.017 A 
ENDROOT
BRANCH   7  26
ATOM     26  C   UNL     1      -2.337   3.356  25.294  0.00  0.00    +0.257 C 
ATOM     27  O   UNL     1      -2.198   3.565  26.080  0.00  0.00    -0.272 OA
ATOM     28  N   UNL     1      -2.064   3.839  24.683  0.00  0.00    -0.206 NA
BRANCH  28  29
ATOM     29  C   UNL     1      -1.650   4.531  24.860  0.00  0.00    +0.095 C 
ATOM     30  C   UNL     1      -0.855   4.749  24.868  0.00  0.00    +0.022 C 
ATOM     31  C   UNL     1      -1.065   5.509  25.109  0.00  0.00    +0.004 C 
ATOM     32  C   UNL     1      -1.861   5.291  25.101  0.00  0.00    +0.022 C 
ENDBRANCH  28  29
ENDBRANCH   7  26
BRANCH   5   4
ATOM      4  C   UNL     1      -4.909   2.429  24.812  0.00  0.00    +0.022 C 
BRANCH   4   2
ATOM      1  C   UNL     1      -5.419   2.734  26.112  0.00  0.00    +0.000 C 
ATOM      2  C   UNL     1      -5.195   2.979  25.357  0.00  0.00    +0.002 C 
ATOM      3  C   UNL     1      -5.255   3.775  25.146  0.00  0.00    +0.000 C 
ENDBRANCH   4   2
ENDBRANCH   5   4
BRANCH  11  12
ATOM     12  C   UNL     1      -2.176  -0.866  24.552  0.00  0.00    +0.137 C 
BRANCH  12  13
ATOM     13  C   UNL     1      -1.424  -1.060  24.830  0.00  0.00    +0.050 A 
ATOM     14  C   UNL     1      -1.237  -1.297  25.598  0.00  0.00    +0.152 A 
ATOM     15  C   UNL     1      -1.769  -1.381  26.222  0.00  0.00    +0.075 C 
ATOM     16  O   UNL     1      -0.424  -1.434  25.631  0.00  0.00    -0.358 OA
ATOM     17  N   UNL     1      -0.109  -1.282  24.884  0.00  0.00    -0.082 NA
ATOM     18  C   UNL     1      -0.727  -1.051  24.389  0.00  0.00    +0.098 A 
ATOM     19  C   UNL     1      -0.659  -0.847  23.592  0.00  0.00    +0.055 C 
ENDBRANCH  12  13
ENDBRANCH  11  12
TORSDOF 6
ENDMDL
MODEL 3
REMARK VINA RESULT:     -11.4      1.726      3.619
REMARK  Name = 
REMARK  6 active torsions:
REMARK  status: ('A' for Active; 'I' for Inactive)
REMARK    1  A    between atoms: C_2  and  C_4
REMARK    2  A    between atoms: C_4  and  C_5
REMARK    3  A    between atoms: C_7  and  C_26
REMARK    4  A    between atoms: N_11  and  C_12
REMARK    5  A    between atoms: C_12  and  C_13
REMARK    6  A    between atoms: N_28  and  C_29
REMARK                            x       y       z     vdW  Elec       q    Type
REMARK                         _______ _______ _______ _____ _____    ______ ____
ROOT
ATOM      5  C   UNL     1      -0.965   0.332  24.758  0.00  0.00    +0.095 C 
ATOM      6  N   UNL     1      -1.568  -0.231  24.776  0.00  0.00    -0.207 NA
ATOM      7  C   UNL     1      -2.384  -0.110  24.804  0.00  0.00    +0.155 C 
ATOM      8  C   UNL     1      -2.798   0.604  24.820  0.00  0.00    +0.055 C 
ATOM      9  C   UNL     1      -2.498   1.373  24.813  0.00  0.00    -0.002 A 
ATOM     10  C   UNL     1      -2.974   2.046  24.831  0.00  0.00    +0.072 A 
ATOM     11  N   UNL     1      -2.481   2.708  24.817  0.00  0.00    -0.322 N 
ATOM     20  C   UNL     1      -1.700   2.443  24.790  0.00  0.00    +0.060 A 
ATOM     21  C   UNL     1      -1.710   1.617  24.787  0.00  0.00    +0.011 A 
ATOM     22  C   UNL     1      -1.028   1.153  24.763  0.00  0.00    -0.005 A 
ATOM     23  C   UNL     1      -0.283   1.599  24.739  0.00  0.00    -0.003 A 
ATOM     24  C   UNL     1      -0.272   2.424  24.742  0.00  0.00    +0.001 A 
ATOM     25  C   UNL     1      -0.981   2.846  24.767  0.00  0.00    +0.017 A 
ENDROOT
BRANCH   7  26
ATOM     26  C   UNL     1      -2.847  -0.793  24.817  0.00  0.00    +0.257 C 
ATOM     27  O   UNL     1      -3.035  -1.150  25.537  0.00  0.00    -0.272 OA
ATOM     28  N   UNL     1      -3.121  -1.118  24.111  0.00  0.00    -0.206 NA
BRANCH  28  29
ATOM     29  C   UNL     1      -3.584  -1.801  24.125  0.00  0.00    +0.095 C 
ATOM     30  C   UNL     1      -4.351  -1.991  23.886  0.00  0.00    +0.022 C 
ATOM     31  C   UNL     1      -4.239  -2.767  24.144  0.00  0.00    +0.004 C 
ATOM     32  C   UNL     1      -3.473  -2.577  24.383  0.00  0.00    +0.022 C 
ENDBRANCH  28  29
ENDBRANCH   7  26
BRANCH   5   4
ATOM      4  C   UNL     1      -0.197   0.031  24.731  0.00  0.00    +0.022 C 
BRANCH   4   2
ATOM      1  C   UNL     1       0.011  -1.381  24.677  0.00  0.00    +0.000 C 
ATOM      2  C   UNL     1      -0.036  -0.652  24.296  0.00  0.00    +0.002 C 
ATOM      3  C   UNL     1       0.077  -0.603  23.480  0.00  0.00    +0.000 C 
ENDBRANCH   4   2
ENDBRANCH   5   4
BRANCH  11  12
ATOM     12  C   UNL     1      -2.724   3.495  24.827  0.00  0.00    +0.137 C 
BRANCH  12  13
ATOM     13  C   UNL     1      -3.499   3.685  25.038  0.00  0.00    +0.050 A 
ATOM     14  C   UNL     1      -4.146   3.719  24.527  0.00  0.00    +0.152 A 
ATOM     15  C   UNL     1      -4.132   3.568  23.716  0.00  0.00    +0.075 C 
ATOM     16  O   UNL     1      -4.809   3.929  24.970  0.00  0.00    -0.358 OA
ATOM     17  N   UNL     1      -4.573   4.026  25.754  0.00  0.00    -0.082 NA
ATOM     18  C   UNL     1      -3.763   3.875  25.796  0.00  0.00    +0.098 A 
ATOM     19  C   UNL     1      -3.298   3.908  26.477  0.00  0.00    +0.055 C 
ENDBRANCH  12  13
ENDBRANCH  11  12
TORSDOF 6
ENDMDL
MODEL 4
REMARK VINA RESULT:     -11.3      1.134      4.304
REMARK  Name = 
REMARK  6 active torsions:
REMARK  status: ('A' for Active; 'I' for Inactive)
REMARK    1  A    between atoms: C_2  and  C_4
REMARK    2  A    between atoms: C_4  and  C_5
REMARK    3  A    between atoms: C_7  and  C_26
REMARK    4  A    between atoms: N_11  and  C_12
REMARK    5  A    between atoms: C_12  and  C_13
REMARK    6  A    between atoms: N_28  and  C_29
REMARK                            x       y       z     vdW  Elec       q    Type
REMARK                         _______ _______ _______ _____ _____    ______ ____
ROOT
ATOM      5  C   UNL     1      -3.723   2.512  24.597  0.00  0.00    +0.095 C 
ATOM      6  N   UNL     1      -2.924   2.537  24.393  0.00  0.00    -0.207 NA
ATOM      7  C   UNL     1      -2.400   1.908  24.287  0.00  0.00    +0.155 C 
ATOM      8  C   UNL     1      -2.547   1.100  24.357  0.00  0.00    +0.055 C 
ATOM      9  C   UNL     1      -3.252   0.720  24.552  0.00  0.00    -0.002 A 
ATOM     10  C   UNL     1      -3.328  -0.100  24.606  0.00  0.00    +0.072 A 
ATOM     11  N   UNL     1      -4.108  -0.272  24.811  0.00  0.00    -0.322 N 
ATOM     20  C   UNL     1      -4.516   0.442  24.885  0.00  0.00    +0.060 A 
ATOM     21  C   UNL     1      -3.987   1.055  24.725  0.00  0.00    +0.011 A 
ATOM     22  C   UNL     1      -4.195   1.853  24.745  0.00  0.00    -0.005 A 
ATOM     23  C   UNL     1      -5.025   2.010  24.949  0.00  0.00    -0.003 A 
ATOM     24  C   UNL     1      -5.554   1.398  25.109  0.00  0.00    +0.001 A 
ATOM     25  C   UNL     1      -5.299   0.613  25.077  0.00  0.00    +0.017 A 
ENDROOT
BRANCH   7  26
ATOM     26  C   UNL     1      -1.628   2.116  24.082  0.00  0.00    +0.257 C 
ATOM     27  O   UNL     1      -1.454   2.345  23.308  0.00  0.00    -0.272 OA
ATOM     28  N   UNL     1      -1.031   2.095  24.650  0.00  0.00    -0.206 NA
BRANCH  28  29
ATOM     29  C   UNL     1      -0.260   2.304  24.445  0.00  0.00    +0.095 C 
ATOM     30  C   UNL     1       0.409   1.890  24.196  0.00  0.00    +0.022 C 
ATOM     31  C   UNL     1       0.831   2.597  24.154  0.00  0.00    +0.004 C 
ATOM     32  C   UNL     1       0.162   3.011  24.402  0.00  0.00    +0.022 C 
ENDBRANCH  28  29
ENDBRANCH   7  26
BRANCH   5   4
ATOM      4  C   UNL     1      -4.098   3.244  24.662  0.00  0.00    +0.022 C 
BRANCH   4   2
ATOM      1  C   UNL     1      -3.538   3.939  25.779  0.00  0.00    +0.000 C 
ATOM      2  C   UNL     1      -3.688   3.892  24.969  0.00  0.00    +0.002 C 
ATOM      3  C   UNL     1      -3.429   4.492  24.464  0.00  0.00    +0.000 C 
ENDBRANCH   4   2
ENDBRANCH   5   4
BRANCH  11  12
ATOM     12  C   UNL     1      -4.427  -1.024  24.923  0.00  0.00    +0.137 C 
BRANCH  12  13
ATOM     13  C   UNL     1      -3.949  -1.692  24.839  0.00  0.00    +0.050 A 
ATOM     14  C   UNL     1      -3.445  -2.003  25.415  0.00  0.00    +0.152 A 
ATOM     15  C   UNL     1      -3.331  -1.701  26.174  0.00  0.00    +0.075 C 
ATOM     16  O   UNL     1      -3.076  -2.668  25.097  0.00  0.00    -0.358 OA
ATOM     17  N   UNL     1      -3.351  -2.768  24.325  0.00  0.00    -0.082 NA
ATOM     18  C   UNL     1      -3.891  -2.165  24.167  0.00  0.00    +0.098 A 
ATOM     19  C   UNL     1      -4.300  -2.054  23.459  0.00  0.00    +0.055 C 
ENDBRANCH  12  13
ENDBRANCH  11  12
TORSDOF 6
ENDMDL
MODEL 5
REMARK VINA RESULT:     -11.2      1.919      3.637
REMARK  Name = 
REMARK  6 active torsions:
REMARK  status: ('A' for Active; 'I' for Inactive)
REMARK    1  A    between atoms: C_2  and  C_4
REMARK    2  A    between atoms: C_4  and  C_5
REMARK    3  A    between atoms: C_7  and  C_26
REMARK    4  A    between atoms: N_11  and  C_12
REMARK    5  A    between atoms: C_12  and  C_13
REMARK    6  A    between atoms: N_28  and  C_29
REMARK                            x       y       z     vdW  Elec       q    Type
REMARK                         _______ _______ _______ _____ _____    ______ ____
ROOT
ATOM      5  C   UNL     1      -1.986   3.211  25.591  0.00  0.00    +0.095 C 
ATOM      6  N   UNL     1      -2.757   3.047  25.351  0.00  0.00    -0.207 NA
ATOM      7  C   UNL     1      -3.062   2.343  25.045  0.00  0.00    +0.155 C 
ATOM      8  C   UNL     1      -2.670   1.632  24.904  0.00  0.00    +0.055 C 
ATOM      9  C   UNL     1      -1.877   1.447  25.034  0.00  0.00    -0.002 A 
ATOM     10  C   UNL     1      -1.549   0.708  24.869  0.00  0.00    +0.072 A 
ATOM     11  N   UNL     1      -0.749   0.733  25.069  0.00  0.00    -0.322 N 
ATOM     20  C   UNL     1      -0.582   1.487  25.359  0.00  0.00    +0.060 A 
ATOM     21  C   UNL     1      -1.279   1.928  25.337  0.00  0.00    +0.011 A 
ATOM     22  C   UNL     1      -1.328   2.714  25.585  0.00  0.00    -0.005 A 
ATOM     23  C   UNL     1      -0.584   3.053  25.876  0.00  0.00    -0.003 A 
ATOM     24  C   UNL     1       0.113   2.613  25.899  0.00  0.00    +0.001 A 
ATOM     25  C   UNL     1       0.114   1.829  25.639  0.00  0.00    +0.017 A 
ENDROOT
BRANCH   7  26
ATOM     26  C   UNL     1      -3.865   2.354  24.856  0.00  0.00    +0.257 C 
ATOM     27  O   UNL     1      -4.108   2.587  24.102  0.00  0.00    -0.272 OA
ATOM     28  N   UNL     1      -4.425   2.132  25.419  0.00  0.00    -0.206 NA
BRANCH  28  29
ATOM     29  C   UNL     1      -5.228   2.143  25.228  0.00  0.00    +0.095 C 
ATOM     30  C   UNL     1      -5.849   2.671  25.352  0.00  0.00    +0.022 C 
ATOM     31  C   UNL     1      -6.363   2.159  24.959  0.00  0.00    +0.004 C 
ATOM     32  C   UNL     1      -5.741   1.630  24.836  0.00  0.00    +0.022 C 
ENDBRANCH  28  29
ENDBRANCH   7  26
BRANCH   5   4
ATOM      4  C   UNL     1      -1.855   3.975  25.875  0.00  0.00    +0.022 C 
BRANCH   4   2
ATOM      1  C   UNL     1      -1.929   4.934  24.818  0.00  0.00    +0.000 C 
ATOM      2  C   UNL     1      -2.230   4.617  25.518  0.00  0.00    +0.002 C 
ATOM      3  C   UNL     1      -2.907   4.943  25.861  0.00  0.00    +0.000 C 
ENDBRANCH   4   2
ENDBRANCH   5   4
BRANCH  11  12
ATOM     12  C   UNL     1      -0.210   0.113  24.994  0.00  0.00    +0.137 C 
BRANCH  12  13
ATOM     13  C   UNL     1      -0.436  -0.589  24.624  0.00  0.00    +0.050 A 
ATOM     14  C   UNL     1      -0.331  -0.772  23.826  0.00  0.00    +0.152 A 
ATOM     15  C   UNL     1       0.020  -0.286  23.259  0.00  0.00    +0.075 C 
ATOM     16  O   UNL     1      -0.637  -1.526  23.696  0.00  0.00    -0.358 OA
ATOM     17  N   UNL     1      -0.932  -1.809  24.412  0.00  0.00    -0.082 NA
ATOM     18  C   UNL     1      -0.808  -1.230  24.985  0.00  0.00    +0.098 A 
ATOM     19  C   UNL     1      -1.019  -1.282  25.782  0.00  0.00    +0.055 C 
ENDBRANCH  12  13
ENDBRANCH  11  12
TORSDOF 6
ENDMDL
MODEL 6
REMARK VINA RESULT:     -11.1      1.806      3.439
REMARK  Name = 
REMARK  6 active torsions:
REMARK  status: ('A' for Active; 'I' for Inactive)
REMARK    1  A    between atoms: C_2  and  C_4
REMARK    2  A    between atoms: C_4  and  C_5
REMARK    3  A    between atoms: C_7  and  C_26
REMARK    4  A    between atoms: N_11  and  C_12
REMARK    5  A    between atoms: C_12  and  C_13
REMARK    6  A    between atoms: N_28  and  C_29
REMARK                            x       y       z     vdW  Elec       q    Type
REMARK                         _______ _______ _______ _____ _____    ______ ____
ROOT
ATOM      5  C   UNL     1      -3.566  -0.420  24.933  0.00  0.00    +0.095 C 
ATOM      6  N   UNL     1      -2.753  -0.499  24.815  0.00  0.00    -0.207 NA
ATOM      7  C   UNL     1      -2.180   0.093  24.767  0.00  0.00    +0.155 C 
ATOM      8  C   UNL     1      -2.280   0.910  24.825  0.00  0.00    +0.055 C 
ATOM      9  C   UNL     1      -2.975   1.337  24.945  0.00  0.00    -0.002 A 
ATOM     10  C   UNL     1      -3.002   2.160  24.993  0.00  0.00    +0.072 A 
ATOM     11  N   UNL     1      -3.786   2.384  25.115  0.00  0.00    -0.322 N 
ATOM     20  C   UNL     1      -4.246   1.699  25.142  0.00  0.00    +0.060 A 
ATOM     21  C   UNL     1      -3.744   1.052  25.037  0.00  0.00    +0.011 A 
ATOM     22  C   UNL     1      -4.007   0.269  25.031  0.00  0.00    -0.005 A 
ATOM     23  C   UNL     1      -4.862   0.168  25.145  0.00  0.00    -0.003 A 
ATOM     24  C   UNL     1      -5.363   0.815  25.250  0.00  0.00    +0.001 A 
ATOM     25  C   UNL     1      -5.055   1.581  25.249  0.00  0.00    +0.017 A 
ENDROOT
BRANCH   7  26
ATOM     26  C   UNL     1      -1.407  -0.166  24.645  0.00  0.00    +0.257 C 
ATOM     27  O   UNL     1      -0.996  -0.541  25.256  0.00  0.00    -0.272 OA
ATOM     28  N   UNL     1      -1.044  -0.051  23.913  0.00  0.00    -0.206 NA
BRANCH  28  29
ATOM     29  C   UNL     1      -0.270  -0.311  23.792  0.00  0.00    +0.095 C 
ATOM     30  C   UNL     1       0.424   0.035  23.511  0.00  0.00    +0.022 C 
ATOM     31  C   UNL     1       0.824  -0.678  23.621  0.00  0.00    +0.004 C 
ATOM     32  C   UNL     1       0.130  -1.024  23.902  0.00  0.00    +0.022 C 
ENDBRANCH  28  29
ENDBRANCH   7  26
BRANCH   5   4
ATOM      4  C   UNL     1      -3.993  -1.125  24.954  0.00  0.00    +0.022 C 
BRANCH   4   2
ATOM      1  C   UNL     1      -3.984  -1.717  23.654  0.00  0.00    +0.000 C 
ATOM      2  C   UNL     1      -3.787  -1.749  24.454  0.00  0.00    +0.002 C 
ATOM      3  C   UNL     1      -3.383  -2.402  24.755  0.00  0.00    +0.000 C 
ENDBRANCH   4   2
ENDBRANCH   5   4
BRANCH  11  12
ATOM     12  C   UNL     1      -4.064   3.156  25.195  0.00  0.00    +0.137 C 
BRANCH  12  13
ATOM     13  C   UNL     1      -3.546   3.792  25.111  0.00  0.00    +0.050 A 
ATOM     14  C   UNL     1      -3.363   4.179  24.405  0.00  0.00    +0.152 A 
ATOM     15  C   UNL     1      -3.666   3.997  23.660  0.00  0.00    +0.075 C 
ATOM     16  O   UNL     1      -2.824   4.779  24.576  0.00  0.00    -0.358 OA
ATOM     17  N   UNL     1      -2.673   4.764  25.387  0.00  0.00    -0.082 NA
ATOM     18  C   UNL     1      -3.120   4.154  25.717  0.00  0.00    +0.098 A 
ATOM     19  C   UNL     1      -3.136   3.943  26.515  0.00  0.00    +0.055 C 
ENDBRANCH  12  13
ENDBRANCH  11  12
TORSDOF 6
ENDMDL
MODEL 7
REMARK VINA RESULT:     -10.9      1.315      3.148
REMARK  Name = 
REMARK  6 active torsions:
REMARK  status: ('A' for Active; 'I' for Inactive)
REMARK    1  A    between atoms: C_2  and  C_4
REMARK    2  A    between atoms: C_4  and  C_5
REMARK    3  A    between atoms: C_7  and  C_26
REMARK    4  A    between atoms: N_11  and  C_12
REMARK    5  A    between atoms: C_12  and  C_13
REMARK    6  A    between atoms: N_28  and  C_29
REMARK                            x       y       z     vdW  Elec       q    Type
REMARK                         _______ _______ _______ _____ _____    ______ ____
ROOT
ATOM      5  C   UNL     1      -2.735  -0.849  24.528  0.00  0.00    +0.095 C 
ATOM      6  N   UNL     1      -3.427  -0.401  24.546  0.00  0.00    -0.207 NA
ATOM      7  C   UNL     1      -3.509   0.415  24.642  0.00  0.00    +0.155 C 
ATOM      8  C   UNL     1      -2.919   0.982  24.746  0.00  0.00    +0.055 C 
ATOM      9  C   UNL     1      -2.102   0.875  24.777  0.00  0.00    -0.002 A 
ATOM     10  C   UNL     1      -1.566   1.493  24.884  0.00  0.00    +0.072 A 
ATOM     11  N   UNL     1      -0.805   1.174  24.886  0.00  0.00    -0.322 N 
ATOM     20  C   UNL     1      -0.870   0.358  24.781  0.00  0.00    +0.060 A 
ATOM     21  C   UNL     1      -1.672   0.173  24.714  0.00  0.00    +0.011 A 
ATOM     22  C   UNL     1      -1.955  -0.594  24.603  0.00  0.00    -0.005 A 
ATOM     23  C   UNL     1      -1.342  -1.208  24.561  0.00  0.00    -0.003 A 
ATOM     24  C   UNL     1      -0.540  -1.024  24.628  0.00  0.00    +0.001 A 
ATOM     25  C   UNL     1      -0.305  -0.240  24.738  0.00  0.00    +0.017 A 
ENDROOT
BRANCH   7  26
ATOM     26  C   UNL     1      -4.283   0.700  24.635  0.00  0.00    +0.257 C 
ATOM     27  O   UNL     1      -4.772   0.550  23.987  0.00  0.00    -0.272 OA
ATOM     28  N   UNL     1      -4.569   1.135  25.275  0.00  0.00    -0.206 NA
BRANCH  28  29
ATOM     29  C   UNL     1      -5.343   1.420  25.267  0.00  0.00    +0.095 C 
ATOM     30  C   UNL     1      -5.729   2.048  24.898  0.00  0.00    +0.022 C 
ATOM     31  C   UNL     1      -6.438   1.822  25.255  0.00  0.00    +0.004 C 
ATOM     32  C   UNL     1      -6.052   1.194  25.623  0.00  0.00    +0.022 C 
ENDBRANCH  28  29
ENDBRANCH   7  26
BRANCH   5   4
ATOM      4  C   UNL     1      -2.838  -1.661  24.422  0.00  0.00    +0.022 C 
BRANCH   4   2
ATOM      1  C   UNL     1      -4.118  -2.264  24.219  0.00  0.00    +0.000 C 
ATOM      2  C   UNL     1      -3.508  -2.035  24.726  0.00  0.00    +0.002 C 
ATOM      3  C   UNL     1      -3.568  -2.178  25.536  0.00  0.00    +0.000 C 
ENDBRANCH   4   2
ENDBRANCH   5   4
BRANCH  11  12
ATOM     12  C   UNL     1      -0.102   1.595  24.978  0.00  0.00    +0.137 C 
BRANCH  12  13
ATOM     13  C   UNL     1      -0.123   2.401  25.149  0.00  0.00    +0.050 A 
ATOM     14  C   UNL     1      -0.107   2.738  25.903  0.00  0.00    +0.152 A 
ATOM     15  C   UNL     1      -0.068   2.326  26.616  0.00  0.00    +0.075 C 
ATOM     16  O   UNL     1      -0.138   3.557  25.816  0.00  0.00    -0.358 OA
ATOM     17  N   UNL     1      -0.172   3.728  25.010  0.00  0.00    -0.082 NA
ATOM     18  C   UNL     1      -0.163   3.013  24.598  0.00  0.00    +0.098 A 
ATOM     19  C   UNL     1      -0.189   2.926  23.777  0.00  0.00    +0.055 C 
ENDBRANCH  12  13
ENDBRANCH  11  12
TORSDOF 6
ENDMDL
MODEL 8
REMARK VINA RESULT:     -10.9      1.511      4.557
REMARK  Name = 
REMARK  6 active torsions:
REMARK  status: ('A' for Active; 'I' for Inactive)
REMARK    1  A    between atoms: C_2  and  C_4
REMARK    2  A    between atoms: C_4  and  C_5
REMARK    3  A    between atoms: C_7  and  C_26
REMARK    4  A    between atoms: N_11  and  C_12
REMARK    5  A    between atoms: C_12  and  C_13
REMARK    6  A    between atoms: N_28  and  C_29
REMARK                            x       y       z     vdW  Elec       q    Type
REMARK                         _______ _______ _______ _____ _____    ______ ____
ROOT
ATOM      5  C   UNL     1      -1.604   2.285  24.546  0.00  0.00    +0.095 C 
ATOM      6  N   UNL     1      -2.352   2.626  24.611  0.00  0.00    -0.207 NA
ATOM      7  C   UNL     1      -3.088   2.253  24.641  0.00  0.00    +0.155 C 
ATOM      8  C   UNL     1      -3.256   1.446  24.614  0.00  0.00    +0.055 C 
ATOM      9  C   UNL     1      -2.731   0.813  24.550  0.00  0.00    -0.002 A 
ATOM     10  C   UNL     1      -2.971   0.024  24.529  0.00  0.00    +0.072 A 
ATOM     11  N   UNL     1      -2.296  -0.447  24.463  0.00  0.00    -0.322 N 
ATOM     20  C   UNL     1      -1.639   0.052  24.444  0.00  0.00    +0.060 A 
ATOM     21  C   UNL     1      -1.908   0.831  24.498  0.00  0.00    +0.011 A 
ATOM     22  C   UNL     1      -1.407   1.486  24.496  0.00  0.00    -0.005 A 
ATOM     23  C   UNL     1      -0.561   1.301  24.432  0.00  0.00    -0.003 A 
ATOM     24  C   UNL     1      -0.291   0.523  24.378  0.00  0.00    +0.001 A 
ATOM     25  C   UNL     1      -0.831  -0.102  24.384  0.00  0.00    +0.017 A 
ENDROOT
BRANCH   7  26
ATOM     26  C   UNL     1      -3.741   2.753  24.707  0.00  0.00    +0.257 C 
ATOM     27  O   UNL     1      -4.012   3.166  24.045  0.00  0.00    -0.272 OA
ATOM     28  N   UNL     1      -4.121   2.841  25.433  0.00  0.00    -0.206 NA
BRANCH  28  29
ATOM     29  C   UNL     1      -4.774   3.342  25.498  0.00  0.00    +0.095 C 
ATOM     30  C   UNL     1      -5.589   3.231  25.569  0.00  0.00    +0.022 C 
ATOM     31  C   UNL     1      -5.697   4.049  25.590  0.00  0.00    +0.004 C 
ATOM     32  C   UNL     1      -4.883   4.159  25.519  0.00  0.00    +0.022 C 
ENDBRANCH  28  29
ENDBRANCH   7  26
BRANCH   5   4
ATOM      4  C   UNL     1      -0.971   2.813  24.530  0.00  0.00    +0.022 C 
BRANCH   4   2
ATOM      1  C   UNL     1      -1.057   4.226  24.726  0.00  0.00    +0.000 C 
ATOM      2  C   UNL     1      -0.965   3.466  25.034  0.00  0.00    +0.002 C 
ATOM      3  C   UNL     1      -0.868   3.359  25.847  0.00  0.00    +0.000 C 
ENDBRANCH   4   2
ENDBRANCH   5   4
BRANCH  11  12
ATOM     12  C   UNL     1      -2.280  -1.270  24.423  0.00  0.00    +0.137 C 
BRANCH  12  13
ATOM     13  C   UNL     1      -2.921  -1.709  24.701  0.00  0.00    +0.050 A 
ATOM     14  C   UNL     1      -3.037  -1.961  25.478  0.00  0.00    +0.152 A 
ATOM     15  C   UNL     1      -2.532  -1.816  26.114  0.00  0.00    +0.075 C 
ATOM     16  O   UNL     1      -3.745  -2.381  25.507  0.00  0.00    -0.358 OA
ATOM     17  N   UNL     1      -4.068  -2.390  24.748  0.00  0.00    -0.082 NA
ATOM     18  C   UNL     1      -3.558  -1.975  24.250  0.00  0.00    +0.098 A 
ATOM     19  C   UNL     1      -3.667  -1.848  23.441  0.00  0.00    +0.055 C 
ENDBRANCH  12  13
ENDBRANCH  11  12
TORSDOF 6
ENDMDL
