MODEL 1
REMARK VINA RESULT:     -10.6      0.000      0.000
REMARK  Name = 
REMARK  9 active torsions:
REMARK  status: ('A' for Active; 'I' for Inactive)
REMARK    1  A    between atoms: C_4  and  C_26
REMARK    2  A    between atoms: C_6  and  C_8
REMARK    3  A    between atoms: C_15  and  C_16
REMARK    4  A    between atoms: C_16  and  N_17
REMARK    5  A    between atoms: C_18  and  C_20
REMARK    6  A    between atoms: C_20  and  S_21
REMARK    7  A    between atoms: S_21  and  C_22
REMARK    8  A    between atoms: C_22  and  C_23
REMARK    9  A    between atoms: C_29  and  C_32
REMARK                            x       y       z     vdW  Elec       q    Type
REMARK                         _______ _______ _______ _____ _____    ______ ____
ROOT
ATOM      8  C   UNL     1      -0.719   2.550  24.371  0.00  0.00    +0.056 C 
ATOM      9  C   UNL     1      -0.680   2.363  23.617  0.00  0.00    +0.078 C 
ATOM     10  N   UNL     1      -0.183   2.086  24.214  0.00  0.00    -0.272 NA
ATOM     11  C   UNL     1      -0.500   2.525  25.111  0.00  0.00    +0.072 C 
ATOM     12  C   UNL     1      -0.439   2.608  25.756  0.00  0.00    +0.018 C 
ATOM     13  C   UNL     1      -0.227   2.273  24.952  0.00  0.00    +0.010 C 
ATOM     14  C   UNL     1       0.454   1.721  24.931  0.00  0.00    +0.018 C 
ATOM     15  C   UNL     1       0.527   1.512  24.200  0.00  0.00    +0.079 C 
ENDROOT
BRANCH   8   6
ATOM      1  C   UNL     1      -1.533   5.165  25.188  0.00  0.00    +0.074 C 
ATOM      2  C   UNL     1      -1.720   4.382  25.008  0.00  0.00    +0.139 A 
ATOM      3  N   UNL     1      -2.502   4.125  25.057  0.00  0.00    -0.231 NA
ATOM      4  C   UNL     1      -2.691   3.342  24.877  0.00  0.00    +0.084 A 
ATOM      5  C   UNL     1      -2.097   2.817  24.648  0.00  0.00    +0.034 A 
ATOM      6  C   UNL     1      -1.314   3.075  24.600  0.00  0.00    +0.063 A 
ATOM      7  N   UNL     1      -1.126   3.857  24.780  0.00  0.00    -0.235 NA
BRANCH   4  26
ATOM     26  C   UNL     1      -3.473   3.083  24.925  0.00  0.00    +0.018 A 
ATOM     27  C   UNL     1      -3.877   3.125  25.642  0.00  0.00    +0.001 A 
ATOM     28  C   UNL     1      -4.660   2.867  25.691  0.00  0.00    +0.004 A 
ATOM     29  C   UNL     1      -5.037   2.567  25.021  0.00  0.00    +0.071 A 
ATOM     30  C   UNL     1      -4.632   2.524  24.303  0.00  0.00    +0.004 A 
ATOM     31  C   UNL     1      -3.850   2.783  24.255  0.00  0.00    +0.001 A 
BRANCH  29  32
ATOM     32  C   UNL     1      -5.818   2.308  25.070  0.00  0.00    +0.419 C 
ATOM     33  F   UNL     1      -6.600   2.049  25.119  0.00  0.00    -0.166 F 
ATOM     34  F   UNL     1      -5.587   1.560  24.810  0.00  0.00    -0.166 F 
ATOM     35  F   UNL     1      -6.050   3.056  25.330  0.00  0.00    -0.166 F 
ENDBRANCH  29  32
ENDBRANCH   4  26
ENDBRANCH   8   6
BRANCH  15  16
ATOM     16  C   UNL     1       0.980   1.043  23.696  0.00  0.00    +0.131 C 
BRANCH  16  17
ATOM     17  N   UNL     1       1.764   1.245  23.538  0.00  0.00    -0.203 NA
ATOM     18  C   UNL     1       2.220   0.770  23.041  0.00  0.00    +0.252 C 
ATOM     19  O   UNL     1       1.893   0.093  22.703  0.00  0.00    -0.272 OA
BRANCH  18  20
ATOM     20  C   UNL     1       3.005   0.972  22.883  0.00  0.00    +0.145 C 
BRANCH  20  21
ATOM     21  S   UNL     1       3.614   0.454  23.087  0.00  0.00    -0.119 S 
BRANCH  21  22
ATOM     22  C   UNL     1       4.399   0.669  22.957  0.00  0.00    +0.172 C 
BRANCH  22  23
ATOM     23  C   UNL     1       4.999   0.336  23.414  0.00  0.00    +0.376 C 
ATOM     24  O   UNL     1       5.222  -0.449  23.294  0.00  0.00    -0.245 OA
ATOM     25  O   UNL     1       5.377   0.788  23.991  0.00  0.00    -0.245 OA
ENDBRANCH  22  23
ENDBRANCH  21  22
ENDBRANCH  20  21
ENDBRANCH  18  20
ENDBRANCH  16  17
ENDBRANCH  15  16
TORSDOF 9
ENDMDL
MODEL 2
REMARK VINA RESULT:     -10.0      1.971      2.478
REMARK  Name = 
REMARK  9 active torsions:
REMARK  status: ('A' for Active; 'I' for Inactive)
REMARK    1  A    between atoms: C_4  and  C_26
REMARK    2  A    between atoms: C_6  and  C_8
REMARK    3  A    between atoms: C_15  and  C_16
REMARK    4  A    between atoms: C_16  and  N_17
REMARK    5  A    between atoms: C_18  and  C_20
REMARK    6  A    between atoms: C_20  and  S_21
REMARK    7  A    between atoms: S_21  and  C_22
REMARK    8  A    between atoms: C_22  and  C_23
REMARK    9  A    between atoms: C_29  and  C_32
REMARK                            x       y       z     vdW  Elec       q    Type
REMARK                         _______ _______ _______ _____ _____    ______ ____
ROOT
ATOM      8  C   UNL     1      -1.505  -0.022  24.170  0.00  0.00    +0.056 C 
ATOM      9  C   UNL     1      -1.450   0.030  23.396  0.00  0.00    +0.078 C 
ATOM     10  N   UNL     1      -0.821  -0.047  23.925  0.00  0.00    -0.272 NA
ATOM     11  C   UNL     1      -1.230  -0.090  24.889  0.00  0.00    +0.072 C 
ATOM     12  C   UNL     1      -1.156  -0.142  25.536  0.00  0.00    +0.018 C 
ATOM     13  C   UNL     1      -0.882  -0.097  24.683  0.00  0.00    +0.010 C 
ATOM     14  C   UNL     1      -0.016  -0.142  24.553  0.00  0.00    +0.018 C 
ATOM     15  C   UNL     1       0.081  -0.093  23.797  0.00  0.00    +0.079 C 
ENDROOT
BRANCH   8   6
ATOM      1  C   UNL     1      -3.738  -1.367  25.342  0.00  0.00    +0.074 C 
ATOM      2  C   UNL     1      -3.378  -0.671  25.083  0.00  0.00    +0.139 A 
ATOM      3  N   UNL     1      -3.776   0.049  25.153  0.00  0.00    -0.231 NA
ATOM      4  C   UNL     1      -3.416   0.745  24.896  0.00  0.00    +0.084 A 
ATOM      5  C   UNL     1      -2.660   0.722  24.568  0.00  0.00    +0.034 A 
ATOM      6  C   UNL     1      -2.263   0.002  24.498  0.00  0.00    +0.063 A 
ATOM      7  N   UNL     1      -2.622  -0.694  24.756  0.00  0.00    -0.235 NA
BRANCH   4  26
ATOM     26  C   UNL     1      -3.813   1.465  24.965  0.00  0.00    +0.018 A 
ATOM     27  C   UNL     1      -3.470   2.086  25.386  0.00  0.00    +0.001 A 
ATOM     28  C   UNL     1      -3.867   2.806  25.456  0.00  0.00    +0.004 A 
ATOM     29  C   UNL     1      -4.607   2.904  25.104  0.00  0.00    +0.071 A 
ATOM     30  C   UNL     1      -4.950   2.284  24.683  0.00  0.00    +0.004 A 
ATOM     31  C   UNL     1      -4.553   1.564  24.614  0.00  0.00    +0.001 A 
BRANCH  29  32
ATOM     32  C   UNL     1      -5.003   3.625  25.174  0.00  0.00    +0.419 C 
ATOM     33  F   UNL     1      -5.400   4.345  25.245  0.00  0.00    -0.166 F 
ATOM     34  F   UNL     1      -5.522   3.285  25.719  0.00  0.00    -0.166 F 
ATOM     35  F   UNL     1      -4.485   3.964  24.631  0.00  0.00    -0.166 F 
ENDBRANCH  29  32
ENDBRANCH   4  26
ENDBRANCH   8   6
BRANCH  15  16
ATOM     16  C   UNL     1       0.661  -0.087  23.211  0.00  0.00    +0.131 C 
BRANCH  16  17
ATOM     17  N   UNL     1       1.346   0.361  23.312  0.00  0.00    -0.203 NA
ATOM     18  C   UNL     1       1.963   0.299  22.767  0.00  0.00    +0.252 C 
ATOM     19  O   UNL     1       1.894  -0.209  22.121  0.00  0.00    -0.272 OA
BRANCH  18  20
ATOM     20  C   UNL     1       2.648   0.747  22.869  0.00  0.00    +0.145 C 
BRANCH  20  21
ATOM     21  S   UNL     1       3.387   0.379  22.857  0.00  0.00    -0.119 S 
BRANCH  21  22
ATOM     22  C   UNL     1       4.075   0.834  22.886  0.00  0.00    +0.172 C 
BRANCH  22  23
ATOM     23  C   UNL     1       4.771   0.510  23.186  0.00  0.00    +0.376 C 
ATOM     24  O   UNL     1       5.197  -0.039  22.740  0.00  0.00    -0.245 OA
ATOM     25  O   UNL     1       5.042   0.735  23.931  0.00  0.00    -0.245 OA
ENDBRANCH  22  23
ENDBRANCH  21  22
ENDBRANCH  20  21
ENDBRANCH  18  20
ENDBRANCH  16  17
ENDBRANCH  15  16
TORSDOF 9
ENDMDL
MODEL 3
REMARK VINA RESULT:     -10.0      2.781      3.798
REMARK  Name = 
REMARK  9 active torsions:
REMARK  status: ('A' for Active; 'I' for Inactive)
REMARK    1  A    between atoms: C_4  and  C_26
REMARK    2  A    between atoms: C_6  and  C_8
REMARK    3  A    between atoms: C_15  and  C_16
REMARK    4  A    between atoms: C_16  and  N_17
REMARK    5  A    between atoms: C_18  and  C_20
REMARK    6  A    between atoms: C_20  and  S_21
REMARK    7  A    between atoms: S_21  and  C_22
REMARK    8  A    between atoms: C_22  and  C_23
REMARK    9  A    between atoms: C_29  and  C_32
REMARK                            x       y       z     vdW  Elec       q    Type
REMARK                         _______ _______ _______ _____ _____    ______ ____
ROOT
ATOM      8  C   UNL     1      -1.118   1.889  24.818  0.00  0.00    +0.056 C 
ATOM      9  C   UNL     1      -1.129   1.417  25.437  0.00  0.00    +0.078 C 
ATOM     10  N   UNL     1      -0.852   1.226  24.683  0.00  0.00    -0.272 NA
ATOM     11  C   UNL     1      -0.976   2.077  24.083  0.00  0.00    +0.072 C 
ATOM     12  C   UNL     1      -0.918   2.379  23.507  0.00  0.00    +0.018 C 
ATOM     13  C   UNL     1      -0.844   1.695  24.082  0.00  0.00    +0.010 C 
ATOM     14  C   UNL     1      -0.499   0.955  23.759  0.00  0.00    +0.018 C 
ATOM     15  C   UNL     1      -0.493   0.460  24.341  0.00  0.00    +0.079 C 
ENDROOT
BRANCH   8   6
ATOM      1  C   UNL     1      -0.668   4.705  25.019  0.00  0.00    +0.074 C 
ATOM      2  C   UNL     1      -1.184   4.062  25.022  0.00  0.00    +0.139 A 
ATOM      3  N   UNL     1      -1.993   4.184  25.128  0.00  0.00    -0.231 NA
ATOM      4  C   UNL     1      -2.511   3.541  25.131  0.00  0.00    +0.084 A 
ATOM      5  C   UNL     1      -2.219   2.777  25.028  0.00  0.00    +0.034 A 
ATOM      6  C   UNL     1      -1.410   2.655  24.922  0.00  0.00    +0.063 A 
ATOM      7  N   UNL     1      -0.893   3.297  24.919  0.00  0.00    -0.235 NA
BRANCH   4  26
ATOM     26  C   UNL     1      -3.320   3.663  25.238  0.00  0.00    +0.018 A 
ATOM     27  C   UNL     1      -3.819   3.712  24.583  0.00  0.00    +0.001 A 
ATOM     28  C   UNL     1      -4.628   3.833  24.689  0.00  0.00    +0.004 A 
ATOM     29  C   UNL     1      -4.937   3.907  25.451  0.00  0.00    +0.071 A 
ATOM     30  C   UNL     1      -4.438   3.858  26.106  0.00  0.00    +0.004 A 
ATOM     31  C   UNL     1      -3.629   3.736  25.999  0.00  0.00    +0.001 A 
BRANCH  29  32
ATOM     32  C   UNL     1      -5.746   4.028  25.556  0.00  0.00    +0.419 C 
ATOM     33  F   UNL     1      -6.556   4.149  25.662  0.00  0.00    -0.166 F 
ATOM     34  F   UNL     1      -5.852   3.219  25.676  0.00  0.00    -0.166 F 
ATOM     35  F   UNL     1      -5.642   4.837  25.437  0.00  0.00    -0.166 F 
ENDBRANCH  29  32
ENDBRANCH   4  26
ENDBRANCH   8   6
BRANCH  15  16
ATOM     16  C   UNL     1      -0.284  -0.311  24.542  0.00  0.00    +0.131 C 
BRANCH  16  17
ATOM     17  N   UNL     1      -0.774  -0.940  24.329  0.00  0.00    -0.203 NA
ATOM     18  C   UNL     1      -0.750  -1.644  24.759  0.00  0.00    +0.252 C 
ATOM     19  O   UNL     1      -0.237  -1.720  25.400  0.00  0.00    -0.272 OA
BRANCH  18  20
ATOM     20  C   UNL     1      -1.240  -2.273  24.546  0.00  0.00    +0.145 C 
BRANCH  20  21
ATOM     21  S   UNL     1      -2.037  -2.266  24.761  0.00  0.00    -0.119 S 
BRANCH  21  22
ATOM     22  C   UNL     1      -2.555  -2.823  24.442  0.00  0.00    +0.172 C 
BRANCH  22  23
ATOM     23  C   UNL     1      -3.362  -2.777  24.604  0.00  0.00    +0.376 C 
ATOM     24  O   UNL     1      -3.627  -2.784  25.385  0.00  0.00    -0.245 OA
ATOM     25  O   UNL     1      -3.904  -2.724  23.984  0.00  0.00    -0.245 OA
ENDBRANCH  22  23
ENDBRANCH  21  22
ENDBRANCH  20  21
ENDBRANCH  18  20
ENDBRANCH  16  17
ENDBRANCH  15  16
TORSDOF 9
ENDMDL
MODEL 4
REMARK VINA RESULT:     -10.0      3.647      4.802
REMARK  Name = 
REMARK  9 active torsions:
REMARK  status: ('A' for Active; 'I' for Inactive)
REMARK    1  A    between atoms: C_4  and  C_26
REMARK    2  A    between atoms: C_6  and  C_8
REMARK    3  A    between atoms: C_15  and  C_16
REMARK    4  A    between atoms: C_16  and  N_17
REMARK    5  A    between atoms: C_18  and  C_20
REMARK    6  A    between atoms: C_20  and  S_21
REMARK    7  A    between atoms: S_21  and  C_22
REMARK    8  A    between atoms: C_22  and  C_23
REMARK    9  A    between atoms: C_29  and  C_32
REMARK                            x       y       z     vdW  Elec       q    Type
REMARK                         _______ _______ _______ _____ _____    ______ ____
ROOT
ATOM      8  C   UNL     1      -4.245   1.103  25.093  0.00  0.00    +0.056 C 
ATOM      9  C   UNL     1      -3.940   0.655  25.651  0.00  0.00    +0.078 C 
ATOM     10  N   UNL     1      -4.204   0.401  24.912  0.00  0.00    -0.272 NA
ATOM     11  C   UNL     1      -4.554   1.246  24.401  0.00  0.00    +0.072 C 
ATOM     12  C   UNL     1      -4.819   1.520  23.870  0.00  0.00    +0.018 C 
ATOM     13  C   UNL     1      -4.501   0.846  24.369  0.00  0.00    +0.010 C 
ATOM     14  C   UNL     1      -4.522   0.050  24.001  0.00  0.00    +0.018 C 
ATOM     15  C   UNL     1      -4.228  -0.425  24.523  0.00  0.00    +0.079 C 
ENDROOT
BRANCH   8   6
ATOM      1  C   UNL     1      -5.834   3.351  25.863  0.00  0.00    +0.074 C 
ATOM      2  C   UNL     1      -5.107   3.033  25.637  0.00  0.00    +0.139 A 
ATOM      3  N   UNL     1      -4.447   3.524  25.570  0.00  0.00    -0.231 NA
ATOM      4  C   UNL     1      -3.719   3.208  25.344  0.00  0.00    +0.084 A 
ATOM      5  C   UNL     1      -3.652   2.401  25.185  0.00  0.00    +0.034 A 
ATOM      6  C   UNL     1      -4.312   1.911  25.252  0.00  0.00    +0.063 A 
ATOM      7  N   UNL     1      -5.039   2.227  25.478  0.00  0.00    -0.235 NA
BRANCH   4  26
ATOM     26  C   UNL     1      -3.058   3.698  25.277  0.00  0.00    +0.018 A 
ATOM     27  C   UNL     1      -2.539   3.779  25.913  0.00  0.00    +0.001 A 
ATOM     28  C   UNL     1      -1.879   4.269  25.846  0.00  0.00    +0.004 A 
ATOM     29  C   UNL     1      -1.738   4.677  25.143  0.00  0.00    +0.071 A 
ATOM     30  C   UNL     1      -2.257   4.596  24.507  0.00  0.00    +0.004 A 
ATOM     31  C   UNL     1      -2.918   4.106  24.574  0.00  0.00    +0.001 A 
BRANCH  29  32
ATOM     32  C   UNL     1      -1.078   5.167  25.077  0.00  0.00    +0.419 C 
ATOM     33  F   UNL     1      -0.417   5.657  25.011  0.00  0.00    -0.166 F 
ATOM     34  F   UNL     1      -1.540   5.818  25.285  0.00  0.00    -0.166 F 
ATOM     35  F   UNL     1      -0.615   4.517  24.869  0.00  0.00    -0.166 F 
ENDBRANCH  29  32
ENDBRANCH   4  26
ENDBRANCH   8   6
BRANCH  15  16
ATOM     16  C   UNL     1      -4.043  -1.217  24.655  0.00  0.00    +0.131 C 
BRANCH  16  17
ATOM     17  N   UNL     1      -3.286  -1.498  24.485  0.00  0.00    -0.203 NA
ATOM     18  C   UNL     1      -3.081  -2.273  24.681  0.00  0.00    +0.252 C 
ATOM     19  O   UNL     1      -3.632  -2.766  25.046  0.00  0.00    -0.272 OA
BRANCH  18  20
ATOM     20  C   UNL     1      -2.325  -2.554  24.510  0.00  0.00    +0.145 C 
BRANCH  20  21
ATOM     21  S   UNL     1      -1.669  -2.237  24.900  0.00  0.00    -0.119 S 
BRANCH  21  22
ATOM     22  C   UNL     1      -0.929  -2.246  24.535  0.00  0.00    +0.172 C 
BRANCH  22  23
ATOM     23  C   UNL     1      -0.311  -1.797  24.846  0.00  0.00    +0.376 C 
ATOM     24  O   UNL     1      -0.080  -1.098  24.474  0.00  0.00    -0.245 OA
ATOM     25  O   UNL     1       0.077  -2.049  25.529  0.00  0.00    -0.245 OA
ENDBRANCH  22  23
ENDBRANCH  21  22
ENDBRANCH  20  21
ENDBRANCH  18  20
ENDBRANCH  16  17
ENDBRANCH  15  16
TORSDOF 9
ENDMDL
MODEL 5
REMARK VINA RESULT:      -9.5      2.988      3.643
REMARK  Name = 
REMARK  9 active torsions:
REMARK  status: ('A' for Active; 'I' for Inactive)
REMARK    1  A    between atoms: C_4  and  C_26
REMARK    2  A    between atoms: C_6  and  C_8
REMARK    3  A    between atoms: C_15  and  C_16
REMARK    4  A    between atoms: C_16  and  N_17
REMARK    5  A    between atoms: C_18  and  C_20
REMARK    6  A    between atoms: C_20  and  S_21
REMARK    7  A    between atoms: S_21  and  C_22
REMARK    8  A    between atoms: C_22  and  C_23
REMARK    9  A    between atoms: C_29  and  C_32
REMARK                            x       y       z     vdW  Elec       q    Type
REMARK                         _______ _______ _______ _____ _____    ______ ____
ROOT
ATOM      8  C   UNL     1      -0.148  -0.294  24.162  0.00  0.00    +0.056 C 
ATOM      9  C   UNL     1       0.339  -0.865  23.954  0.00  0.00    +0.078 C 
ATOM     10  N   UNL     1       0.378  -0.077  23.710  0.00  0.00    -0.272 NA
ATOM     11  C   UNL     1      -0.418   0.429  24.167  0.00  0.00    +0.072 C 
ATOM     12  C   UNL     1      -0.758   0.977  24.271  0.00  0.00    +0.018 C 
ATOM     13  C   UNL     1      -0.103   0.477  23.918  0.00  0.00    +0.010 C 
ATOM     14  C   UNL     1       0.457   0.893  23.385  0.00  0.00    +0.018 C 
ATOM     15  C   UNL     1       0.956   0.362  23.157  0.00  0.00    +0.079 C 
ENDROOT
BRANCH   8   6
ATOM      1  C   UNL     1      -1.271  -0.305  26.790  0.00  0.00    +0.074 C 
ATOM      2  C   UNL     1      -1.324  -0.496  25.989  0.00  0.00    +0.139 A 
ATOM      3  N   UNL     1      -1.993  -0.885  25.703  0.00  0.00    -0.231 NA
ATOM      4  C   UNL     1      -2.047  -1.077  24.902  0.00  0.00    +0.084 A 
ATOM      5  C   UNL     1      -1.432  -0.880  24.389  0.00  0.00    +0.034 A 
ATOM      6  C   UNL     1      -0.764  -0.491  24.676  0.00  0.00    +0.063 A 
ATOM      7  N   UNL     1      -0.710  -0.299  25.476  0.00  0.00    -0.235 NA
BRANCH   4  26
ATOM     26  C   UNL     1      -2.716  -1.466  24.615  0.00  0.00    +0.018 A 
ATOM     27  C   UNL     1      -3.389  -1.034  24.414  0.00  0.00    +0.001 A 
ATOM     28  C   UNL     1      -4.058  -1.423  24.126  0.00  0.00    +0.004 A 
ATOM     29  C   UNL     1      -4.052  -2.244  24.040  0.00  0.00    +0.071 A 
ATOM     30  C   UNL     1      -3.379  -2.675  24.241  0.00  0.00    +0.004 A 
ATOM     31  C   UNL     1      -2.710  -2.286  24.528  0.00  0.00    +0.001 A 
BRANCH  29  32
ATOM     32  C   UNL     1      -4.721  -2.631  23.753  0.00  0.00    +0.419 C 
ATOM     33  F   UNL     1      -5.391  -3.019  23.465  0.00  0.00    -0.166 F 
ATOM     34  F   UNL     1      -5.099  -1.905  23.654  0.00  0.00    -0.166 F 
ATOM     35  F   UNL     1      -4.344  -3.358  23.851  0.00  0.00    -0.166 F 
ENDBRANCH  29  32
ENDBRANCH   4  26
ENDBRANCH   8   6
BRANCH  15  16
ATOM     16  C   UNL     1       1.625   0.252  22.687  0.00  0.00    +0.131 C 
BRANCH  16  17
ATOM     17  N   UNL     1       2.354   0.553  22.929  0.00  0.00    -0.203 NA
ATOM     18  C   UNL     1       3.021   0.445  22.457  0.00  0.00    +0.252 C 
ATOM     19  O   UNL     1       2.960   0.037  21.742  0.00  0.00    -0.272 OA
BRANCH  18  20
ATOM     20  C   UNL     1       3.750   0.746  22.699  0.00  0.00    +0.145 C 
BRANCH  20  21
ATOM     21  S   UNL     1       4.347   0.233  22.945  0.00  0.00    -0.119 S 
BRANCH  21  22
ATOM     22  C   UNL     1       4.994   0.524  23.366  0.00  0.00    +0.172 C 
BRANCH  22  23
ATOM     23  C   UNL     1       5.563   0.005  23.660  0.00  0.00    +0.376 C 
ATOM     24  O   UNL     1       6.224  -0.186  23.204  0.00  0.00    -0.245 OA
ATOM     25  O   UNL     1       5.472  -0.324  24.411  0.00  0.00    -0.245 OA
ENDBRANCH  22  23
ENDBRANCH  21  22
ENDBRANCH  20  21
ENDBRANCH  18  20
ENDBRANCH  16  17
ENDBRANCH  15  16
TORSDOF 9
ENDMDL
