REMARK  Name = 
REMARK  4 active torsions:
REMARK  status: ('A' for Active; 'I' for Inactive)
REMARK    1  A    between atoms: C_5  and  C_8
REMARK    2  A    between atoms: C_19  and  C_24
REMARK    3  A    between atoms: C_27  and  O_28
REMARK    4  A    between atoms: O_28  and  C_29
REMARK                            x       y       z     vdW  Elec       q    Type
REMARK                         _______ _______ _______ _____ _____    ______ ____
ROOT
ATOM      8  C   UNL     1       0.210  -2.658   0.000  0.00  0.00    +0.249 C 
ATOM      9  O   UNL     1       0.670  -3.413   0.000  0.00  0.00    -0.270 OA
ATOM     10  N   UNL     1       0.813  -2.091   0.000  0.00  0.00    -0.276 N 
ATOM     11  C   UNL     1       1.629  -1.912   0.000  0.00  0.00    +0.096 C 
ATOM     12  C   UNL     1       1.582  -0.925   0.000  0.00  0.00    +0.043 C 
ATOM     13  C   UNL     1       1.713  -0.121   0.000  0.00  0.00    +0.011 C 
ATOM     14  C   UNL     1       1.163  -0.557   0.000  0.00  0.00    +0.058 C 
ATOM     15  C   UNL     1       1.225  -1.510   0.000  0.00  0.00    +0.099 C 
ATOM     16  C   UNL     1       0.244  -0.558   0.000  0.00  0.00    +0.041 A 
ATOM     17  C   UNL     1      -0.397  -0.039   0.000  0.00  0.00    +0.013 A 
ATOM     18  C   UNL     1      -1.167  -0.335   0.000  0.00  0.00    +0.006 A 
ATOM     19  C   UNL     1      -1.296  -1.150   0.000  0.00  0.00    +0.056 A 
ATOM     20  C   UNL     1      -0.655  -1.669   0.000  0.00  0.00    +0.261 A 
ATOM     21  O   UNL     1      -0.486  -2.689   0.000  0.00  0.00    -0.267 OA
ATOM     22  N   UNL     1       0.115  -1.373   0.000  0.00  0.00    -0.299 N 
ATOM     23  C   UNL     1       0.622  -0.936   0.000  0.00  0.00    +0.110 C 
ENDROOT
BRANCH   8   5
ATOM      1  F   UNL     1      -3.207  -0.709   0.000  0.00  0.00    -0.204 F 
ATOM      2  C   UNL     1      -2.338  -1.196   0.000  0.00  0.00    +0.140 A 
ATOM      3  C   UNL     1      -1.485  -0.905   0.000  0.00  0.00    +0.030 A 
ATOM      4  C   UNL     1      -0.664  -1.356   0.000  0.00  0.00    +0.007 A 
ATOM      5  C   UNL     1      -0.614  -2.179   0.000  0.00  0.00    +0.054 A 
ATOM      6  C   UNL     1      -1.301  -2.635   0.000  0.00  0.00    +0.007 A 
ATOM      7  C   UNL     1      -1.875  -2.432   0.000  0.00  0.00    +0.030 A 
ENDBRANCH   8   5
BRANCH  19  24
ATOM     24  C   UNL     1      -2.066  -1.445   0.000  0.00  0.00    +0.005 A 
ATOM     25  C   UNL     1      -2.195  -2.260   0.000  0.00  0.00    +0.003 A 
ATOM     26  C   UNL     1      -2.965  -2.556   0.000  0.00  0.00    +0.037 A 
ATOM     27  C   UNL     1      -3.606  -2.037   0.000  0.00  0.00    +0.147 A 
ATOM     33  C   UNL     1      -3.478  -1.222   0.000  0.00  0.00    +0.037 A 
ATOM     34  C   UNL     1      -2.707  -0.926   0.000  0.00  0.00    +0.003 A 
BRANCH  27  28
ATOM     28  O   UNL     1      -4.468  -2.269   0.000  0.00  0.00    -0.404 OA
BRANCH  28  29
ATOM     29  C   UNL     1      -5.237  -1.806   0.000  0.00  0.00    +0.575 C 
ATOM     30  F   UNL     1      -6.031  -1.469   0.000  0.00  0.00    -0.133 F 
ATOM     31  F   UNL     1      -5.234  -0.944   0.000  0.00  0.00    -0.133 F 
ATOM     32  F   UNL     1      -5.693  -2.518   0.000  0.00  0.00    -0.133 F 
ENDBRANCH  28  29
ENDBRANCH  27  28
ENDBRANCH  19  24
TORSDOF 4
