REMARK  Name = 
REMARK  2 active torsions:
REMARK  status: ('A' for Active; 'I' for Inactive)
REMARK    1  A    between atoms: N_7  and  C_8
REMARK    2  A    between atoms: C_8  and  C_9
REMARK                            x       y       z     vdW  Elec       q    Type
REMARK                         _______ _______ _______ _____ _____    ______ ____
ROOT
ATOM      1  O   UNL     1       0.712   0.220   0.000  0.00  0.00    -0.219 OA
ATOM      2  C   UNL     1       1.273   0.825   0.000  0.00  0.00    +0.197 C 
ATOM      3  C   UNL     1       0.971   1.593   0.000  0.00  0.00    +0.176 C 
ATOM      4  O   UNL     1       1.384   2.307   0.000  0.00  0.00    -0.350 OA
ATOM      5  C   UNL     1       2.200   2.430   0.000  0.00  0.00    +0.160 C 
ATOM      6  C   UNL     1       2.804   1.869   0.000  0.00  0.00    +0.105 C 
ATOM      7  N   UNL     1       2.743   1.046   0.000  0.00  0.00    -0.264 NA
ATOM     16  C   UNL     1       2.061   0.581   0.000  0.00  0.00    +0.108 C 
ENDROOT
BRANCH   7   8
ATOM      8  C   UNL     1       3.457   0.634   0.000  0.00  0.00    +0.102 C 
BRANCH   8   9
ATOM      9  C   UNL     1       3.457  -0.191   0.000  0.00  0.00    +0.021 A 
ATOM     10  C   UNL     1       4.172  -0.604   0.000  0.00  0.00    -0.001 A 
ATOM     11  C   UNL     1       4.172  -1.429   0.000  0.00  0.00    -0.000 A 
ATOM     12  C   UNL     1       3.457  -1.841   0.000  0.00  0.00    +0.002 A 
ATOM     13  C   UNL     1       2.743  -1.429   0.000  0.00  0.00    +0.029 A 
ATOM     14  C   UNL     1       2.743  -0.604   0.000  0.00  0.00    +0.137 A 
ATOM     15  F   UNL     1       2.028  -0.191   0.000  0.00  0.00    -0.204 F 
ENDBRANCH   8   9
ENDBRANCH   7   8
TORSDOF 2
