MODEL 1
REMARK VINA RESULT:      -9.5      0.000      0.000
REMARK  Name = 
REMARK  7 active torsions:
REMARK  status: ('A' for Active; 'I' for Inactive)
REMARK    1  A    between atoms: O_2  and  C_3
REMARK    2  A    between atoms: C_3  and  C_4
REMARK    3  A    between atoms: N_6  and  C_7
REMARK    4  A    between atoms: C_7  and  C_8
REMARK    5  A    between atoms: C_15  and  C_16
REMARK    6  A    between atoms: C_18  and  C_23
REMARK    7  A    between atoms: C_26  and  N_29
REMARK                            x       y       z     vdW  Elec       q    Type
REMARK                         _______ _______ _______ _____ _____    ______ ____
ROOT
ATOM     16  C   UNL     1      -1.126   3.245  24.620  0.00  0.00    +0.063 A 
ATOM     17  C   UNL     1      -1.912   3.009  24.713  0.00  0.00    +0.034 A 
ATOM     18  C   UNL     1      -2.483   3.561  24.935  0.00  0.00    +0.084 A 
ATOM     19  N   UNL     1      -2.271   4.347  25.064  0.00  0.00    -0.231 NA
ATOM     20  C   UNL     1      -1.486   4.583  24.971  0.00  0.00    +0.139 A 
ATOM     21  C   UNL     1      -1.272   5.369  25.099  0.00  0.00    +0.074 C 
ATOM     22  N   UNL     1      -0.913   4.031  24.748  0.00  0.00    -0.235 NA
ENDROOT
BRANCH  16  15
ATOM      8  C   UNL     1       0.765   1.437  24.070  0.00  0.00    +0.079 C 
ATOM      9  C   UNL     1       0.551   1.687  24.776  0.00  0.00    +0.018 C 
ATOM     10  C   UNL     1      -0.024   2.236  24.927  0.00  0.00    +0.010 C 
ATOM     11  C   UNL     1      -0.118   2.387  25.806  0.00  0.00    +0.018 C 
ATOM     12  C   UNL     1       0.139   2.108  25.274  0.00  0.00    +0.072 C 
ATOM     13  N   UNL     1       0.180   1.996  24.233  0.00  0.00    -0.272 NA
ATOM     14  C   UNL     1      -0.375   2.475  23.688  0.00  0.00    +0.078 C 
ATOM     15  C   UNL     1      -0.554   2.694  24.398  0.00  0.00    +0.056 C 
BRANCH   8   7
ATOM      7  C   UNL     1       1.219   0.975  23.560  0.00  0.00    +0.131 C 
BRANCH   7   6
ATOM      4  C   UNL     1       2.474   0.679  22.945  0.00  0.00    +0.272 C 
ATOM      5  O   UNL     1       2.122   0.067  22.520  0.00  0.00    -0.271 OA
ATOM      6  N   UNL     1       2.023   1.133  23.466  0.00  0.00    -0.202 NA
BRANCH   4   3
ATOM      3  C   UNL     1       3.278   0.837  22.851  0.00  0.00    +0.229 C 
BRANCH   3   2
ATOM      1  C   UNL     1       4.637   0.429  23.018  0.00  0.00    +0.175 C 
ATOM      2  O   UNL     1       3.834   0.243  22.988  0.00  0.00    -0.342 OA
ENDBRANCH   3   2
ENDBRANCH   4   3
ENDBRANCH   7   6
ENDBRANCH   8   7
ENDBRANCH  16  15
BRANCH  18  23
ATOM     23  C   UNL     1      -3.269   3.326  25.029  0.00  0.00    +0.018 A 
ATOM     24  C   UNL     1      -3.634   3.394  25.766  0.00  0.00    +0.003 A 
ATOM     25  C   UNL     1      -4.419   3.160  25.860  0.00  0.00    +0.015 A 
ATOM     26  C   UNL     1      -4.839   2.857  25.217  0.00  0.00    +0.048 A 
ATOM     27  C   UNL     1      -4.474   2.789  24.481  0.00  0.00    +0.015 A 
ATOM     28  C   UNL     1      -3.688   3.023  24.386  0.00  0.00    +0.003 A 
BRANCH  26  29
ATOM     29  N   UNL     1      -5.625   2.622  25.312  0.00  0.00    -0.304 N 
ATOM     30  C   UNL     1      -6.145   3.092  25.747  0.00  0.00    +0.112 C 
ATOM     31  C   UNL     1      -5.890   1.920  24.972  0.00  0.00    +0.112 C 
ENDBRANCH  26  29
ENDBRANCH  18  23
TORSDOF 7
ENDMDL
MODEL 2
REMARK VINA RESULT:      -9.3      2.499      3.224
REMARK  Name = 
REMARK  7 active torsions:
REMARK  status: ('A' for Active; 'I' for Inactive)
REMARK    1  A    between atoms: O_2  and  C_3
REMARK    2  A    between atoms: C_3  and  C_4
REMARK    3  A    between atoms: N_6  and  C_7
REMARK    4  A    between atoms: C_7  and  C_8
REMARK    5  A    between atoms: C_15  and  C_16
REMARK    6  A    between atoms: C_18  and  C_23
REMARK    7  A    between atoms: C_26  and  N_29
REMARK                            x       y       z     vdW  Elec       q    Type
REMARK                         _______ _______ _______ _____ _____    ______ ____
ROOT
ATOM     16  C   UNL     1      -2.267  -0.809  24.401  0.00  0.00    +0.063 A 
ATOM     17  C   UNL     1      -2.791  -0.178  24.494  0.00  0.00    +0.034 A 
ATOM     18  C   UNL     1      -3.554  -0.315  24.776  0.00  0.00    +0.084 A 
ATOM     19  N   UNL     1      -3.793  -1.082  24.964  0.00  0.00    -0.231 NA
ATOM     20  C   UNL     1      -3.269  -1.712  24.869  0.00  0.00    +0.139 A 
ATOM     21  C   UNL     1      -3.508  -2.479  25.057  0.00  0.00    +0.074 C 
ATOM     22  N   UNL     1      -2.505  -1.575  24.588  0.00  0.00    -0.235 NA
ENDROOT
BRANCH  16  15
ATOM      8  C   UNL     1       0.259  -0.347  23.655  0.00  0.00    +0.079 C 
ATOM      9  C   UNL     1      -0.014  -0.370  24.383  0.00  0.00    +0.018 C 
ATOM     10  C   UNL     1      -0.783  -0.511  24.594  0.00  0.00    +0.010 C 
ATOM     11  C   UNL     1      -0.894  -0.494  25.484  0.00  0.00    +0.018 C 
ATOM     12  C   UNL     1      -0.558  -0.453  24.925  0.00  0.00    +0.072 C 
ATOM     13  N   UNL     1      -0.523  -0.491  23.878  0.00  0.00    -0.272 NA
ATOM     14  C   UNL     1      -1.276  -0.659  23.390  0.00  0.00    +0.078 C 
ATOM     15  C   UNL     1      -1.503  -0.672  24.119  0.00  0.00    +0.056 C 
BRANCH   8   7
ATOM      7  C   UNL     1       0.859  -0.254  23.097  0.00  0.00    +0.131 C 
BRANCH   7   6
ATOM      4  C   UNL     1       2.167   0.206  22.751  0.00  0.00    +0.272 C 
ATOM      5  O   UNL     1       2.078  -0.111  21.994  0.00  0.00    -0.271 OA
ATOM      6  N   UNL     1       1.557   0.134  23.302  0.00  0.00    -0.202 NA
BRANCH   4   3
ATOM      3  C   UNL     1       2.865   0.594  22.956  0.00  0.00    +0.229 C 
BRANCH   3   2
ATOM      1  C   UNL     1       4.263   0.797  22.746  0.00  0.00    +0.175 C 
ATOM      2  O   UNL     1       3.533   0.521  22.479  0.00  0.00    -0.342 OA
ENDBRANCH   3   2
ENDBRANCH   4   3
ENDBRANCH   7   6
ENDBRANCH   8   7
ENDBRANCH  16  15
BRANCH  18  23
ATOM     23  C   UNL     1      -4.079   0.315  24.870  0.00  0.00    +0.018 A 
ATOM     24  C   UNL     1      -4.593   0.329  25.515  0.00  0.00    +0.003 A 
ATOM     25  C   UNL     1      -5.117   0.958  25.610  0.00  0.00    +0.015 A 
ATOM     26  C   UNL     1      -5.128   1.573  25.060  0.00  0.00    +0.048 A 
ATOM     27  C   UNL     1      -4.614   1.558  24.416  0.00  0.00    +0.015 A 
ATOM     28  C   UNL     1      -4.088   0.929  24.320  0.00  0.00    +0.003 A 
BRANCH  26  29
ATOM     29  N   UNL     1      -5.653   2.203  25.155  0.00  0.00    -0.304 N 
ATOM     30  C   UNL     1      -5.372   2.941  25.396  0.00  0.00    +0.112 C 
ATOM     31  C   UNL     1      -6.457   2.095  25.011  0.00  0.00    +0.112 C 
ENDBRANCH  26  29
ENDBRANCH  18  23
TORSDOF 7
ENDMDL
MODEL 3
REMARK VINA RESULT:      -7.6      2.869      4.879
REMARK  Name = 
REMARK  7 active torsions:
REMARK  status: ('A' for Active; 'I' for Inactive)
REMARK    1  A    between atoms: O_2  and  C_3
REMARK    2  A    between atoms: C_3  and  C_4
REMARK    3  A    between atoms: N_6  and  C_7
REMARK    4  A    between atoms: C_7  and  C_8
REMARK    5  A    between atoms: C_15  and  C_16
REMARK    6  A    between atoms: C_18  and  C_23
REMARK    7  A    between atoms: C_26  and  N_29
REMARK                            x       y       z     vdW  Elec       q    Type
REMARK                         _______ _______ _______ _____ _____    ______ ____
ROOT
ATOM     16  C   UNL     1      -4.477   2.038  24.961  0.00  0.00    +0.063 A 
ATOM     17  C   UNL     1      -4.148   1.283  24.906  0.00  0.00    +0.034 A 
ATOM     18  C   UNL     1      -4.638   0.629  24.794  0.00  0.00    +0.084 A 
ATOM     19  N   UNL     1      -5.455   0.728  24.738  0.00  0.00    -0.231 NA
ATOM     20  C   UNL     1      -5.783   1.483  24.793  0.00  0.00    +0.139 A 
ATOM     21  C   UNL     1      -6.600   1.583  24.737  0.00  0.00    +0.074 C 
ATOM     22  N   UNL     1      -5.293   2.138  24.905  0.00  0.00    -0.235 NA
ENDROOT
BRANCH  16  15
ATOM      8  C   UNL     1      -2.988   4.201  25.466  0.00  0.00    +0.079 C 
ATOM      9  C   UNL     1      -3.598   3.949  25.879  0.00  0.00    +0.018 C 
ATOM     10  C   UNL     1      -4.040   3.292  25.713  0.00  0.00    +0.010 C 
ATOM     11  C   UNL     1      -4.700   3.174  26.310  0.00  0.00    +0.018 C 
ATOM     12  C   UNL     1      -4.183   3.474  26.045  0.00  0.00    +0.072 C 
ATOM     13  N   UNL     1      -3.443   3.531  25.304  0.00  0.00    -0.272 NA
ATOM     14  C   UNL     1      -3.395   2.906  24.642  0.00  0.00    +0.078 C 
ATOM     15  C   UNL     1      -3.988   2.693  25.073  0.00  0.00    +0.056 C 
BRANCH   8   7
ATOM      7  C   UNL     1      -2.370   4.724  25.311  0.00  0.00    +0.131 C 
BRANCH   7   6
ATOM      4  C   UNL     1      -1.017   4.957  24.916  0.00  0.00    +0.272 C 
ATOM      5  O   UNL     1      -1.164   5.768  24.887  0.00  0.00    -0.271 OA
ATOM      6  N   UNL     1      -1.620   4.435  25.128  0.00  0.00    -0.202 NA
BRANCH   4   3
ATOM      3  C   UNL     1      -0.267   4.667  24.732  0.00  0.00    +0.229 C 
BRANCH   3   2
ATOM      1  C   UNL     1       0.290   3.502  24.120  0.00  0.00    +0.175 C 
ATOM      2  O   UNL     1      -0.159   4.192  24.067  0.00  0.00    -0.342 OA
ENDBRANCH   3   2
ENDBRANCH   4   3
ENDBRANCH   7   6
ENDBRANCH   8   7
ENDBRANCH  16  15
BRANCH  18  23
ATOM     23  C   UNL     1      -4.310  -0.127  24.738  0.00  0.00    +0.018 A 
ATOM     24  C   UNL     1      -3.974  -0.480  25.404  0.00  0.00    +0.003 A 
ATOM     25  C   UNL     1      -3.646  -1.235  25.349  0.00  0.00    +0.015 A 
ATOM     26  C   UNL     1      -3.655  -1.637  24.628  0.00  0.00    +0.048 A 
ATOM     27  C   UNL     1      -3.991  -1.284  23.963  0.00  0.00    +0.015 A 
ATOM     28  C   UNL     1      -4.319  -0.528  24.018  0.00  0.00    +0.003 A 
BRANCH  26  29
ATOM     29  N   UNL     1      -3.327  -2.392  24.573  0.00  0.00    -0.304 N 
ATOM     30  C   UNL     1      -2.517  -2.499  24.688  0.00  0.00    +0.112 C 
ATOM     31  C   UNL     1      -3.808  -3.040  24.404  0.00  0.00    +0.112 C 
ENDBRANCH  26  29
ENDBRANCH  18  23
TORSDOF 7
ENDMDL
MODEL 4
REMARK VINA RESULT:      -7.6      3.184      4.764
REMARK  Name = 
REMARK  7 active torsions:
REMARK  status: ('A' for Active; 'I' for Inactive)
REMARK    1  A    between atoms: O_2  and  C_3
REMARK    2  A    between atoms: C_3  and  C_4
REMARK    3  A    between atoms: N_6  and  C_7
REMARK    4  A    between atoms: C_7  and  C_8
REMARK    5  A    between atoms: C_15  and  C_16
REMARK    6  A    between atoms: C_18  and  C_23
REMARK    7  A    between atoms: C_26  and  N_29
REMARK                            x       y       z     vdW  Elec       q    Type
REMARK                         _______ _______ _______ _____ _____    ______ ____
ROOT
ATOM     16  C   UNL     1      -4.357   1.828  25.116  0.00  0.00    +0.063 A 
ATOM     17  C   UNL     1      -3.710   2.338  25.068  0.00  0.00    +0.034 A 
ATOM     18  C   UNL     1      -3.804   3.139  25.241  0.00  0.00    +0.084 A 
ATOM     19  N   UNL     1      -4.544   3.430  25.463  0.00  0.00    -0.231 NA
ATOM     20  C   UNL     1      -5.190   2.919  25.511  0.00  0.00    +0.139 A 
ATOM     21  C   UNL     1      -5.930   3.209  25.732  0.00  0.00    +0.074 C 
ATOM     22  N   UNL     1      -5.096   2.117  25.337  0.00  0.00    -0.235 NA
ENDROOT
BRANCH  16  15
ATOM      8  C   UNL     1      -4.030  -0.724  24.387  0.00  0.00    +0.079 C 
ATOM      9  C   UNL     1      -4.006  -0.101  23.922  0.00  0.00    +0.018 C 
ATOM     10  C   UNL     1      -4.107   0.668  24.157  0.00  0.00    +0.010 C 
ATOM     11  C   UNL     1      -4.043   1.239  23.469  0.00  0.00    +0.018 C 
ATOM     12  C   UNL     1      -4.041   0.653  23.758  0.00  0.00    +0.072 C 
ATOM     13  N   UNL     1      -4.132   0.061  24.619  0.00  0.00    -0.272 NA
ATOM     14  C   UNL     1      -4.294   0.441  25.433  0.00  0.00    +0.078 C 
ATOM     15  C   UNL     1      -4.263   1.026  24.943  0.00  0.00    +0.056 C 
BRANCH   8   7
ATOM      7  C   UNL     1      -3.987  -1.534  24.533  0.00  0.00    +0.131 C 
BRANCH   7   6
ATOM      4  C   UNL     1      -3.110  -2.652  24.690  0.00  0.00    +0.272 C 
ATOM      5  O   UNL     1      -3.555  -2.911  25.334  0.00  0.00    -0.271 OA
ATOM      6  N   UNL     1      -3.326  -1.964  24.289  0.00  0.00    -0.202 NA
BRANCH   4   3
ATOM      3  C   UNL     1      -2.450  -3.081  24.445  0.00  0.00    +0.229 C 
BRANCH   3   2
ATOM      1  C   UNL     1      -1.058  -2.872  24.202  0.00  0.00    +0.175 C 
ATOM      2  O   UNL     1      -1.700  -2.876  24.720  0.00  0.00    -0.342 OA
ENDBRANCH   3   2
ENDBRANCH   4   3
ENDBRANCH   7   6
ENDBRANCH   8   7
ENDBRANCH  16  15
BRANCH  18  23
ATOM     23  C   UNL     1      -3.158   3.650  25.193  0.00  0.00    +0.018 A 
ATOM     24  C   UNL     1      -2.588   3.650  25.790  0.00  0.00    +0.003 A 
ATOM     25  C   UNL     1      -1.942   4.161  25.742  0.00  0.00    +0.015 A 
ATOM     26  C   UNL     1      -1.866   4.672  25.098  0.00  0.00    +0.048 A 
ATOM     27  C   UNL     1      -2.436   4.671  24.503  0.00  0.00    +0.015 A 
ATOM     28  C   UNL     1      -3.083   4.160  24.550  0.00  0.00    +0.003 A 
BRANCH  26  29
ATOM     29  N   UNL     1      -1.220   5.183  25.051  0.00  0.00    -0.304 N 
ATOM     30  C   UNL     1      -0.455   4.876  25.010  0.00  0.00    +0.112 C 
ATOM     31  C   UNL     1      -1.338   5.998  25.046  0.00  0.00    +0.112 C 
ENDBRANCH  26  29
ENDBRANCH  18  23
TORSDOF 7
ENDMDL
MODEL 5
REMARK VINA RESULT:      -7.3      2.221      2.823
REMARK  Name = 
REMARK  7 active torsions:
REMARK  status: ('A' for Active; 'I' for Inactive)
REMARK    1  A    between atoms: O_2  and  C_3
REMARK    2  A    between atoms: C_3  and  C_4
REMARK    3  A    between atoms: N_6  and  C_7
REMARK    4  A    between atoms: C_7  and  C_8
REMARK    5  A    between atoms: C_15  and  C_16
REMARK    6  A    between atoms: C_18  and  C_23
REMARK    7  A    between atoms: C_26  and  N_29
REMARK                            x       y       z     vdW  Elec       q    Type
REMARK                         _______ _______ _______ _____ _____    ______ ____
ROOT
ATOM     16  C   UNL     1      -1.387   2.604  24.894  0.00  0.00    +0.063 A 
ATOM     17  C   UNL     1      -2.196   2.728  25.005  0.00  0.00    +0.034 A 
ATOM     18  C   UNL     1      -2.482   3.492  25.123  0.00  0.00    +0.084 A 
ATOM     19  N   UNL     1      -1.962   4.132  25.131  0.00  0.00    -0.231 NA
ATOM     20  C   UNL     1      -1.154   4.008  25.021  0.00  0.00    +0.139 A 
ATOM     21  C   UNL     1      -0.633   4.647  25.029  0.00  0.00    +0.074 C 
ATOM     22  N   UNL     1      -0.867   3.243  24.902  0.00  0.00    -0.235 NA
ENDROOT
BRANCH  16  15
ATOM      8  C   UNL     1      -0.442   0.165  24.339  0.00  0.00    +0.079 C 
ATOM      9  C   UNL     1      -0.562   0.744  23.833  0.00  0.00    +0.018 C 
ATOM     10  C   UNL     1      -0.849   1.479  24.016  0.00  0.00    +0.010 C 
ATOM     11  C   UNL     1      -0.913   2.002  23.290  0.00  0.00    +0.018 C 
ATOM     12  C   UNL     1      -0.775   1.454  23.619  0.00  0.00    +0.072 C 
ATOM     13  N   UNL     1      -0.735   0.916  24.517  0.00  0.00    -0.272 NA
ATOM     14  C   UNL     1      -0.997   1.298  25.304  0.00  0.00    +0.078 C 
ATOM     15  C   UNL     1      -1.100   1.839  24.775  0.00  0.00    +0.056 C 
BRANCH   8   7
ATOM      7  C   UNL     1      -0.208  -0.600  24.540  0.00  0.00    +0.131 C 
BRANCH   7   6
ATOM      4  C   UNL     1      -0.707  -1.907  24.827  0.00  0.00    +0.272 C 
ATOM      5  O   UNL     1      -0.260  -1.926  25.519  0.00  0.00    -0.271 OA
ATOM      6  N   UNL     1      -0.681  -1.243  24.337  0.00  0.00    -0.202 NA
BRANCH   4   3
ATOM      3  C   UNL     1      -1.181  -2.551  24.623  0.00  0.00    +0.229 C 
BRANCH   3   2
ATOM      1  C   UNL     1      -2.534  -2.988  24.486  0.00  0.00    +0.175 C 
ATOM      2  O   UNL     1      -1.946  -2.612  24.925  0.00  0.00    -0.342 OA
ENDBRANCH   3   2
ENDBRANCH   4   3
ENDBRANCH   7   6
ENDBRANCH   8   7
ENDBRANCH  16  15
BRANCH  18  23
ATOM     23  C   UNL     1      -3.291   3.617  25.234  0.00  0.00    +0.018 A 
ATOM     24  C   UNL     1      -3.595   3.695  25.997  0.00  0.00    +0.003 A 
ATOM     25  C   UNL     1      -4.402   3.820  26.108  0.00  0.00    +0.015 A 
ATOM     26  C   UNL     1      -4.906   3.867  25.456  0.00  0.00    +0.048 A 
ATOM     27  C   UNL     1      -4.602   3.789  24.694  0.00  0.00    +0.015 A 
ATOM     28  C   UNL     1      -3.794   3.664  24.582  0.00  0.00    +0.003 A 
BRANCH  26  29
ATOM     29  N   UNL     1      -5.714   3.992  25.568  0.00  0.00    -0.304 N 
ATOM     30  C   UNL     1      -6.214   3.352  25.711  0.00  0.00    +0.112 C 
ATOM     31  C   UNL     1      -6.022   4.756  25.537  0.00  0.00    +0.112 C 
ENDBRANCH  26  29
ENDBRANCH  18  23
TORSDOF 7
ENDMDL
