MODEL 1
REMARK VINA RESULT:     -13.2      0.000      0.000
REMARK  Name = 
REMARK  5 active torsions:
REMARK  status: ('A' for Active; 'I' for Inactive)
REMARK    1  A    between atoms: O_2  and  C_3
REMARK    2  A    between atoms: C_6  and  C_9
REMARK    3  A    between atoms: N_11  and  C_12
REMARK    4  A    between atoms: N_22  and  C_23
REMARK    5  A    between atoms: C_25  and  C_29
REMARK                            x       y       z     vdW  Elec       q    Type
REMARK                         _______ _______ _______ _____ _____    ______ ____
ROOT
ATOM     12  C   UNL     1      -2.875   1.177  24.382  0.00  0.00    +0.146 C 
ATOM     13  C   UNL     1      -2.234   1.316  24.885  0.00  0.00    +0.119 C 
ATOM     14  N   UNL     1      -1.940   2.037  25.155  0.00  0.00    -0.261 N 
ATOM     15  C   UNL     1      -2.212   2.798  24.990  0.00  0.00    +0.095 C 
ATOM     16  C   UNL     1      -2.846   3.026  24.515  0.00  0.00    +0.024 C 
ATOM     17  C   UNL     1      -3.365   2.549  24.086  0.00  0.00    +0.037 C 
ATOM     18  C   UNL     1      -3.378   1.726  24.027  0.00  0.00    +0.174 C 
ATOM     19  O   UNL     1      -3.972   1.411  23.550  0.00  0.00    -0.221 OA
ATOM     20  C   UNL     1      -1.285   1.992  25.656  0.00  0.00    +0.328 C 
ATOM     21  O   UNL     1      -0.969   1.256  25.856  0.00  0.00    -0.250 OA
ATOM     22  N   UNL     1      -0.948   2.681  25.958  0.00  0.00    -0.162 NA
ENDROOT
BRANCH  22  23
ATOM     23  C   UNL     1      -1.264   3.417  25.758  0.00  0.00    +0.075 A 
ATOM     24  C   UNL     1      -0.822   3.947  25.307  0.00  0.00    +0.021 A 
ATOM     25  C   UNL     1      -1.138   4.683  25.108  0.00  0.00    +0.073 A 
ATOM     26  C   UNL     1      -1.897   4.888  25.359  0.00  0.00    +0.004 A 
ATOM     27  C   UNL     1      -2.339   4.357  25.811  0.00  0.00    +0.001 A 
ATOM     28  C   UNL     1      -2.023   3.622  26.010  0.00  0.00    +0.017 A 
BRANCH  25  29
ATOM     29  C   UNL     1      -0.696   5.213  24.657  0.00  0.00    +0.419 C 
ATOM     30  F   UNL     1      -0.253   5.744  24.205  0.00  0.00    -0.166 F 
ATOM     31  F   UNL     1      -0.301   4.582  24.300  0.00  0.00    -0.166 F 
ATOM     32  F   UNL     1      -1.090   5.844  25.012  0.00  0.00    -0.166 F 
ENDBRANCH  25  29
ENDBRANCH  22  23
BRANCH  12  11
ATOM      9  C   UNL     1      -3.428  -0.084  24.765  0.00  0.00    +0.265 C 
ATOM     10  O   UNL     1      -3.665   0.240  25.485  0.00  0.00    -0.268 OA
ATOM     11  N   UNL     1      -3.032   0.385  24.213  0.00  0.00    -0.199 NA
BRANCH   9   6
ATOM      3  C   UNL     1      -3.900  -2.460  24.258  0.00  0.00    +0.139 A 
ATOM      4  C   UNL     1      -4.305  -1.863  23.857  0.00  0.00    +0.037 A 
ATOM      5  C   UNL     1      -4.148  -1.071  24.026  0.00  0.00    +0.008 A 
ATOM      6  C   UNL     1      -3.585  -0.875  24.596  0.00  0.00    +0.055 A 
ATOM      7  C   UNL     1      -3.180  -1.471  24.997  0.00  0.00    +0.008 A 
ATOM      8  C   UNL     1      -3.338  -2.263  24.828  0.00  0.00    +0.037 A 
BRANCH   3   2
ATOM      1  C   UNL     1      -3.436  -3.784  23.994  0.00  0.00    +0.252 C 
ATOM      2  O   UNL     1      -4.058  -3.251  24.090  0.00  0.00    -0.471 OA
ENDBRANCH   3   2
ENDBRANCH   9   6
ENDBRANCH  12  11
TORSDOF 5
ENDMDL
MODEL 2
REMARK VINA RESULT:     -12.5      2.869      5.869
REMARK  Name = 
REMARK  5 active torsions:
REMARK  status: ('A' for Active; 'I' for Inactive)
REMARK    1  A    between atoms: O_2  and  C_3
REMARK    2  A    between atoms: C_6  and  C_9
REMARK    3  A    between atoms: N_11  and  C_12
REMARK    4  A    between atoms: N_22  and  C_23
REMARK    5  A    between atoms: C_25  and  C_29
REMARK                            x       y       z     vdW  Elec       q    Type
REMARK                         _______ _______ _______ _____ _____    ______ ____
ROOT
ATOM     12  C   UNL     1      -2.771   1.488  24.808  0.00  0.00    +0.146 C 
ATOM     13  C   UNL     1      -2.224   0.883  24.677  0.00  0.00    +0.119 C 
ATOM     14  N   UNL     1      -2.340   0.068  24.723  0.00  0.00    -0.261 N 
ATOM     15  C   UNL     1      -3.029  -0.344  24.910  0.00  0.00    +0.095 C 
ATOM     16  C   UNL     1      -3.774  -0.043  25.098  0.00  0.00    +0.024 C 
ATOM     17  C   UNL     1      -4.012   0.745  25.145  0.00  0.00    +0.037 C 
ATOM     18  C   UNL     1      -3.566   1.426  25.016  0.00  0.00    +0.174 C 
ATOM     19  O   UNL     1      -3.969   2.140  25.107  0.00  0.00    -0.221 OA
ATOM     20  C   UNL     1      -1.677  -0.397  24.559  0.00  0.00    +0.328 C 
ATOM     21  O   UNL     1      -0.960  -0.039  24.366  0.00  0.00    -0.250 OA
ATOM     22  N   UNL     1      -1.733  -1.219  24.589  0.00  0.00    -0.162 NA
ENDROOT
BRANCH  22  23
ATOM     23  C   UNL     1      -2.451  -1.577  24.783  0.00  0.00    +0.075 A 
ATOM     24  C   UNL     1      -2.877  -1.985  24.206  0.00  0.00    +0.021 A 
ATOM     25  C   UNL     1      -3.594  -2.343  24.400  0.00  0.00    +0.073 A 
ATOM     26  C   UNL     1      -3.886  -2.294  25.170  0.00  0.00    +0.004 A 
ATOM     27  C   UNL     1      -3.460  -1.886  25.747  0.00  0.00    +0.001 A 
ATOM     28  C   UNL     1      -2.742  -1.528  25.554  0.00  0.00    +0.017 A 
BRANCH  25  29
ATOM     29  C   UNL     1      -4.021  -2.751  23.823  0.00  0.00    +0.419 C 
ATOM     30  F   UNL     1      -4.447  -3.159  23.246  0.00  0.00    -0.166 F 
ATOM     31  F   UNL     1      -4.413  -2.054  23.619  0.00  0.00    -0.166 F 
ATOM     32  F   UNL     1      -3.629  -3.448  24.027  0.00  0.00    -0.166 F 
ENDBRANCH  25  29
ENDBRANCH  22  23
BRANCH  12  11
ATOM      9  C   UNL     1      -1.945   2.562  25.264  0.00  0.00    +0.265 C 
ATOM     10  O   UNL     1      -1.696   2.099  25.900  0.00  0.00    -0.268 OA
ATOM     11  N   UNL     1      -2.483   2.256  24.718  0.00  0.00    -0.199 NA
BRANCH   9   6
ATOM      3  C   UNL     1      -1.081   4.866  24.996  0.00  0.00    +0.139 A 
ATOM      4  C   UNL     1      -1.756   4.728  25.449  0.00  0.00    +0.037 A 
ATOM      5  C   UNL     1      -2.044   3.960  25.539  0.00  0.00    +0.008 A 
ATOM      6  C   UNL     1      -1.658   3.329  25.175  0.00  0.00    +0.055 A 
ATOM      7  C   UNL     1      -0.983   3.467  24.721  0.00  0.00    +0.008 A 
ATOM      8  C   UNL     1      -0.695   4.234  24.632  0.00  0.00    +0.037 A 
BRANCH   3   2
ATOM      1  C   UNL     1      -1.310   6.249  24.722  0.00  0.00    +0.252 C 
ATOM      2  O   UNL     1      -0.793   5.633  24.906  0.00  0.00    -0.471 OA
ENDBRANCH   3   2
ENDBRANCH   9   6
ENDBRANCH  12  11
TORSDOF 5
ENDMDL
MODEL 3
REMARK VINA RESULT:     -11.4      3.973      5.849
REMARK  Name = 
REMARK  5 active torsions:
REMARK  status: ('A' for Active; 'I' for Inactive)
REMARK    1  A    between atoms: O_2  and  C_3
REMARK    2  A    between atoms: C_6  and  C_9
REMARK    3  A    between atoms: N_11  and  C_12
REMARK    4  A    between atoms: N_22  and  C_23
REMARK    5  A    between atoms: C_25  and  C_29
REMARK                            x       y       z     vdW  Elec       q    Type
REMARK                         _______ _______ _______ _____ _____    ______ ____
ROOT
ATOM     12  C   UNL     1      -0.380   0.297  24.000  0.00  0.00    +0.146 C 
ATOM     13  C   UNL     1      -0.475  -0.412  24.412  0.00  0.00    +0.119 C 
ATOM     14  N   UNL     1      -1.174  -0.769  24.667  0.00  0.00    -0.261 N 
ATOM     15  C   UNL     1      -1.950  -0.505  24.573  0.00  0.00    +0.095 C 
ATOM     16  C   UNL     1      -2.219   0.180  24.202  0.00  0.00    +0.024 C 
ATOM     17  C   UNL     1      -1.778   0.771  23.832  0.00  0.00    +0.037 C 
ATOM     18  C   UNL     1      -0.960   0.823  23.742  0.00  0.00    +0.174 C 
ATOM     19  O   UNL     1      -0.686   1.490  23.341  0.00  0.00    -0.221 OA
ATOM     20  C   UNL     1      -1.085  -1.484  25.069  0.00  0.00    +0.328 C 
ATOM     21  O   UNL     1      -0.331  -1.797  25.192  0.00  0.00    -0.250 OA
ATOM     22  N   UNL     1      -1.749  -1.886  25.347  0.00  0.00    -0.162 NA
ENDROOT
BRANCH  22  23
ATOM     23  C   UNL     1      -2.502  -1.574  25.224  0.00  0.00    +0.075 A 
ATOM     24  C   UNL     1      -3.013  -1.930  24.684  0.00  0.00    +0.021 A 
ATOM     25  C   UNL     1      -3.767  -1.617  24.561  0.00  0.00    +0.073 A 
ATOM     26  C   UNL     1      -4.010  -0.948  24.979  0.00  0.00    +0.004 A 
ATOM     27  C   UNL     1      -3.498  -0.591  25.520  0.00  0.00    +0.001 A 
ATOM     28  C   UNL     1      -2.744  -0.904  25.643  0.00  0.00    +0.017 A 
BRANCH  25  29
ATOM     29  C   UNL     1      -4.278  -1.973  24.021  0.00  0.00    +0.419 C 
ATOM     30  F   UNL     1      -4.790  -2.329  23.480  0.00  0.00    -0.166 F 
ATOM     31  F   UNL     1      -4.604  -1.237  23.842  0.00  0.00    -0.166 F 
ATOM     32  F   UNL     1      -3.953  -2.710  24.199  0.00  0.00    -0.166 F 
ENDBRANCH  25  29
ENDBRANCH  22  23
BRANCH  12  11
ATOM      9  C   UNL     1       0.809   0.106  23.230  0.00  0.00    +0.265 C 
ATOM     10  O   UNL     1       0.441  -0.505  22.815  0.00  0.00    -0.268 OA
ATOM     11  N   UNL     1       0.398   0.506  23.823  0.00  0.00    -0.199 NA
BRANCH   9   6
ATOM      3  C   UNL     1       3.143   0.734  22.699  0.00  0.00    +0.139 A 
ATOM      4  C   UNL     1       2.793   0.089  22.322  0.00  0.00    +0.037 A 
ATOM      5  C   UNL     1       2.015  -0.121  22.500  0.00  0.00    +0.008 A 
ATOM      6  C   UNL     1       1.586   0.315  23.053  0.00  0.00    +0.055 A 
ATOM      7  C   UNL     1       1.936   0.960  23.430  0.00  0.00    +0.008 A 
ATOM      8  C   UNL     1       2.714   1.169  23.253  0.00  0.00    +0.037 A 
BRANCH   3   2
ATOM      1  C   UNL     1       4.547   0.549  22.885  0.00  0.00    +0.252 C 
ATOM      2  O   UNL     1       3.920   0.943  22.522  0.00  0.00    -0.471 OA
ENDBRANCH   3   2
ENDBRANCH   9   6
ENDBRANCH  12  11
TORSDOF 5
ENDMDL
MODEL 4
REMARK VINA RESULT:     -11.3      3.188      4.422
REMARK  Name = 
REMARK  5 active torsions:
REMARK  status: ('A' for Active; 'I' for Inactive)
REMARK    1  A    between atoms: O_2  and  C_3
REMARK    2  A    between atoms: C_6  and  C_9
REMARK    3  A    between atoms: N_11  and  C_12
REMARK    4  A    between atoms: N_22  and  C_23
REMARK    5  A    between atoms: C_25  and  C_29
REMARK                            x       y       z     vdW  Elec       q    Type
REMARK                         _______ _______ _______ _____ _____    ______ ____
ROOT
ATOM     12  C   UNL     1      -1.224   2.098  24.358  0.00  0.00    +0.146 C 
ATOM     13  C   UNL     1      -1.848   2.136  23.820  0.00  0.00    +0.119 C 
ATOM     14  N   UNL     1      -2.622   2.391  23.947  0.00  0.00    -0.261 N 
ATOM     15  C   UNL     1      -2.963   2.671  24.644  0.00  0.00    +0.095 C 
ATOM     16  C   UNL     1      -2.615   2.765  25.386  0.00  0.00    +0.024 C 
ATOM     17  C   UNL     1      -1.839   2.602  25.613  0.00  0.00    +0.037 C 
ATOM     18  C   UNL     1      -1.220   2.305  25.157  0.00  0.00    +0.174 C 
ATOM     19  O   UNL     1      -0.502   2.202  25.550  0.00  0.00    -0.221 OA
ATOM     20  C   UNL     1      -3.121   2.362  23.290  0.00  0.00    +0.328 C 
ATOM     21  O   UNL     1      -2.834   2.091  22.566  0.00  0.00    -0.250 OA
ATOM     22  N   UNL     1      -3.906   2.605  23.358  0.00  0.00    -0.162 NA
ENDROOT
BRANCH  22  23
ATOM     23  C   UNL     1      -4.193   2.877  24.082  0.00  0.00    +0.075 A 
ATOM     24  C   UNL     1      -4.745   2.430  24.501  0.00  0.00    +0.021 A 
ATOM     25  C   UNL     1      -5.032   2.701  25.225  0.00  0.00    +0.073 A 
ATOM     26  C   UNL     1      -4.767   3.420  25.531  0.00  0.00    +0.004 A 
ATOM     27  C   UNL     1      -4.214   3.868  25.112  0.00  0.00    +0.001 A 
ATOM     28  C   UNL     1      -3.927   3.596  24.388  0.00  0.00    +0.017 A 
BRANCH  25  29
ATOM     29  C   UNL     1      -5.585   2.254  25.644  0.00  0.00    +0.419 C 
ATOM     30  F   UNL     1      -6.137   1.807  26.064  0.00  0.00    -0.166 F 
ATOM     31  F   UNL     1      -5.393   2.663  26.335  0.00  0.00    -0.166 F 
ATOM     32  F   UNL     1      -5.776   1.845  24.954  0.00  0.00    -0.166 F 
ENDBRANCH  25  29
ENDBRANCH  22  23
BRANCH  12  11
ATOM      9  C   UNL     1      -0.418   1.011  23.898  0.00  0.00    +0.265 C 
ATOM     10  O   UNL     1      -1.043   0.490  24.037  0.00  0.00    -0.268 OA
ATOM     11  N   UNL     1      -0.509   1.815  24.059  0.00  0.00    -0.199 NA
BRANCH   9   6
ATOM      3  C   UNL     1       1.725   0.161  22.998  0.00  0.00    +0.139 A 
ATOM      4  C   UNL     1       1.045  -0.302  22.951  0.00  0.00    +0.037 A 
ATOM      5  C   UNL     1       0.330  -0.019  23.251  0.00  0.00    +0.008 A 
ATOM      6  C   UNL     1       0.295   0.728  23.598  0.00  0.00    +0.055 A 
ATOM      7  C   UNL     1       0.976   1.192  23.645  0.00  0.00    +0.008 A 
ATOM      8  C   UNL     1       1.690   0.909  23.346  0.00  0.00    +0.037 A 
BRANCH   3   2
ATOM      1  C   UNL     1       3.068   0.397  22.572  0.00  0.00    +0.252 C 
ATOM      2  O   UNL     1       2.439  -0.121  22.699  0.00  0.00    -0.471 OA
ENDBRANCH   3   2
ENDBRANCH   9   6
ENDBRANCH  12  11
TORSDOF 5
ENDMDL
