REMARK  Name = 
REMARK  4 active torsions:
REMARK  status: ('A' for Active; 'I' for Inactive)
REMARK    1  A    between atoms: C_2  and  C_5
REMARK    2  A    between atoms: C_5  and  C_6
REMARK    3  A    between atoms: C_20  and  C_23
REMARK    4  A    between atoms: C_25  and  C_29
REMARK                            x       y       z     vdW  Elec       q    Type
REMARK                         _______ _______ _______ _____ _____    ______ ____
ROOT
ATOM      6  C   UNL     1       6.912   0.608   0.000  0.00  0.00    +0.226 C 
ATOM      7  O   UNL     1       7.517   1.169   0.000  0.00  0.00    -0.275 OA
ATOM      8  N   UNL     1       6.124   0.851   0.000  0.00  0.00    -0.276 N 
ATOM      9  C   UNL     1       5.940   1.655   0.000  0.00  0.00    +0.115 C 
ATOM     10  C   UNL     1       5.152   1.899   0.000  0.00  0.00    +0.116 C 
ATOM     11  N   UNL     1       4.547   1.337   0.000  0.00  0.00    -0.266 N 
ATOM     12  C   UNL     1       4.731   0.533   0.000  0.00  0.00    +0.174 C 
ATOM     13  C   UNL     1       5.519   0.290   0.000  0.00  0.00    +0.123 C 
ATOM     14  C   UNL     1       4.216  -0.112   0.000  0.00  0.00    +0.265 C 
ATOM     15  O   UNL     1       4.574  -0.855   0.000  0.00  0.00    -0.271 OA
ATOM     16  N   UNL     1       3.391  -0.112   0.000  0.00  0.00    -0.178 NA
ATOM     17  C   UNL     1       2.877   0.533   0.000  0.00  0.00    +0.078 A 
ATOM     18  C   UNL     1       3.060   1.337   0.000  0.00  0.00    +0.069 A 
ATOM     19  C   UNL     1       2.456   1.899   0.000  0.00  0.00    +0.006 A 
ATOM     20  C   UNL     1       1.667   1.655   0.000  0.00  0.00    +0.000 A 
ATOM     21  C   UNL     1       1.484   0.851   0.000  0.00  0.00    +0.001 A 
ATOM     22  C   UNL     1       2.088   0.290   0.000  0.00  0.00    +0.017 A 
ATOM     33  C   UNL     1       3.804   1.695   0.000  0.00  0.00    +0.251 C 
ATOM     34  O   UNL     1       3.804   2.520   0.000  0.00  0.00    -0.270 OA
ENDROOT
BRANCH  20  23
ATOM     23  C   UNL     1       1.062   2.216   0.000  0.00  0.00    -0.000 A 
ATOM     24  C   UNL     1       0.274   1.973   0.000  0.00  0.00    +0.004 A 
ATOM     25  C   UNL     1      -0.331   2.534   0.000  0.00  0.00    +0.071 A 
ATOM     26  C   UNL     1      -0.147   3.339   0.000  0.00  0.00    +0.004 A 
ATOM     27  C   UNL     1       0.641   3.582   0.000  0.00  0.00    -0.000 A 
ATOM     28  C   UNL     1       1.246   3.021   0.000  0.00  0.00    -0.000 A 
BRANCH  25  29
ATOM     29  C   UNL     1      -1.119   2.291   0.000  0.00  0.00    +0.419 C 
ATOM     30  F   UNL     1      -1.907   2.048   0.000  0.00  0.00    -0.166 F 
ATOM     31  F   UNL     1      -1.362   3.080   0.000  0.00  0.00    -0.166 F 
ATOM     32  F   UNL     1      -0.876   1.503   0.000  0.00  0.00    -0.166 F 
ENDBRANCH  25  29
ENDBRANCH  20  23
BRANCH   6   5
ATOM      5  C   UNL     1       7.096  -0.197   0.000  0.00  0.00    +0.085 C 
BRANCH   5   2
ATOM      1  C   UNL     1       8.672  -0.683   0.000  0.00  0.00    +0.000 C 
ATOM      2  C   UNL     1       7.884  -0.440   0.000  0.00  0.00    +0.009 C 
ATOM      3  C   UNL     1       8.127   0.349   0.000  0.00  0.00    +0.000 C 
ATOM      4  C   UNL     1       7.641  -1.228   0.000  0.00  0.00    +0.000 C 
ENDBRANCH   5   2
ENDBRANCH   6   5
TORSDOF 4
