REMARK  Name = 
REMARK  7 active torsions:
REMARK  status: ('A' for Active; 'I' for Inactive)
REMARK    1  A    between atoms: O_2  and  C_3
REMARK    2  A    between atoms: C_3  and  C_4
REMARK    3  A    between atoms: C_6  and  C_7
REMARK    4  A    between atoms: C_7  and  C_8
REMARK    5  A    between atoms: C_8  and  N_12
REMARK    6  A    between atoms: N_12  and  C_13
REMARK    7  A    between atoms: C_13  and  C_14
REMARK                            x       y       z     vdW  Elec       q    Type
REMARK                         _______ _______ _______ _____ _____    ______ ____
ROOT
ATOM      8  C   UNL     1       1.841  -2.304   0.000  0.00  0.00    +0.120 C 
ATOM      9  C   UNL     1       2.425  -2.888   0.000  0.00  0.00    +0.161 C 
ATOM     10  O   UNL     1       1.841  -3.471   0.000  0.00  0.00    -0.351 OA
ATOM     11  C   UNL     1       1.258  -2.888   0.000  0.00  0.00    +0.161 C 
ENDROOT
BRANCH   8   7
ATOM      7  C   UNL     1       1.258  -1.721   0.000  0.00  0.00    +0.070 C 
BRANCH   7   6
ATOM      4  C   UNL     1      -0.872  -1.864   0.000  0.00  0.00    +0.184 A 
ATOM      5  C   UNL     1      -0.180  -1.415   0.000  0.00  0.00    +0.056 A 
ATOM      6  C   UNL     1       0.461  -1.934   0.000  0.00  0.00    +0.102 A 
ATOM     21  N   UNL     1       0.166  -2.704   0.000  0.00  0.00    -0.082 NA
ATOM     22  O   UNL     1      -0.658  -2.661   0.000  0.00  0.00    -0.356 OA
BRANCH   4   3
ATOM      3  C   UNL     1      -1.642  -1.569   0.000  0.00  0.00    +0.209 C 
BRANCH   3   2
ATOM      1  C   UNL     1      -3.053  -1.792   0.000  0.00  0.00    +0.175 C 
ATOM      2  O   UNL     1      -2.283  -2.088   0.000  0.00  0.00    -0.343 OA
ENDBRANCH   3   2
ENDBRANCH   4   3
ENDBRANCH   7   6
ENDBRANCH   8   7
BRANCH   8  12
ATOM     12  N   UNL     1       2.425  -1.721   0.000  0.00  0.00    -0.211 NA
BRANCH  12  13
ATOM     13  C   UNL     1       2.211  -0.924   0.000  0.00  0.00    +0.116 C 
BRANCH  13  14
ATOM     14  C   UNL     1       2.795  -0.341   0.000  0.00  0.00    +0.006 A 
ATOM     15  C   UNL     1       2.581   0.456   0.000  0.00  0.00    -0.002 A 
ATOM     16  C   UNL     1       3.164   1.040   0.000  0.00  0.00    -0.000 A 
ATOM     17  C   UNL     1       3.961   0.826   0.000  0.00  0.00    +0.001 A 
ATOM     18  C   UNL     1       4.175   0.029   0.000  0.00  0.00    +0.011 A 
ATOM     19  C   UNL     1       3.591  -0.554   0.000  0.00  0.00    +0.055 A 
ATOM     20 CL   UNL     1       3.805  -1.351   0.000  0.00  0.00    -0.083 Cl
ENDBRANCH  13  14
ENDBRANCH  12  13
ENDBRANCH   8  12
TORSDOF 7
