MODEL 1
REMARK VINA RESULT:     -13.1      0.000      0.000
REMARK  Name = 
REMARK  6 active torsions:
REMARK  status: ('A' for Active; 'I' for Inactive)
REMARK    1  A    between atoms: C_2  and  C_3
REMARK    2  A    between atoms: C_3  and  C_4
REMARK    3  A    between atoms: C_9  and  C_10
REMARK    4  A    between atoms: C_10  and  C_11
REMARK    5  A    between atoms: C_14  and  C_16
REMARK    6  A    between atoms: N_22  and  C_23
REMARK                            x       y       z     vdW  Elec       q    Type
REMARK                         _______ _______ _______ _____ _____    ______ ____
ROOT
ATOM      4  C   UNL     1      -0.678  -0.231  24.686  0.00  0.00    +0.012 C 
ATOM      5  C   UNL     1      -0.332  -0.620  24.044  0.00  0.00    +0.019 C 
ATOM      6  C   UNL     1       0.199  -0.218  23.558  0.00  0.00    +0.089 C 
ATOM      7  N   UNL     1       0.385   0.570  23.712  0.00  0.00    -0.218 NA
ATOM      8  C   UNL     1       0.039   0.958  24.352  0.00  0.00    +0.089 C 
ATOM      9  C   UNL     1      -0.493   0.556  24.840  0.00  0.00    +0.024 C 
ENDROOT
BRANCH   4   3
ATOM      3  C   UNL     1      -1.210  -0.633  25.172  0.00  0.00    +0.087 C 
BRANCH   3   2
ATOM      1  O   UNL     1      -1.525  -1.736  24.321  0.00  0.00    -0.273 OA
ATOM      2  C   UNL     1      -1.767  -1.144  24.842  0.00  0.00    +0.241 C 
ATOM     22  N   UNL     1      -2.565  -1.063  25.032  0.00  0.00    -0.207 NA
BRANCH  22  23
ATOM     23  C   UNL     1      -3.122  -1.575  24.702  0.00  0.00    +0.095 C 
ATOM     24  C   UNL     1      -3.664  -1.291  24.147  0.00  0.00    +0.022 C 
ATOM     25  C   UNL     1      -4.221  -1.803  23.817  0.00  0.00    +0.002 C 
ATOM     26  C   UNL     1      -4.236  -2.597  24.041  0.00  0.00    +0.000 C 
ATOM     27  C   UNL     1      -3.694  -2.879  24.595  0.00  0.00    +0.002 C 
ATOM     28  C   UNL     1      -3.137  -2.368  24.925  0.00  0.00    +0.022 C 
ENDBRANCH  22  23
ENDBRANCH   3   2
ENDBRANCH   4   3
BRANCH   9  10
ATOM     10  C   UNL     1      -0.838   0.945  25.480  0.00  0.00    +0.051 C 
BRANCH  10  11
ATOM     11  C   UNL     1      -0.719   1.754  25.586  0.00  0.00    +0.101 A 
ATOM     12  N   UNL     1      -0.064   2.106  25.942  0.00  0.00    -0.081 NA
ATOM     13  O   UNL     1      -0.175   2.924  25.930  0.00  0.00    -0.354 OA
ATOM     14  C   UNL     1      -0.899   3.077  25.565  0.00  0.00    +0.177 A 
ATOM     15  C   UNL     1      -1.236   2.355  25.352  0.00  0.00    +0.058 A 
BRANCH  14  16
ATOM     16  C   UNL     1      -1.228   3.822  25.436  0.00  0.00    +0.037 A 
ATOM     17  C   UNL     1      -0.777   4.418  25.085  0.00  0.00    +0.003 A 
ATOM     18  C   UNL     1      -1.106   5.163  24.956  0.00  0.00    +0.000 A 
ATOM     19  C   UNL     1      -1.886   5.313  25.178  0.00  0.00    +0.000 A 
ATOM     20  C   UNL     1      -2.338   4.717  25.529  0.00  0.00    +0.000 A 
ATOM     21  C   UNL     1      -2.008   3.973  25.658  0.00  0.00    +0.003 A 
ENDBRANCH  14  16
ENDBRANCH  10  11
ENDBRANCH   9  10
TORSDOF 6
ENDMDL
MODEL 2
REMARK VINA RESULT:     -12.7      2.364      3.388
REMARK  Name = 
REMARK  6 active torsions:
REMARK  status: ('A' for Active; 'I' for Inactive)
REMARK    1  A    between atoms: C_2  and  C_3
REMARK    2  A    between atoms: C_3  and  C_4
REMARK    3  A    between atoms: C_9  and  C_10
REMARK    4  A    between atoms: C_10  and  C_11
REMARK    5  A    between atoms: C_14  and  C_16
REMARK    6  A    between atoms: N_22  and  C_23
REMARK                            x       y       z     vdW  Elec       q    Type
REMARK                         _______ _______ _______ _____ _____    ______ ____
ROOT
ATOM      4  C   UNL     1      -4.880   1.356  24.908  0.00  0.00    +0.012 C 
ATOM      5  C   UNL     1      -5.422   0.958  25.388  0.00  0.00    +0.019 C 
ATOM      6  C   UNL     1      -5.961   1.386  25.842  0.00  0.00    +0.089 C 
ATOM      7  N   UNL     1      -5.960   2.210  25.818  0.00  0.00    -0.218 NA
ATOM      8  C   UNL     1      -5.419   2.608  25.339  0.00  0.00    +0.089 C 
ATOM      9  C   UNL     1      -4.878   2.180  24.884  0.00  0.00    +0.024 C 
ENDROOT
BRANCH   4   3
ATOM      3  C   UNL     1      -4.340   0.929  24.454  0.00  0.00    +0.087 C 
BRANCH   3   2
ATOM      1  O   UNL     1      -4.330  -0.157  25.383  0.00  0.00    -0.273 OA
ATOM      2  C   UNL     1      -4.197   0.134  24.623  0.00  0.00    +0.241 C 
ATOM     22  N   UNL     1      -3.921  -0.370  24.031  0.00  0.00    -0.207 NA
BRANCH  22  23
ATOM     23  C   UNL     1      -3.778  -1.166  24.200  0.00  0.00    +0.095 C 
ATOM     24  C   UNL     1      -3.132  -1.378  24.667  0.00  0.00    +0.022 C 
ATOM     25  C   UNL     1      -2.989  -2.172  24.836  0.00  0.00    +0.002 C 
ATOM     26  C   UNL     1      -3.492  -2.755  24.537  0.00  0.00    +0.000 C 
ATOM     27  C   UNL     1      -4.137  -2.542  24.069  0.00  0.00    +0.002 C 
ATOM     28  C   UNL     1      -4.280  -1.747  23.901  0.00  0.00    +0.022 C 
ENDBRANCH  22  23
ENDBRANCH   3   2
ENDBRANCH   4   3
BRANCH   9  10
ATOM     10  C   UNL     1      -4.337   2.578  24.405  0.00  0.00    +0.051 C 
BRANCH  10  11
ATOM     11  C   UNL     1      -3.854   3.164  24.727  0.00  0.00    +0.101 A 
ATOM     12  N   UNL     1      -4.087   3.742  25.267  0.00  0.00    -0.081 NA
ATOM     13  O   UNL     1      -3.430   4.211  25.438  0.00  0.00    -0.354 OA
ATOM     14  C   UNL     1      -2.791   3.923  25.004  0.00  0.00    +0.177 A 
ATOM     15  C   UNL     1      -3.053   3.276  24.564  0.00  0.00    +0.058 A 
BRANCH  14  16
ATOM     16  C   UNL     1      -2.025   4.228  25.008  0.00  0.00    +0.037 A 
ATOM     17  C   UNL     1      -1.377   3.716  25.011  0.00  0.00    +0.003 A 
ATOM     18  C   UNL     1      -0.611   4.021  25.016  0.00  0.00    +0.000 A 
ATOM     19  C   UNL     1      -0.492   4.837  25.017  0.00  0.00    +0.000 A 
ATOM     20  C   UNL     1      -1.139   5.349  25.015  0.00  0.00    +0.000 A 
ATOM     21  C   UNL     1      -1.905   5.044  25.010  0.00  0.00    +0.003 A 
ENDBRANCH  14  16
ENDBRANCH  10  11
ENDBRANCH   9  10
TORSDOF 6
ENDMDL
MODEL 3
REMARK VINA RESULT:     -12.5      2.276      6.125
REMARK  Name = 
REMARK  6 active torsions:
REMARK  status: ('A' for Active; 'I' for Inactive)
REMARK    1  A    between atoms: C_2  and  C_3
REMARK    2  A    between atoms: C_3  and  C_4
REMARK    3  A    between atoms: C_9  and  C_10
REMARK    4  A    between atoms: C_10  and  C_11
REMARK    5  A    between atoms: C_14  and  C_16
REMARK    6  A    between atoms: N_22  and  C_23
REMARK                            x       y       z     vdW  Elec       q    Type
REMARK                         _______ _______ _______ _____ _____    ______ ____
ROOT
ATOM      4  C   UNL     1      -4.609   2.705  24.863  0.00  0.00    +0.012 C 
ATOM      5  C   UNL     1      -5.030   3.250  25.318  0.00  0.00    +0.019 C 
ATOM      6  C   UNL     1      -5.655   2.996  25.792  0.00  0.00    +0.089 C 
ATOM      7  N   UNL     1      -5.861   2.198  25.811  0.00  0.00    -0.218 NA
ATOM      8  C   UNL     1      -5.441   1.653  25.356  0.00  0.00    +0.089 C 
ATOM      9  C   UNL     1      -4.814   1.907  24.882  0.00  0.00    +0.024 C 
ENDROOT
BRANCH   4   3
ATOM      3  C   UNL     1      -3.983   2.959  24.389  0.00  0.00    +0.087 C 
BRANCH   3   2
ATOM      1  O   UNL     1      -3.517   3.866  25.389  0.00  0.00    -0.273 OA
ATOM      2  C   UNL     1      -3.376   3.412  24.715  0.00  0.00    +0.241 C 
ATOM     22  N   UNL     1      -2.629   3.411  24.367  0.00  0.00    -0.207 NA
BRANCH  22  23
ATOM     23  C   UNL     1      -2.021   3.865  24.694  0.00  0.00    +0.095 C 
ATOM     24  C   UNL     1      -1.388   3.494  25.073  0.00  0.00    +0.022 C 
ATOM     25  C   UNL     1      -0.781   3.947  25.399  0.00  0.00    +0.002 C 
ATOM     26  C   UNL     1      -0.806   4.771  25.346  0.00  0.00    +0.000 C 
ATOM     27  C   UNL     1      -1.439   5.140  24.967  0.00  0.00    +0.002 C 
ATOM     28  C   UNL     1      -2.046   4.687  24.641  0.00  0.00    +0.022 C 
ENDBRANCH  22  23
ENDBRANCH   3   2
ENDBRANCH   4   3
BRANCH   9  10
ATOM     10  C   UNL     1      -4.395   1.361  24.427  0.00  0.00    +0.051 C 
BRANCH  10  11
ATOM     11  C   UNL     1      -4.243   0.607  24.724  0.00  0.00    +0.101 A 
ATOM     12  N   UNL     1      -4.134   0.410  25.517  0.00  0.00    -0.081 NA
ATOM     13  O   UNL     1      -3.997  -0.403  25.562  0.00  0.00    -0.354 OA
ATOM     14  C   UNL     1      -4.022  -0.708  24.796  0.00  0.00    +0.177 A 
ATOM     15  C   UNL     1      -4.174  -0.085  24.278  0.00  0.00    +0.058 A 
BRANCH  14  16
ATOM     16  C   UNL     1      -3.913  -1.498  24.586  0.00  0.00    +0.037 A 
ATOM     17  C   UNL     1      -3.451  -1.992  25.059  0.00  0.00    +0.003 A 
ATOM     18  C   UNL     1      -3.343  -2.782  24.849  0.00  0.00    +0.000 A 
ATOM     19  C   UNL     1      -3.696  -3.079  24.165  0.00  0.00    +0.000 A 
ATOM     20  C   UNL     1      -4.158  -2.585  23.692  0.00  0.00    +0.000 A 
ATOM     21  C   UNL     1      -4.267  -1.795  23.902  0.00  0.00    +0.003 A 
ENDBRANCH  14  16
ENDBRANCH  10  11
ENDBRANCH   9  10
TORSDOF 6
ENDMDL
MODEL 4
REMARK VINA RESULT:     -12.3      0.679      5.261
REMARK  Name = 
REMARK  6 active torsions:
REMARK  status: ('A' for Active; 'I' for Inactive)
REMARK    1  A    between atoms: C_2  and  C_3
REMARK    2  A    between atoms: C_3  and  C_4
REMARK    3  A    between atoms: C_9  and  C_10
REMARK    4  A    between atoms: C_10  and  C_11
REMARK    5  A    between atoms: C_14  and  C_16
REMARK    6  A    between atoms: N_22  and  C_23
REMARK                            x       y       z     vdW  Elec       q    Type
REMARK                         _______ _______ _______ _____ _____    ______ ____
ROOT
ATOM      4  C   UNL     1      -0.414   1.169  24.766  0.00  0.00    +0.012 C 
ATOM      5  C   UNL     1       0.061   1.526  24.192  0.00  0.00    +0.019 C 
ATOM      6  C   UNL     1       0.441   1.062  23.626  0.00  0.00    +0.089 C 
ATOM      7  N   UNL     1       0.346   0.244  23.632  0.00  0.00    -0.218 NA
ATOM      8  C   UNL     1      -0.129  -0.113  24.204  0.00  0.00    +0.089 C 
ATOM      9  C   UNL     1      -0.510   0.351  24.771  0.00  0.00    +0.024 C 
ENDROOT
BRANCH   4   3
ATOM      3  C   UNL     1      -0.794   1.633  25.332  0.00  0.00    +0.087 C 
BRANCH   3   2
ATOM      1  O   UNL     1      -1.401   2.541  24.412  0.00  0.00    -0.273 OA
ATOM      2  C   UNL     1      -1.045   2.395  25.141  0.00  0.00    +0.241 C 
ATOM     22  N   UNL     1      -0.941   3.011  25.679  0.00  0.00    -0.207 NA
BRANCH  22  23
ATOM     23  C   UNL     1      -1.192   3.774  25.488  0.00  0.00    +0.095 C 
ATOM     24  C   UNL     1      -1.965   4.008  25.659  0.00  0.00    +0.022 C 
ATOM     25  C   UNL     1      -2.216   4.770  25.468  0.00  0.00    +0.002 C 
ATOM     26  C   UNL     1      -1.695   5.298  25.106  0.00  0.00    +0.000 C 
ATOM     27  C   UNL     1      -0.923   5.063  24.936  0.00  0.00    +0.002 C 
ATOM     28  C   UNL     1      -0.671   4.301  25.127  0.00  0.00    +0.022 C 
ENDBRANCH  22  23
ENDBRANCH   3   2
ENDBRANCH   4   3
BRANCH   9  10
ATOM     10  C   UNL     1      -0.985  -0.006  25.344  0.00  0.00    +0.051 C 
BRANCH  10  11
ATOM     11  C   UNL     1      -1.386  -0.705  25.170  0.00  0.00    +0.101 A 
ATOM     12  N   UNL     1      -1.093  -1.470  25.269  0.00  0.00    -0.081 NA
ATOM     13  O   UNL     1      -1.677  -2.000  25.027  0.00  0.00    -0.354 OA
ATOM     14  C   UNL     1      -2.331  -1.563  24.778  0.00  0.00    +0.177 A 
ATOM     15  C   UNL     1      -2.151  -0.763  24.866  0.00  0.00    +0.058 A 
BRANCH  14  16
ATOM     16  C   UNL     1      -3.040  -1.872  24.491  0.00  0.00    +0.037 A 
ATOM     17  C   UNL     1      -3.629  -1.364  24.214  0.00  0.00    +0.003 A 
ATOM     18  C   UNL     1      -4.338  -1.673  23.927  0.00  0.00    +0.000 A 
ATOM     19  C   UNL     1      -4.459  -2.488  23.917  0.00  0.00    +0.000 A 
ATOM     20  C   UNL     1      -3.870  -2.996  24.194  0.00  0.00    +0.000 A 
ATOM     21  C   UNL     1      -3.161  -2.688  24.481  0.00  0.00    +0.003 A 
ENDBRANCH  14  16
ENDBRANCH  10  11
ENDBRANCH   9  10
TORSDOF 6
ENDMDL
