REMARK  Name = 
REMARK  6 active torsions:
REMARK  status: ('A' for Active; 'I' for Inactive)
REMARK    1  A    between atoms: N_2  and  C_3
REMARK    2  A    between atoms: N_2  and  C_11
REMARK    3  A    between atoms: C_3  and  C_4
REMARK    4  A    between atoms: C_4  and  C_5
REMARK    5  A    between atoms: C_24  and  C_25
REMARK    6  A    between atoms: C_25  and  C_26
REMARK                            x       y       z     vdW  Elec       q    Type
REMARK                         _______ _______ _______ _____ _____    ______ ____
ROOT
ATOM     11  C   UNL     1      -0.821  -0.980   0.000  0.00  0.00    +0.048 A 
ATOM     12  C   UNL     1      -0.595  -0.187   0.000  0.00  0.00    +0.018 A 
ATOM     13  C   UNL     1       0.205   0.015   0.000  0.00  0.00    +0.038 A 
ATOM     14  C   UNL     1       0.779  -0.577   0.000  0.00  0.00    +0.136 A 
ATOM     15  O   UNL     1       0.448   0.179   0.000  0.00  0.00    -0.471 OA
ATOM     16  C   UNL     1       1.065   0.727   0.000  0.00  0.00    +0.231 C 
ATOM     17  C   UNL     1       1.777   0.310   0.000  0.00  0.00    +0.016 C 
ATOM     18  C   UNL     1       2.668   0.454   0.000  0.00  0.00    -0.026 C 
ATOM     19  C   UNL     1       3.216  -0.162   0.000  0.00  0.00    +0.042 C 
ATOM     20  C   UNL     1       2.957  -0.945   0.000  0.00  0.00    +0.098 C 
ATOM     21  N   UNL     1       3.505  -1.562   0.000  0.00  0.00    -0.278 N 
ATOM     22  C   UNL     1       4.313  -1.395   0.000  0.00  0.00    +0.093 C 
ATOM     23  C   UNL     1       4.573  -0.612   0.000  0.00  0.00    +0.022 C 
ATOM     24  C   UNL     1       4.024   0.004   0.000  0.00  0.00    +0.016 C 
ATOM     34  C   UNL     1       3.245  -2.345   0.000  0.00  0.00    +0.243 C 
ATOM     35  O   UNL     1       3.794  -2.961   0.000  0.00  0.00    -0.273 OA
ATOM     36  C   UNL     1       2.437  -2.512   0.000  0.00  0.00    +0.174 C 
ATOM     37  N   UNL     1       1.889  -1.895   0.000  0.00  0.00    -0.204 NA
ATOM     38  C   UNL     1       1.081  -2.062   0.000  0.00  0.00    +0.119 C 
ATOM     39  C   UNL     1       0.554  -1.371   0.000  0.00  0.00    +0.030 A 
ATOM     40  C   UNL     1      -0.246  -1.572   0.000  0.00  0.00    +0.015 A 
ENDROOT
BRANCH  11   2
ATOM      1  C   UNL     1      -2.195  -0.590   0.000  0.00  0.00    +0.112 C 
ATOM      2  N   UNL     1      -1.621  -1.182   0.000  0.00  0.00    -0.305 N 
BRANCH   2   3
ATOM      3  C   UNL     1      -1.846  -1.976   0.000  0.00  0.00    +0.097 C 
BRANCH   3   4
ATOM      4  C   UNL     1      -2.646  -2.177   0.000  0.00  0.00    +0.067 C 
BRANCH   4   5
ATOM      5  C   UNL     1      -2.871  -2.971   0.000  0.00  0.00    +0.061 A 
ATOM      6  N   UNL     1      -2.297  -3.563   0.000  0.00  0.00    -0.248 NA
ATOM      7  C   UNL     1      -2.522  -4.356   0.000  0.00  0.00    +0.098 A 
ATOM      8  C   UNL     1      -3.322  -4.558   0.000  0.00  0.00    +0.021 A 
ATOM      9  C   UNL     1      -3.897  -3.966   0.000  0.00  0.00    +0.003 A 
ATOM     10  C   UNL     1      -3.671  -3.172   0.000  0.00  0.00    +0.015 A 
ENDBRANCH   4   5
ENDBRANCH   3   4
ENDBRANCH   2   3
ENDBRANCH  11   2
BRANCH  24  25
ATOM     25  C   UNL     1       4.284   0.787   0.000  0.00  0.00    +0.086 C 
BRANCH  25  26
ATOM     26  C   UNL     1       3.736   1.404   0.000  0.00  0.00    +0.226 C 
ATOM     27  O   UNL     1       2.928   1.237   0.000  0.00  0.00    -0.275 OA
ATOM     28  N   UNL     1       3.995   2.187   0.000  0.00  0.00    -0.274 N 
ATOM     29  C   UNL     1       3.447   2.803   0.000  0.00  0.00    +0.125 C 
ATOM     30  C   UNL     1       3.706   3.586   0.000  0.00  0.00    +0.164 C 
ATOM     31  O   UNL     1       4.514   3.753   0.000  0.00  0.00    -0.350 OA
ATOM     32  C   UNL     1       5.063   3.137   0.000  0.00  0.00    +0.164 C 
ATOM     33  C   UNL     1       4.803   2.354   0.000  0.00  0.00    +0.125 C 
ENDBRANCH  25  26
ENDBRANCH  24  25
TORSDOF 6
