MODEL 1
REMARK VINA RESULT:     -10.8      0.000      0.000
REMARK  Name = 
REMARK  8 active torsions:
REMARK  status: ('A' for Active; 'I' for Inactive)
REMARK    1  A    between atoms: O_2  and  C_3
REMARK    2  A    between atoms: C_7  and  N_8
REMARK    3  A    between atoms: C_9  and  O_11
REMARK    4  A    between atoms: O_11  and  C_12
REMARK    5  A    between atoms: C_16  and  N_20
REMARK    6  A    between atoms: C_24  and  S_25
REMARK    7  A    between atoms: S_25  and  C_26
REMARK    8  A    between atoms: C_26  and  C_27
REMARK                            x       y       z     vdW  Elec       q    Type
REMARK                         _______ _______ _______ _____ _____    ______ ____
ROOT
ATOM     12  C   UNL     1      -0.480   1.077  24.817  0.00  0.00    +0.229 C 
ATOM     13  C   UNL     1      -0.540   1.388  24.055  0.00  0.00    +0.188 C 
ATOM     14  O   UNL     1      -0.706   2.193  24.121  0.00  0.00    -0.348 OA
ATOM     15  C   UNL     1      -0.749   2.380  24.922  0.00  0.00    +0.171 C 
ATOM     16  C   UNL     1      -0.878   2.993  25.460  0.00  0.00    +0.168 C 
ATOM     17  C   UNL     1      -0.818   2.683  26.221  0.00  0.00    +0.169 C 
ATOM     18  O   UNL     1      -0.652   1.878  26.155  0.00  0.00    -0.348 OA
ATOM     19  C   UNL     1      -0.609   1.690  25.353  0.00  0.00    +0.187 C 
ENDROOT
BRANCH  16  20
ATOM     20  N   UNL     1      -1.039   3.779  25.268  0.00  0.00    -0.205 N 
ATOM     21  N   UNL     1      -0.483   4.349  25.048  0.00  0.00    -0.042 NA
ATOM     22  N   UNL     1      -0.885   5.055  24.907  0.00  0.00    -0.022 NA
ATOM     23  N   UNL     1      -1.688   4.923  25.038  0.00  0.00    -0.101 NA
ATOM     24  C   UNL     1      -1.783   4.134  25.261  0.00  0.00    +0.211 A 
BRANCH  24  25
ATOM     25  S   UNL     1      -2.498   3.765  25.446  0.00  0.00    -0.066 S 
BRANCH  25  26
ATOM     26  C   UNL     1      -3.212   4.120  25.232  0.00  0.00    +0.129 C 
BRANCH  26  27
ATOM     27  C   UNL     1      -3.919   3.703  25.314  0.00  0.00    +0.134 A 
ATOM     28  C   UNL     1      -4.323   3.310  24.711  0.00  0.00    +0.037 A 
ATOM     29  C   UNL     1      -5.000   2.970  25.038  0.00  0.00    +0.043 A 
ATOM     30  C   UNL     1      -5.016   3.153  25.842  0.00  0.00    +0.179 A 
ATOM     31  O   UNL     1      -4.347   3.606  26.013  0.00  0.00    -0.454 OA
ENDBRANCH  26  27
ENDBRANCH  25  26
ENDBRANCH  24  25
ENDBRANCH  16  20
BRANCH  12  11
ATOM     11  O   UNL     1      -0.319   0.291  25.009  0.00  0.00    -0.432 OA
BRANCH  11   9
ATOM      8  N   UNL     1      -1.247  -0.764  25.268  0.00  0.00    -0.142 NA
ATOM      9  C   UNL     1      -0.812  -0.311  24.734  0.00  0.00    +0.425 C 
ATOM     10  O   UNL     1      -0.871  -0.457  23.924  0.00  0.00    -0.224 OA
BRANCH   8   7
ATOM      3  C   UNL     1      -3.050  -1.855  24.698  0.00  0.00    +0.140 A 
ATOM      4  C   UNL     1      -2.726  -2.569  24.443  0.00  0.00    +0.037 A 
ATOM      5  C   UNL     1      -1.909  -2.682  24.462  0.00  0.00    +0.004 A 
ATOM      6  C   UNL     1      -1.416  -2.080  24.737  0.00  0.00    +0.017 A 
ATOM      7  C   UNL     1      -1.740  -1.366  24.993  0.00  0.00    +0.080 A 
ATOM     32  C   UNL     1      -2.557  -1.253  24.973  0.00  0.00    +0.054 A 
BRANCH   3   2
ATOM      1  C   UNL     1      -4.265  -1.728  23.956  0.00  0.00    +0.252 C 
ATOM      2  O   UNL     1      -3.867  -1.742  24.679  0.00  0.00    -0.471 OA
ENDBRANCH   3   2
ENDBRANCH   8   7
ENDBRANCH  11   9
ENDBRANCH  12  11
TORSDOF 8
ENDMDL
MODEL 2
REMARK VINA RESULT:     -10.0      1.869      3.375
REMARK  Name = 
REMARK  8 active torsions:
REMARK  status: ('A' for Active; 'I' for Inactive)
REMARK    1  A    between atoms: O_2  and  C_3
REMARK    2  A    between atoms: C_7  and  N_8
REMARK    3  A    between atoms: C_9  and  O_11
REMARK    4  A    between atoms: O_11  and  C_12
REMARK    5  A    between atoms: C_16  and  N_20
REMARK    6  A    between atoms: C_24  and  S_25
REMARK    7  A    between atoms: S_25  and  C_26
REMARK    8  A    between atoms: C_26  and  C_27
REMARK                            x       y       z     vdW  Elec       q    Type
REMARK                         _______ _______ _______ _____ _____    ______ ____
ROOT
ATOM     12  C   UNL     1      -4.600   0.390  24.729  0.00  0.00    +0.229 C 
ATOM     13  C   UNL     1      -4.907   0.436  25.493  0.00  0.00    +0.188 C 
ATOM     14  O   UNL     1      -4.984   1.234  25.688  0.00  0.00    -0.348 OA
ATOM     15  C   UNL     1      -4.725   1.681  25.046  0.00  0.00    +0.171 C 
ATOM     16  C   UNL     1      -4.612   2.449  24.769  0.00  0.00    +0.168 C 
ATOM     17  C   UNL     1      -4.305   2.404  24.005  0.00  0.00    +0.169 C 
ATOM     18  O   UNL     1      -4.228   1.606  23.809  0.00  0.00    -0.348 OA
ATOM     19  C   UNL     1      -4.488   1.159  24.453  0.00  0.00    +0.187 C 
ENDROOT
BRANCH  16  20
ATOM     20  N   UNL     1      -4.777   3.143  25.184  0.00  0.00    -0.205 N 
ATOM     21  N   UNL     1      -5.524   3.398  25.426  0.00  0.00    -0.042 NA
ATOM     22  N   UNL     1      -5.432   4.116  25.822  0.00  0.00    -0.022 NA
ATOM     23  N   UNL     1      -4.630   4.305  25.825  0.00  0.00    -0.101 NA
ATOM     24  C   UNL     1      -4.225   3.704  25.431  0.00  0.00    +0.211 A 
BRANCH  24  25
ATOM     25  S   UNL     1      -3.409   3.670  25.306  0.00  0.00    -0.066 S 
BRANCH  25  26
ATOM     26  C   UNL     1      -2.909   4.197  25.697  0.00  0.00    +0.129 C 
BRANCH  26  27
ATOM     27  C   UNL     1      -2.106   4.218  25.511  0.00  0.00    +0.134 A 
ATOM     28  C   UNL     1      -1.708   4.847  25.155  0.00  0.00    +0.037 A 
ATOM     29  C   UNL     1      -0.916   4.632  25.072  0.00  0.00    +0.043 A 
ATOM     30  C   UNL     1      -0.824   3.871  25.376  0.00  0.00    +0.179 A 
ATOM     31  O   UNL     1      -1.560   3.615  25.648  0.00  0.00    -0.454 OA
ENDBRANCH  26  27
ENDBRANCH  25  26
ENDBRANCH  24  25
ENDBRANCH  16  20
BRANCH  12  11
ATOM     11  O   UNL     1      -4.435  -0.303  24.313  0.00  0.00    -0.432 OA
BRANCH  11   9
ATOM      8  N   UNL     1      -3.234  -1.038  24.069  0.00  0.00    -0.142 NA
ATOM      9  C   UNL     1      -3.842  -0.812  24.578  0.00  0.00    +0.425 C 
ATOM     10  O   UNL     1      -3.857  -1.094  25.354  0.00  0.00    -0.224 OA
BRANCH   8   7
ATOM      3  C   UNL     1      -1.319  -1.750  24.839  0.00  0.00    +0.140 A 
ATOM      4  C   UNL     1      -1.454  -2.563  24.863  0.00  0.00    +0.037 A 
ATOM      5  C   UNL     1      -2.182  -2.869  24.622  0.00  0.00    +0.004 A 
ATOM      6  C   UNL     1      -2.775  -2.360  24.357  0.00  0.00    +0.017 A 
ATOM      7  C   UNL     1      -2.640  -1.546  24.333  0.00  0.00    +0.080 A 
ATOM     32  C   UNL     1      -1.913  -1.242  24.574  0.00  0.00    +0.054 A 
BRANCH   3   2
ATOM      1  C   UNL     1      -0.140  -0.994  24.557  0.00  0.00    +0.252 C 
ATOM      2  O   UNL     1      -0.592  -1.445  25.079  0.00  0.00    -0.471 OA
ENDBRANCH   3   2
ENDBRANCH   8   7
ENDBRANCH  11   9
ENDBRANCH  12  11
TORSDOF 8
ENDMDL
MODEL 3
REMARK VINA RESULT:     -10.0      1.694      4.695
REMARK  Name = 
REMARK  8 active torsions:
REMARK  status: ('A' for Active; 'I' for Inactive)
REMARK    1  A    between atoms: O_2  and  C_3
REMARK    2  A    between atoms: C_7  and  N_8
REMARK    3  A    between atoms: C_9  and  O_11
REMARK    4  A    between atoms: O_11  and  C_12
REMARK    5  A    between atoms: C_16  and  N_20
REMARK    6  A    between atoms: C_24  and  S_25
REMARK    7  A    between atoms: S_25  and  C_26
REMARK    8  A    between atoms: C_26  and  C_27
REMARK                            x       y       z     vdW  Elec       q    Type
REMARK                         _______ _______ _______ _____ _____    ______ ____
ROOT
ATOM     12  C   UNL     1      -1.853   2.588  24.341  0.00  0.00    +0.229 C 
ATOM     13  C   UNL     1      -1.913   2.374  23.547  0.00  0.00    +0.188 C 
ATOM     14  O   UNL     1      -1.461   1.694  23.432  0.00  0.00    -0.348 OA
ATOM     15  C   UNL     1      -1.122   1.487  24.154  0.00  0.00    +0.171 C 
ATOM     16  C   UNL     1      -0.633   0.940  24.531  0.00  0.00    +0.168 C 
ATOM     17  C   UNL     1      -0.574   1.153  25.325  0.00  0.00    +0.169 C 
ATOM     18  O   UNL     1      -1.026   1.834  25.440  0.00  0.00    -0.348 OA
ATOM     19  C   UNL     1      -1.365   2.040  24.716  0.00  0.00    +0.187 C 
ENDROOT
BRANCH  16  20
ATOM     20  N   UNL     1      -0.268   0.291  24.174  0.00  0.00    -0.205 N 
ATOM     21  N   UNL     1       0.405   0.315  23.697  0.00  0.00    -0.042 NA
ATOM     22  N   UNL     1       0.577  -0.456  23.461  0.00  0.00    -0.022 NA
ATOM     23  N   UNL     1       0.012  -0.956  23.792  0.00  0.00    -0.101 NA
ATOM     24  C   UNL     1      -0.511  -0.495  24.233  0.00  0.00    +0.211 A 
BRANCH  24  25
ATOM     25  S   UNL     1      -1.162  -0.771  24.658  0.00  0.00    -0.066 S 
BRANCH  25  26
ATOM     26  C   UNL     1      -1.385  -1.564  24.603  0.00  0.00    +0.129 C 
BRANCH  26  27
ATOM     27  C   UNL     1      -2.146  -1.794  24.821  0.00  0.00    +0.134 A 
ATOM     28  C   UNL     1      -2.607  -2.365  24.444  0.00  0.00    +0.037 A 
ATOM     29  C   UNL     1      -3.326  -2.417  24.845  0.00  0.00    +0.043 A 
ATOM     30  C   UNL     1      -3.310  -1.880  25.470  0.00  0.00    +0.179 A 
ATOM     31  O   UNL     1      -2.580  -1.494  25.456  0.00  0.00    -0.454 OA
ENDBRANCH  26  27
ENDBRANCH  25  26
ENDBRANCH  24  25
ENDBRANCH  16  20
BRANCH  12  11
ATOM     11  O   UNL     1      -2.219   3.237  24.697  0.00  0.00    -0.432 OA
BRANCH  11   9
ATOM      8  N   UNL     1      -3.426   3.244  25.461  0.00  0.00    -0.142 NA
ATOM      9  C   UNL     1      -3.042   3.279  24.733  0.00  0.00    +0.425 C 
ATOM     10  O   UNL     1      -3.481   3.355  24.037  0.00  0.00    -0.224 OA
BRANCH   8   7
ATOM      3  C   UNL     1      -5.518   2.639  25.613  0.00  0.00    +0.140 A 
ATOM      4  C   UNL     1      -5.896   3.371  25.567  0.00  0.00    +0.037 A 
ATOM      5  C   UNL     1      -5.450   4.061  25.486  0.00  0.00    +0.004 A 
ATOM      6  C   UNL     1      -4.627   4.018  25.451  0.00  0.00    +0.017 A 
ATOM      7  C   UNL     1      -4.250   3.286  25.497  0.00  0.00    +0.080 A 
ATOM     32  C   UNL     1      -4.695   2.597  25.578  0.00  0.00    +0.054 A 
BRANCH   3   2
ATOM      1  C   UNL     1      -6.334   1.617  25.036  0.00  0.00    +0.252 C 
ATOM      2  O   UNL     1      -5.964   1.950  25.694  0.00  0.00    -0.471 OA
ENDBRANCH   3   2
ENDBRANCH   8   7
ENDBRANCH  11   9
ENDBRANCH  12  11
TORSDOF 8
ENDMDL
MODEL 4
REMARK VINA RESULT:      -9.7      1.563      3.281
REMARK  Name = 
REMARK  8 active torsions:
REMARK  status: ('A' for Active; 'I' for Inactive)
REMARK    1  A    between atoms: O_2  and  C_3
REMARK    2  A    between atoms: C_7  and  N_8
REMARK    3  A    between atoms: C_9  and  O_11
REMARK    4  A    between atoms: O_11  and  C_12
REMARK    5  A    between atoms: C_16  and  N_20
REMARK    6  A    between atoms: C_24  and  S_25
REMARK    7  A    between atoms: S_25  and  C_26
REMARK    8  A    between atoms: C_26  and  C_27
REMARK                            x       y       z     vdW  Elec       q    Type
REMARK                         _______ _______ _______ _____ _____    ______ ____
ROOT
ATOM     12  C   UNL     1      -4.557   0.877  24.617  0.00  0.00    +0.229 C 
ATOM     13  C   UNL     1      -4.778   1.034  25.396  0.00  0.00    +0.188 C 
ATOM     14  O   UNL     1      -4.529   1.798  25.582  0.00  0.00    -0.348 OA
ATOM     15  C   UNL     1      -4.154   2.113  24.919  0.00  0.00    +0.171 C 
ATOM     16  C   UNL     1      -3.768   2.780  24.623  0.00  0.00    +0.168 C 
ATOM     17  C   UNL     1      -3.547   2.623  23.844  0.00  0.00    +0.169 C 
ATOM     18  O   UNL     1      -3.796   1.859  23.658  0.00  0.00    -0.348 OA
ATOM     19  C   UNL     1      -4.171   1.544  24.322  0.00  0.00    +0.187 C 
ENDROOT
BRANCH  16  20
ATOM     20  N   UNL     1      -3.628   3.481  25.035  0.00  0.00    -0.205 N 
ATOM     21  N   UNL     1      -4.198   4.036  25.257  0.00  0.00    -0.042 NA
ATOM     22  N   UNL     1      -3.816   4.648  25.656  0.00  0.00    -0.022 NA
ATOM     23  N   UNL     1      -3.010   4.472  25.680  0.00  0.00    -0.101 NA
ATOM     24  C   UNL     1      -2.895   3.751  25.297  0.00  0.00    +0.211 A 
BRANCH  24  25
ATOM     25  S   UNL     1      -2.171   3.368  25.193  0.00  0.00    -0.066 S 
BRANCH  25  26
ATOM     26  C   UNL     1      -1.514   3.599  25.636  0.00  0.00    +0.129 C 
BRANCH  26  27
ATOM     27  C   UNL     1      -0.833   3.134  25.637  0.00  0.00    +0.134 A 
ATOM     28  C   UNL     1      -0.506   2.754  26.292  0.00  0.00    +0.037 A 
ATOM     29  C   UNL     1       0.170   2.352  26.042  0.00  0.00    +0.043 A 
ATOM     30  C   UNL     1       0.261   2.483  25.233  0.00  0.00    +0.179 A 
ATOM     31  O   UNL     1      -0.359   2.967  24.982  0.00  0.00    -0.454 OA
ENDBRANCH  26  27
ENDBRANCH  25  26
ENDBRANCH  24  25
ENDBRANCH  16  20
BRANCH  12  11
ATOM     11  O   UNL     1      -4.697   0.176  24.205  0.00  0.00    -0.432 OA
BRANCH  11   9
ATOM      8  N   UNL     1      -3.930  -0.984  23.876  0.00  0.00    -0.142 NA
ATOM      9  C   UNL     1      -4.319  -0.521  24.436  0.00  0.00    +0.425 C 
ATOM     10  O   UNL     1      -4.332  -0.753  25.228  0.00  0.00    -0.224 OA
BRANCH   8   7
ATOM      3  C   UNL     1      -2.356  -2.393  24.427  0.00  0.00    +0.140 A 
ATOM      4  C   UNL     1      -2.799  -3.074  24.568  0.00  0.00    +0.037 A 
ATOM      5  C   UNL     1      -3.619  -3.059  24.478  0.00  0.00    +0.004 A 
ATOM      6  C   UNL     1      -3.996  -2.362  24.248  0.00  0.00    +0.017 A 
ATOM      7  C   UNL     1      -3.553  -1.681  24.107  0.00  0.00    +0.080 A 
ATOM     32  C   UNL     1      -2.733  -1.696  24.196  0.00  0.00    +0.054 A 
BRANCH   3   2
ATOM      1  C   UNL     1      -1.175  -1.945  25.095  0.00  0.00    +0.252 C 
ATOM      2  O   UNL     1      -1.536  -2.408  24.516  0.00  0.00    -0.471 OA
ENDBRANCH   3   2
ENDBRANCH   8   7
ENDBRANCH  11   9
ENDBRANCH  12  11
TORSDOF 8
ENDMDL
MODEL 5
REMARK VINA RESULT:      -9.6      2.121      5.697
REMARK  Name = 
REMARK  8 active torsions:
REMARK  status: ('A' for Active; 'I' for Inactive)
REMARK    1  A    between atoms: O_2  and  C_3
REMARK    2  A    between atoms: C_7  and  N_8
REMARK    3  A    between atoms: C_9  and  O_11
REMARK    4  A    between atoms: O_11  and  C_12
REMARK    5  A    between atoms: C_16  and  N_20
REMARK    6  A    between atoms: C_24  and  S_25
REMARK    7  A    between atoms: S_25  and  C_26
REMARK    8  A    between atoms: C_26  and  C_27
REMARK                            x       y       z     vdW  Elec       q    Type
REMARK                         _______ _______ _______ _____ _____    ______ ____
ROOT
ATOM     12  C   UNL     1      -3.886   1.521  24.313  0.00  0.00    +0.229 C 
ATOM     13  C   UNL     1      -3.680   1.319  23.541  0.00  0.00    +0.188 C 
ATOM     14  O   UNL     1      -3.719   0.498  23.474  0.00  0.00    -0.348 OA
ATOM     15  C   UNL     1      -3.948   0.193  24.205  0.00  0.00    +0.171 C 
ATOM     16  C   UNL     1      -4.114  -0.503  24.616  0.00  0.00    +0.168 C 
ATOM     17  C   UNL     1      -4.319  -0.300  25.389  0.00  0.00    +0.169 C 
ATOM     18  O   UNL     1      -4.281   0.521  25.455  0.00  0.00    -0.348 OA
ATOM     19  C   UNL     1      -4.051   0.826  24.723  0.00  0.00    +0.187 C 
ENDROOT
BRANCH  16  20
ATOM     20  N   UNL     1      -4.079  -1.268  24.308  0.00  0.00    -0.205 N 
ATOM     21  N   UNL     1      -4.672  -1.643  23.873  0.00  0.00    -0.042 NA
ATOM     22  N   UNL     1      -4.405  -2.398  23.677  0.00  0.00    -0.022 NA
ATOM     23  N   UNL     1      -3.649  -2.490  23.991  0.00  0.00    -0.101 NA
ATOM     24  C   UNL     1      -3.447  -1.792  24.381  0.00  0.00    +0.211 A 
BRANCH  24  25
ATOM     25  S   UNL     1      -2.737  -1.644  24.775  0.00  0.00    -0.066 S 
BRANCH  25  26
ATOM     26  C   UNL     1      -2.069  -2.099  24.608  0.00  0.00    +0.129 C 
BRANCH  26  27
ATOM     27  C   UNL     1      -1.317  -1.797  24.757  0.00  0.00    +0.134 A 
ATOM     28  C   UNL     1      -0.891  -1.880  25.459  0.00  0.00    +0.037 A 
ATOM     29  C   UNL     1      -0.169  -1.493  25.365  0.00  0.00    +0.043 A 
ATOM     30  C   UNL     1      -0.147  -1.171  24.607  0.00  0.00    +0.179 A 
ATOM     31  O   UNL     1      -0.857  -1.360  24.230  0.00  0.00    -0.454 OA
ENDBRANCH  26  27
ENDBRANCH  25  26
ENDBRANCH  24  25
ENDBRANCH  16  20
BRANCH  12  11
ATOM     11  O   UNL     1      -3.920   2.286  24.621  0.00  0.00    -0.432 OA
BRANCH  11   9
ATOM      8  N   UNL     1      -2.912   3.029  25.310  0.00  0.00    -0.142 NA
ATOM      9  C   UNL     1      -3.251   2.768  24.605  0.00  0.00    +0.425 C 
ATOM     10  O   UNL     1      -2.921   2.990  23.881  0.00  0.00    -0.224 OA
BRANCH   8   7
ATOM      3  C   UNL     1      -0.823   3.660  25.357  0.00  0.00    +0.140 A 
ATOM      4  C   UNL     1      -0.905   4.476  25.261  0.00  0.00    +0.037 A 
ATOM      5  C   UNL     1      -1.656   4.809  25.181  0.00  0.00    +0.004 A 
ATOM      6  C   UNL     1      -2.324   4.326  25.197  0.00  0.00    +0.017 A 
ATOM      7  C   UNL     1      -2.243   3.511  25.294  0.00  0.00    +0.080 A 
ATOM     32  C   UNL     1      -1.492   3.178  25.374  0.00  0.00    +0.054 A 
BRANCH   3   2
ATOM      1  C   UNL     1       0.054   2.721  25.982  0.00  0.00    +0.252 C 
ATOM      2  O   UNL     1      -0.073   3.328  25.437  0.00  0.00    -0.471 OA
ENDBRANCH   3   2
ENDBRANCH   8   7
ENDBRANCH  11   9
ENDBRANCH  12  11
TORSDOF 8
ENDMDL
MODEL 6
REMARK VINA RESULT:      -9.5      1.524      4.796
REMARK  Name = 
REMARK  8 active torsions:
REMARK  status: ('A' for Active; 'I' for Inactive)
REMARK    1  A    between atoms: O_2  and  C_3
REMARK    2  A    between atoms: C_7  and  N_8
REMARK    3  A    between atoms: C_9  and  O_11
REMARK    4  A    between atoms: O_11  and  C_12
REMARK    5  A    between atoms: C_16  and  N_20
REMARK    6  A    between atoms: C_24  and  S_25
REMARK    7  A    between atoms: S_25  and  C_26
REMARK    8  A    between atoms: C_26  and  C_27
REMARK                            x       y       z     vdW  Elec       q    Type
REMARK                         _______ _______ _______ _____ _____    ______ ____
ROOT
ATOM     12  C   UNL     1      -0.266   1.054  24.516  0.00  0.00    +0.229 C 
ATOM     13  C   UNL     1      -0.410   0.828  23.736  0.00  0.00    +0.188 C 
ATOM     14  O   UNL     1      -0.782   0.092  23.749  0.00  0.00    -0.348 OA
ATOM     15  C   UNL     1      -0.868  -0.137  24.536  0.00  0.00    +0.171 C 
ATOM     16  C   UNL     1      -1.151  -0.732  25.032  0.00  0.00    +0.168 C 
ATOM     17  C   UNL     1      -1.007  -0.506  25.812  0.00  0.00    +0.169 C 
ATOM     18  O   UNL     1      -0.635   0.230  25.799  0.00  0.00    -0.348 OA
ATOM     19  C   UNL     1      -0.549   0.458  25.010  0.00  0.00    +0.187 C 
ENDROOT
BRANCH  16  20
ATOM     20  N   UNL     1      -1.514  -1.433  24.789  0.00  0.00    -0.205 N 
ATOM     21  N   UNL     1      -1.134  -2.091  24.468  0.00  0.00    -0.042 NA
ATOM     22  N   UNL     1      -1.707  -2.662  24.305  0.00  0.00    -0.022 NA
ATOM     23  N   UNL     1      -2.440  -2.357  24.526  0.00  0.00    -0.101 NA
ATOM     24  C   UNL     1      -2.321  -1.597  24.825  0.00  0.00    +0.211 A 
BRANCH  24  25
ATOM     25  S   UNL     1      -2.908  -1.091  25.109  0.00  0.00    -0.066 S 
BRANCH  25  26
ATOM     26  C   UNL     1      -3.667  -1.116  24.786  0.00  0.00    +0.129 C 
BRANCH  26  27
ATOM     27  C   UNL     1      -4.164  -0.461  24.852  0.00  0.00    +0.134 A 
ATOM     28  C   UNL     1      -4.510  -0.050  24.225  0.00  0.00    +0.037 A 
ATOM     29  C   UNL     1      -4.962   0.563  24.542  0.00  0.00    +0.043 A 
ATOM     30  C   UNL     1      -4.896   0.532  25.363  0.00  0.00    +0.179 A 
ATOM     31  O   UNL     1      -4.403  -0.102  25.555  0.00  0.00    -0.454 OA
ENDBRANCH  26  27
ENDBRANCH  25  26
ENDBRANCH  24  25
ENDBRANCH  16  20
BRANCH  12  11
ATOM     11  O   UNL     1       0.097   1.754  24.759  0.00  0.00    -0.432 OA
BRANCH  11   9
ATOM      8  N   UNL     1      -0.430   2.930  25.376  0.00  0.00    -0.142 NA
ATOM      9  C   UNL     1      -0.308   2.471  24.702  0.00  0.00    +0.425 C 
ATOM     10  O   UNL     1      -0.590   2.728  23.970  0.00  0.00    -0.224 OA
BRANCH   8   7
ATOM      3  C   UNL     1      -1.993   4.439  25.589  0.00  0.00    +0.140 A 
ATOM      4  C   UNL     1      -1.644   5.081  25.205  0.00  0.00    +0.037 A 
ATOM      5  C   UNL     1      -0.890   5.006  24.878  0.00  0.00    +0.004 A 
ATOM      6  C   UNL     1      -0.486   4.289  24.936  0.00  0.00    +0.017 A 
ATOM      7  C   UNL     1      -0.835   3.647  25.319  0.00  0.00    +0.080 A 
ATOM     32  C   UNL     1      -1.588   3.723  25.645  0.00  0.00    +0.054 A 
BRANCH   3   2
ATOM      1  C   UNL     1      -3.379   4.091  25.596  0.00  0.00    +0.252 C 
ATOM      2  O   UNL     1      -2.747   4.515  25.915  0.00  0.00    -0.471 OA
ENDBRANCH   3   2
ENDBRANCH   8   7
ENDBRANCH  11   9
ENDBRANCH  12  11
TORSDOF 8
ENDMDL
MODEL 7
REMARK VINA RESULT:      -8.7      2.210      5.549
REMARK  Name = 
REMARK  8 active torsions:
REMARK  status: ('A' for Active; 'I' for Inactive)
REMARK    1  A    between atoms: O_2  and  C_3
REMARK    2  A    between atoms: C_7  and  N_8
REMARK    3  A    between atoms: C_9  and  O_11
REMARK    4  A    between atoms: O_11  and  C_12
REMARK    5  A    between atoms: C_16  and  N_20
REMARK    6  A    between atoms: C_24  and  S_25
REMARK    7  A    between atoms: S_25  and  C_26
REMARK    8  A    between atoms: C_26  and  C_27
REMARK                            x       y       z     vdW  Elec       q    Type
REMARK                         _______ _______ _______ _____ _____    ______ ____
ROOT
ATOM     12  C   UNL     1      -4.533  -0.009  24.793  0.00  0.00    +0.229 C 
ATOM     13  C   UNL     1      -4.398  -0.118  23.987  0.00  0.00    +0.188 C 
ATOM     14  O   UNL     1      -3.790  -0.669  23.903  0.00  0.00    -0.348 OA
ATOM     15  C   UNL     1      -3.550  -0.900  24.657  0.00  0.00    +0.171 C 
ATOM     16  C   UNL     1      -3.025  -1.383  25.072  0.00  0.00    +0.168 C 
ATOM     17  C   UNL     1      -3.160  -1.274  25.878  0.00  0.00    +0.169 C 
ATOM     18  O   UNL     1      -3.768  -0.723  25.962  0.00  0.00    -0.348 OA
ATOM     19  C   UNL     1      -4.009  -0.492  25.207  0.00  0.00    +0.187 C 
ENDROOT
BRANCH  16  20
ATOM     20  N   UNL     1      -2.464  -1.888  24.739  0.00  0.00    -0.205 N 
ATOM     21  N   UNL     1      -2.600  -2.657  24.472  0.00  0.00    -0.042 NA
ATOM     22  N   UNL     1      -1.888  -2.956  24.181  0.00  0.00    -0.022 NA
ATOM     23  N   UNL     1      -1.313  -2.373  24.269  0.00  0.00    -0.101 NA
ATOM     24  C   UNL     1      -1.668  -1.713  24.613  0.00  0.00    +0.211 A 
BRANCH  24  25
ATOM     25  S   UNL     1      -1.293  -1.001  24.799  0.00  0.00    -0.066 S 
BRANCH  25  26
ATOM     26  C   UNL     1      -0.569  -0.813  24.449  0.00  0.00    +0.129 C 
BRANCH  26  27
ATOM     27  C   UNL     1      -0.324  -0.026  24.409  0.00  0.00    +0.134 A 
ATOM     28  C   UNL     1      -0.007   0.350  23.747  0.00  0.00    +0.037 A 
ATOM     29  C   UNL     1       0.160   1.131  23.953  0.00  0.00    +0.043 A 
ATOM     30  C   UNL     1      -0.053   1.238  24.742  0.00  0.00    +0.179 A 
ATOM     31  O   UNL     1      -0.353   0.523  25.025  0.00  0.00    -0.454 OA
ENDBRANCH  26  27
ENDBRANCH  25  26
ENDBRANCH  24  25
ENDBRANCH  16  20
BRANCH  12  11
ATOM     11  O   UNL     1      -5.095   0.496  25.127  0.00  0.00    -0.432 OA
BRANCH  11   9
ATOM      8  N   UNL     1      -4.907   1.803  25.674  0.00  0.00    -0.142 NA
ATOM      9  C   UNL     1      -5.030   1.312  25.023  0.00  0.00    +0.425 C 
ATOM     10  O   UNL     1      -5.089   1.637  24.266  0.00  0.00    -0.224 OA
BRANCH   8   7
ATOM      3  C   UNL     1      -4.035   3.781  25.371  0.00  0.00    +0.140 A 
ATOM      4  C   UNL     1      -4.714   4.250  25.362  0.00  0.00    +0.037 A 
ATOM      5  C   UNL     1      -5.457   3.904  25.456  0.00  0.00    +0.004 A 
ATOM      6  C   UNL     1      -5.520   3.088  25.560  0.00  0.00    +0.017 A 
ATOM      7  C   UNL     1      -4.842   2.619  25.570  0.00  0.00    +0.080 A 
ATOM     32  C   UNL     1      -4.100   2.965  25.475  0.00  0.00    +0.054 A 
BRANCH   3   2
ATOM      1  C   UNL     1      -2.772   4.170  25.915  0.00  0.00    +0.252 C 
ATOM      2  O   UNL     1      -3.293   4.128  25.277  0.00  0.00    -0.471 OA
ENDBRANCH   3   2
ENDBRANCH   8   7
ENDBRANCH  11   9
ENDBRANCH  12  11
TORSDOF 8
ENDMDL
