MODEL 1
REMARK VINA RESULT:     -13.8      0.000      0.000
REMARK  Name = 
REMARK  5 active torsions:
REMARK  status: ('A' for Active; 'I' for Inactive)
REMARK    1  A    between atoms: C_2  and  C_3
REMARK    2  A    between atoms: C_3  and  O_4
REMARK    3  A    between atoms: O_4  and  C_5
REMARK    4  A    between atoms: C_20  and  N_21
REMARK    5  A    between atoms: C_22  and  C_24
REMARK                            x       y       z     vdW  Elec       q    Type
REMARK                         _______ _______ _______ _____ _____    ______ ____
ROOT
ATOM      1  O   UNL     1      -4.535   0.535  24.261  0.00  0.00    -0.271 OA
ATOM      2  C   UNL     1      -3.959  -0.045  24.369  0.00  0.00    +0.270 C 
ATOM     11  N   UNL     1      -4.150  -0.841  24.260  0.00  0.00    -0.276 N 
ATOM     12  C   UNL     1      -4.613  -1.515  24.088  0.00  0.00    +0.095 C 
ATOM     13  C   UNL     1      -3.933  -2.220  24.214  0.00  0.00    +0.043 C 
ATOM     14  C   UNL     1      -3.499  -2.907  24.277  0.00  0.00    +0.011 C 
ATOM     15  C   UNL     1      -3.393  -2.217  24.356  0.00  0.00    +0.058 C 
ATOM     16  C   UNL     1      -4.062  -1.547  24.230  0.00  0.00    +0.099 C 
ATOM     17  C   UNL     1      -2.740  -1.608  24.572  0.00  0.00    +0.041 A 
ATOM     18  C   UNL     1      -1.943  -1.571  24.784  0.00  0.00    +0.014 A 
ATOM     19  C   UNL     1      -1.590  -0.841  24.931  0.00  0.00    +0.023 A 
ATOM     20  C   UNL     1      -2.032  -0.147  24.866  0.00  0.00    +0.130 A 
ATOM     30  C   UNL     1      -2.828  -0.184  24.655  0.00  0.00    +0.276 A 
ATOM     31  O   UNL     1      -2.796   0.637  24.724  0.00  0.00    -0.266 OA
ATOM     32  N   UNL     1      -3.182  -0.915  24.508  0.00  0.00    -0.298 N 
ATOM     33  C   UNL     1      -3.257  -1.576  24.439  0.00  0.00    +0.110 C 
ENDROOT
BRANCH  20  21
ATOM     21  N   UNL     1      -1.677   0.582  25.013  0.00  0.00    -0.169 NA
ATOM     22  C   UNL     1      -0.876   0.621  25.203  0.00  0.00    +0.288 C 
ATOM     23  O   UNL     1      -0.428  -0.071  25.246  0.00  0.00    -0.266 OA
BRANCH  22  24
ATOM     24  C   UNL     1      -0.521   1.352  25.350  0.00  0.00    +0.156 A 
ATOM     25  C   UNL     1      -0.105   1.737  24.751  0.00  0.00    +0.123 A 
ATOM     26  N   UNL     1       0.249   2.467  24.899  0.00  0.00    -0.239 NA
ATOM     27  C   UNL     1       0.187   2.813  25.644  0.00  0.00    +0.120 A 
ATOM     28  C   UNL     1      -0.229   2.428  26.245  0.00  0.00    +0.120 A 
ATOM     29  N   UNL     1      -0.584   1.697  26.097  0.00  0.00    -0.236 NA
ENDBRANCH  22  24
ENDBRANCH  20  21
BRANCH   2   3
ATOM      3  C   UNL     1      -3.192   0.169  24.586  0.00  0.00    +0.290 C 
BRANCH   3   4
ATOM      4  O   UNL     1      -3.034   0.940  24.832  0.00  0.00    -0.466 OA
BRANCH   4   5
ATOM      5  C   UNL     1      -3.451   1.572  24.505  0.00  0.00    +0.139 A 
ATOM      6  C   UNL     1      -4.018   1.968  24.956  0.00  0.00    +0.037 A 
ATOM      7  C   UNL     1      -4.437   2.601  24.630  0.00  0.00    +0.003 A 
ATOM      8  C   UNL     1      -4.288   2.836  23.854  0.00  0.00    +0.000 A 
ATOM      9  C   UNL     1      -3.721   2.440  23.403  0.00  0.00    +0.003 A 
ATOM     10  C   UNL     1      -3.304   1.809  23.729  0.00  0.00    +0.037 A 
ENDBRANCH   4   5
ENDBRANCH   3   4
ENDBRANCH   2   3
TORSDOF 5
ENDMDL
MODEL 2
REMARK VINA RESULT:     -13.7      1.216      2.932
REMARK  Name = 
REMARK  5 active torsions:
REMARK  status: ('A' for Active; 'I' for Inactive)
REMARK    1  A    between atoms: C_2  and  C_3
REMARK    2  A    between atoms: C_3  and  O_4
REMARK    3  A    between atoms: O_4  and  C_5
REMARK    4  A    between atoms: C_20  and  N_21
REMARK    5  A    between atoms: C_22  and  C_24
REMARK                            x       y       z     vdW  Elec       q    Type
REMARK                         _______ _______ _______ _____ _____    ______ ____
ROOT
ATOM      1  O   UNL     1      -1.093  -0.411  25.069  0.00  0.00    -0.271 OA
ATOM      2  C   UNL     1      -1.872  -0.624  24.904  0.00  0.00    +0.270 C 
ATOM     11  N   UNL     1      -2.067  -1.417  24.786  0.00  0.00    -0.276 N 
ATOM     12  C   UNL     1      -1.964  -2.243  24.720  0.00  0.00    +0.095 C 
ATOM     13  C   UNL     1      -2.894  -2.511  24.520  0.00  0.00    +0.043 C 
ATOM     14  C   UNL     1      -3.596  -2.889  24.352  0.00  0.00    +0.011 C 
ATOM     15  C   UNL     1      -3.373  -2.232  24.461  0.00  0.00    +0.058 C 
ATOM     16  C   UNL     1      -2.470  -1.989  24.653  0.00  0.00    +0.099 C 
ATOM     17  C   UNL     1      -3.676  -1.365  24.494  0.00  0.00    +0.041 A 
ATOM     18  C   UNL     1      -4.368  -0.924  24.411  0.00  0.00    +0.014 A 
ATOM     19  C   UNL     1      -4.348  -0.104  24.499  0.00  0.00    +0.023 A 
ATOM     20  C   UNL     1      -3.635   0.275  24.670  0.00  0.00    +0.130 A 
ATOM     30  C   UNL     1      -2.943  -0.166  24.753  0.00  0.00    +0.276 A 
ATOM     31  O   UNL     1      -2.595   0.569  24.893  0.00  0.00    -0.266 OA
ATOM     32  N   UNL     1      -2.963  -0.986  24.665  0.00  0.00    -0.298 N 
ATOM     33  C   UNL     1      -3.201  -1.602  24.557  0.00  0.00    +0.110 C 
ENDROOT
BRANCH  20  21
ATOM     21  N   UNL     1      -3.616   1.095  24.758  0.00  0.00    -0.169 NA
ATOM     22  C   UNL     1      -4.316   1.530  24.727  0.00  0.00    +0.288 C 
ATOM     23  O   UNL     1      -5.036   1.145  24.607  0.00  0.00    -0.266 OA
BRANCH  22  24
ATOM     24  C   UNL     1      -4.296   2.351  24.815  0.00  0.00    +0.156 A 
ATOM     25  C   UNL     1      -4.450   2.690  25.550  0.00  0.00    +0.123 A 
ATOM     26  N   UNL     1      -4.430   3.510  25.638  0.00  0.00    -0.239 NA
ATOM     27  C   UNL     1      -4.256   3.990  24.991  0.00  0.00    +0.120 A 
ATOM     28  C   UNL     1      -4.102   3.651  24.254  0.00  0.00    +0.120 A 
ATOM     29  N   UNL     1      -4.122   2.830  24.166  0.00  0.00    -0.236 NA
ENDBRANCH  22  24
ENDBRANCH  20  21
BRANCH   2   3
ATOM      3  C   UNL     1      -2.457  -0.043  24.855  0.00  0.00    +0.290 C 
BRANCH   3   4
ATOM      4  O   UNL     1      -2.281   0.736  25.060  0.00  0.00    -0.466 OA
BRANCH   4   5
ATOM      5  C   UNL     1      -1.532   1.045  24.908  0.00  0.00    +0.139 A 
ATOM      6  C   UNL     1      -1.028   1.232  25.535  0.00  0.00    +0.037 A 
ATOM      7  C   UNL     1      -0.278   1.541  25.383  0.00  0.00    +0.003 A 
ATOM      8  C   UNL     1      -0.031   1.662  24.605  0.00  0.00    +0.000 A 
ATOM      9  C   UNL     1      -0.534   1.474  23.979  0.00  0.00    +0.003 A 
ATOM     10  C   UNL     1      -1.284   1.166  24.130  0.00  0.00    +0.037 A 
ENDBRANCH   4   5
ENDBRANCH   3   4
ENDBRANCH   2   3
TORSDOF 5
ENDMDL
MODEL 3
REMARK VINA RESULT:     -13.7      1.420      3.415
REMARK  Name = 
REMARK  5 active torsions:
REMARK  status: ('A' for Active; 'I' for Inactive)
REMARK    1  A    between atoms: C_2  and  C_3
REMARK    2  A    between atoms: C_3  and  O_4
REMARK    3  A    between atoms: O_4  and  C_5
REMARK    4  A    between atoms: C_20  and  N_21
REMARK    5  A    between atoms: C_22  and  C_24
REMARK                            x       y       z     vdW  Elec       q    Type
REMARK                         _______ _______ _______ _____ _____    ______ ____
ROOT
ATOM      1  O   UNL     1      -5.045   0.195  24.688  0.00  0.00    -0.271 OA
ATOM      2  C   UNL     1      -4.746   0.952  24.821  0.00  0.00    +0.270 C 
ATOM     11  N   UNL     1      -5.252   1.560  25.057  0.00  0.00    -0.276 N 
ATOM     12  C   UNL     1      -5.963   1.942  25.273  0.00  0.00    +0.095 C 
ATOM     13  C   UNL     1      -5.617   2.853  25.436  0.00  0.00    +0.043 C 
ATOM     14  C   UNL     1      -5.495   3.640  25.607  0.00  0.00    +0.011 C 
ATOM     15  C   UNL     1      -5.112   3.088  25.406  0.00  0.00    +0.058 C 
ATOM     16  C   UNL     1      -5.461   2.212  25.252  0.00  0.00    +0.099 C 
ATOM     17  C   UNL     1      -4.251   2.845  25.198  0.00  0.00    +0.041 A 
ATOM     18  C   UNL     1      -3.491   3.162  25.144  0.00  0.00    +0.014 A 
ATOM     19  C   UNL     1      -2.859   2.682  24.918  0.00  0.00    +0.023 A 
ATOM     20  C   UNL     1      -2.987   1.885  24.745  0.00  0.00    +0.130 A 
ATOM     30  C   UNL     1      -3.746   1.568  24.799  0.00  0.00    +0.276 A 
ATOM     31  O   UNL     1      -3.377   0.869  24.565  0.00  0.00    -0.266 OA
ATOM     32  N   UNL     1      -4.378   2.048  25.025  0.00  0.00    -0.298 N 
ATOM     33  C   UNL     1      -4.720   2.590  25.217  0.00  0.00    +0.110 C 
ENDROOT
BRANCH  20  21
ATOM     21  N   UNL     1      -2.355   1.407  24.519  0.00  0.00    -0.169 NA
ATOM     22  C   UNL     1      -1.598   1.728  24.448  0.00  0.00    +0.288 C 
ATOM     23  O   UNL     1      -1.474   2.529  24.603  0.00  0.00    -0.266 OA
BRANCH  22  24
ATOM     24  C   UNL     1      -0.966   1.248  24.222  0.00  0.00    +0.156 A 
ATOM     25  C   UNL     1      -0.498   0.884  24.795  0.00  0.00    +0.123 A 
ATOM     26  N   UNL     1       0.134   0.404  24.569  0.00  0.00    -0.239 NA
ATOM     27  C   UNL     1       0.298   0.289  23.770  0.00  0.00    +0.120 A 
ATOM     28  C   UNL     1      -0.169   0.654  23.195  0.00  0.00    +0.120 A 
ATOM     29  N   UNL     1      -0.801   1.134  23.421  0.00  0.00    -0.236 NA
ENDBRANCH  22  24
ENDBRANCH  20  21
BRANCH   2   3
ATOM      3  C   UNL     1      -3.940   1.102  24.718  0.00  0.00    +0.290 C 
BRANCH   3   4
ATOM      4  O   UNL     1      -3.454   0.528  24.381  0.00  0.00    -0.466 OA
BRANCH   4   5
ATOM      5  C   UNL     1      -3.604  -0.272  24.515  0.00  0.00    +0.139 A 
ATOM      6  C   UNL     1      -3.895  -0.745  23.905  0.00  0.00    +0.037 A 
ATOM      7  C   UNL     1      -4.045  -1.546  24.039  0.00  0.00    +0.003 A 
ATOM      8  C   UNL     1      -3.904  -1.872  24.783  0.00  0.00    +0.000 A 
ATOM      9  C   UNL     1      -3.612  -1.399  25.393  0.00  0.00    +0.003 A 
ATOM     10  C   UNL     1      -3.463  -0.600  25.259  0.00  0.00    +0.037 A 
ENDBRANCH   4   5
ENDBRANCH   3   4
ENDBRANCH   2   3
TORSDOF 5
ENDMDL
MODEL 4
REMARK VINA RESULT:     -13.3      1.667      3.355
REMARK  Name = 
REMARK  5 active torsions:
REMARK  status: ('A' for Active; 'I' for Inactive)
REMARK    1  A    between atoms: C_2  and  C_3
REMARK    2  A    between atoms: C_3  and  O_4
REMARK    3  A    between atoms: O_4  and  C_5
REMARK    4  A    between atoms: C_20  and  N_21
REMARK    5  A    between atoms: C_22  and  C_24
REMARK                            x       y       z     vdW  Elec       q    Type
REMARK                         _______ _______ _______ _____ _____    ______ ____
ROOT
ATOM      1  O   UNL     1      -2.947   3.381  24.902  0.00  0.00    -0.271 OA
ATOM      2  C   UNL     1      -3.455   2.733  24.937  0.00  0.00    +0.270 C 
ATOM     11  N   UNL     1      -4.270   2.850  24.991  0.00  0.00    -0.276 N 
ATOM     12  C   UNL     1      -4.997   3.258  25.039  0.00  0.00    +0.095 C 
ATOM     13  C   UNL     1      -5.617   2.490  25.081  0.00  0.00    +0.043 C 
ATOM     14  C   UNL     1      -6.248   1.976  25.123  0.00  0.00    +0.011 C 
ATOM     15  C   UNL     1      -5.549   1.936  25.077  0.00  0.00    +0.058 C 
ATOM     16  C   UNL     1      -4.963   2.689  25.037  0.00  0.00    +0.099 C 
ATOM     17  C   UNL     1      -4.863   1.326  25.032  0.00  0.00    +0.041 A 
ATOM     18  C   UNL     1      -4.730   0.512  25.024  0.00  0.00    +0.014 A 
ATOM     19  C   UNL     1      -3.959   0.221  24.973  0.00  0.00    +0.023 A 
ATOM     20  C   UNL     1      -3.323   0.744  24.930  0.00  0.00    +0.130 A 
ATOM     30  C   UNL     1      -3.456   1.558  24.938  0.00  0.00    +0.276 A 
ATOM     31  O   UNL     1      -2.635   1.606  24.884  0.00  0.00    -0.266 OA
ATOM     32  N   UNL     1      -4.226   1.849  24.989  0.00  0.00    -0.298 N 
ATOM     33  C   UNL     1      -4.894   1.860  25.034  0.00  0.00    +0.110 C 
ENDROOT
BRANCH  20  21
ATOM     21  N   UNL     1      -2.553   0.453  24.879  0.00  0.00    -0.169 NA
ATOM     22  C   UNL     1      -2.419  -0.361  24.871  0.00  0.00    +0.288 C 
ATOM     23  O   UNL     1      -3.056  -0.884  24.913  0.00  0.00    -0.266 OA
BRANCH  22  24
ATOM     24  C   UNL     1      -1.648  -0.652  24.820  0.00  0.00    +0.156 A 
ATOM     25  C   UNL     1      -1.270  -0.939  25.495  0.00  0.00    +0.123 A 
ATOM     26  N   UNL     1      -0.500  -1.230  25.444  0.00  0.00    -0.239 NA
ATOM     27  C   UNL     1      -0.108  -1.235  24.718  0.00  0.00    +0.120 A 
ATOM     28  C   UNL     1      -0.486  -0.948  24.043  0.00  0.00    +0.120 A 
ATOM     29  N   UNL     1      -1.257  -0.657  24.094  0.00  0.00    -0.236 NA
ENDBRANCH  22  24
ENDBRANCH  20  21
BRANCH   2   3
ATOM      3  C   UNL     1      -3.148   1.967  24.917  0.00  0.00    +0.290 C 
BRANCH   3   4
ATOM      4  O   UNL     1      -2.349   1.847  24.754  0.00  0.00    -0.466 OA
BRANCH   4   5
ATOM      5  C   UNL     1      -1.796   2.428  24.947  0.00  0.00    +0.139 A 
ATOM      6  C   UNL     1      -1.453   2.884  24.352  0.00  0.00    +0.037 A 
ATOM      7  C   UNL     1      -0.899   3.466  24.544  0.00  0.00    +0.003 A 
ATOM      8  C   UNL     1      -0.690   3.590  25.332  0.00  0.00    +0.000 A 
ATOM      9  C   UNL     1      -1.033   3.133  25.928  0.00  0.00    +0.003 A 
ATOM     10  C   UNL     1      -1.586   2.552  25.735  0.00  0.00    +0.037 A 
ENDBRANCH   4   5
ENDBRANCH   3   4
ENDBRANCH   2   3
TORSDOF 5
ENDMDL
MODEL 5
REMARK VINA RESULT:     -12.7      1.621      4.107
REMARK  Name = 
REMARK  5 active torsions:
REMARK  status: ('A' for Active; 'I' for Inactive)
REMARK    1  A    between atoms: C_2  and  C_3
REMARK    2  A    between atoms: C_3  and  O_4
REMARK    3  A    between atoms: O_4  and  C_5
REMARK    4  A    between atoms: C_20  and  N_21
REMARK    5  A    between atoms: C_22  and  C_24
REMARK                            x       y       z     vdW  Elec       q    Type
REMARK                         _______ _______ _______ _____ _____    ______ ____
ROOT
ATOM      1  O   UNL     1      -4.183   3.446  24.870  0.00  0.00    -0.271 OA
ATOM      2  C   UNL     1      -3.389   3.238  24.953  0.00  0.00    +0.270 C 
ATOM     11  N   UNL     1      -2.813   3.826  25.019  0.00  0.00    -0.276 N 
ATOM     12  C   UNL     1      -2.484   4.592  25.061  0.00  0.00    +0.095 C 
ATOM     13  C   UNL     1      -1.529   4.357  25.160  0.00  0.00    +0.043 C 
ATOM     14  C   UNL     1      -0.719   4.331  25.246  0.00  0.00    +0.011 C 
ATOM     15  C   UNL     1      -1.249   3.875  25.186  0.00  0.00    +0.058 C 
ATOM     16  C   UNL     1      -2.168   4.119  25.090  0.00  0.00    +0.099 C 
ATOM     17  C   UNL     1      -1.425   2.973  25.159  0.00  0.00    +0.041 A 
ATOM     18  C   UNL     1      -1.040   2.245  25.193  0.00  0.00    +0.014 A 
ATOM     19  C   UNL     1      -1.475   1.546  25.140  0.00  0.00    +0.023 A 
ATOM     20  C   UNL     1      -2.295   1.576  25.054  0.00  0.00    +0.130 A 
ATOM     30  C   UNL     1      -2.680   2.304  25.019  0.00  0.00    +0.276 A 
ATOM     31  O   UNL     1      -3.359   1.844  24.943  0.00  0.00    -0.266 OA
ATOM     32  N   UNL     1      -2.245   3.003  25.072  0.00  0.00    -0.298 N 
ATOM     33  C   UNL     1      -1.722   3.417  25.131  0.00  0.00    +0.110 C 
ENDROOT
BRANCH  20  21
ATOM     21  N   UNL     1      -2.729   0.876  25.001  0.00  0.00    -0.169 NA
ATOM     22  C   UNL     1      -2.345   0.148  25.044  0.00  0.00    +0.288 C 
ATOM     23  O   UNL     1      -1.526   0.118  25.138  0.00  0.00    -0.266 OA
BRANCH  22  24
ATOM     24  C   UNL     1      -2.780  -0.552  24.991  0.00  0.00    +0.156 A 
ATOM     25  C   UNL     1      -3.008  -0.949  25.677  0.00  0.00    +0.123 A 
ATOM     26  N   UNL     1      -3.443  -1.648  25.624  0.00  0.00    -0.239 NA
ATOM     27  C   UNL     1      -3.649  -1.950  24.886  0.00  0.00    +0.120 A 
ATOM     28  C   UNL     1      -3.421  -1.554  24.199  0.00  0.00    +0.120 A 
ATOM     29  N   UNL     1      -2.986  -0.854  24.251  0.00  0.00    -0.236 NA
ENDBRANCH  22  24
ENDBRANCH  20  21
BRANCH   2   3
ATOM      3  C   UNL     1      -3.170   2.442  24.969  0.00  0.00    +0.290 C 
BRANCH   3   4
ATOM      4  O   UNL     1      -3.727   1.858  24.800  0.00  0.00    -0.466 OA
BRANCH   4   5
ATOM      5  C   UNL     1      -4.520   1.975  24.994  0.00  0.00    +0.139 A 
ATOM      6  C   UNL     1      -5.081   2.068  24.396  0.00  0.00    +0.037 A 
ATOM      7  C   UNL     1      -5.875   2.185  24.589  0.00  0.00    +0.003 A 
ATOM      8  C   UNL     1      -6.107   2.208  25.380  0.00  0.00    +0.000 A 
ATOM      9  C   UNL     1      -5.546   2.115  25.978  0.00  0.00    +0.003 A 
ATOM     10  C   UNL     1      -4.753   1.998  25.784  0.00  0.00    +0.037 A 
ENDBRANCH   4   5
ENDBRANCH   3   4
ENDBRANCH   2   3
TORSDOF 5
ENDMDL
