MODEL 1
REMARK VINA RESULT:     -15.7      0.000      0.000
REMARK  Name = 
REMARK  4 active torsions:
REMARK  status: ('A' for Active; 'I' for Inactive)
REMARK    1  A    between atoms: C_2  and  N_4
REMARK    2  A    between atoms: C_16  and  C_21
REMARK    3  A    between atoms: C_26  and  C_27
REMARK    4  A    between atoms: C_27  and  N_28
REMARK                            x       y       z     vdW  Elec       q    Type
REMARK                         _______ _______ _______ _____ _____    ______ ____
ROOT
ATOM      4  N   UNL     1      -3.480   0.959  23.663  0.00  0.00    -0.190 NA
ATOM      5  C   UNL     1      -3.136   1.558  23.074  0.00  0.00    +0.323 C 
ATOM      6  O   UNL     1      -2.669   1.763  22.371  0.00  0.00    -0.251 OA
ATOM      7  N   UNL     1      -3.538   2.085  23.566  0.00  0.00    -0.262 N 
ATOM      8  C   UNL     1      -3.660   2.911  23.608  0.00  0.00    +0.097 C 
ATOM      9  C   UNL     1      -4.228   2.953  24.415  0.00  0.00    +0.043 C 
ATOM     10  C   UNL     1      -4.694   3.156  25.052  0.00  0.00    +0.011 C 
ATOM     11  C   UNL     1      -4.430   2.571  24.767  0.00  0.00    +0.058 C 
ATOM     12  C   UNL     1      -3.882   2.546  23.985  0.00  0.00    +0.101 C 
ATOM     13  C   UNL     1      -4.409   1.659  24.883  0.00  0.00    +0.041 A 
ATOM     14  C   UNL     1      -4.693   1.070  25.385  0.00  0.00    +0.013 A 
ATOM     15  C   UNL     1      -4.505   0.280  25.242  0.00  0.00    +0.006 A 
ATOM     16  C   UNL     1      -4.032   0.079  24.597  0.00  0.00    +0.056 A 
ATOM     17  C   UNL     1      -3.748   0.668  24.094  0.00  0.00    +0.261 A 
ATOM     18  O   UNL     1      -3.324   0.138  23.571  0.00  0.00    -0.267 OA
ATOM     19  N   UNL     1      -3.936   1.458  24.237  0.00  0.00    -0.299 N 
ATOM     20  C   UNL     1      -4.199   2.000  24.528  0.00  0.00    +0.110 C 
ENDROOT
BRANCH  16  21
ATOM     21  C   UNL     1      -3.844  -0.712  24.454  0.00  0.00    +0.002 A 
ATOM     22  C   UNL     1      -4.326  -1.169  23.965  0.00  0.00    -0.000 A 
ATOM     23  C   UNL     1      -4.137  -1.960  23.823  0.00  0.00    -0.000 A 
ATOM     24  C   UNL     1      -3.467  -2.293  24.171  0.00  0.00    -0.000 A 
ATOM     25  C   UNL     1      -2.986  -1.835  24.660  0.00  0.00    -0.003 A 
ATOM     26  C   UNL     1      -3.174  -1.045  24.802  0.00  0.00    -0.006 A 
BRANCH  26  27
ATOM     27  C   UNL     1      -2.404  -1.293  25.248  0.00  0.00    +0.099 C 
BRANCH  27  28
ATOM     28  N   UNL     1      -1.590  -1.105  25.463  0.00  0.00    -0.267 NA
ATOM     29  C   UNL     1      -0.983  -1.216  24.915  0.00  0.00    +0.090 C 
ATOM     30  C   UNL     1      -1.419  -0.815  26.216  0.00  0.00    +0.090 C 
ENDBRANCH  27  28
ENDBRANCH  26  27
ENDBRANCH  16  21
BRANCH   4   2
ATOM      1  C   UNL     1      -3.957   0.513  25.509  0.00  0.00    +0.023 C 
ATOM      2  C   UNL     1      -4.028   0.620  24.504  0.00  0.00    +0.097 C 
ATOM      3  C   UNL     1      -4.809   0.319  24.373  0.00  0.00    +0.023 C 
ENDBRANCH   4   2
TORSDOF 4
ENDMDL
MODEL 2
REMARK VINA RESULT:     -15.3      1.135      3.650
REMARK  Name = 
REMARK  4 active torsions:
REMARK  status: ('A' for Active; 'I' for Inactive)
REMARK    1  A    between atoms: C_2  and  N_4
REMARK    2  A    between atoms: C_16  and  C_21
REMARK    3  A    between atoms: C_26  and  C_27
REMARK    4  A    between atoms: C_27  and  N_28
REMARK                            x       y       z     vdW  Elec       q    Type
REMARK                         _______ _______ _______ _____ _____    ______ ____
ROOT
ATOM      4  N   UNL     1      -2.400   0.582  24.919  0.00  0.00    -0.190 NA
ATOM      5  C   UNL     1      -1.640   0.362  25.366  0.00  0.00    +0.323 C 
ATOM      6  O   UNL     1      -0.837   0.535  25.646  0.00  0.00    -0.251 OA
ATOM      7  N   UNL     1      -2.068  -0.330  25.503  0.00  0.00    -0.262 N 
ATOM      8  C   UNL     1      -1.948  -1.055  25.901  0.00  0.00    +0.097 C 
ATOM      9  C   UNL     1      -2.816  -1.490  25.717  0.00  0.00    +0.043 C 
ATOM     10  C   UNL     1      -3.466  -1.977  25.656  0.00  0.00    +0.011 C 
ATOM     11  C   UNL     1      -3.274  -1.338  25.438  0.00  0.00    +0.058 C 
ATOM     12  C   UNL     1      -2.431  -0.931  25.625  0.00  0.00    +0.101 C 
ATOM     13  C   UNL     1      -3.582  -0.619  24.957  0.00  0.00    +0.041 A 
ATOM     14  C   UNL     1      -4.246  -0.365  24.537  0.00  0.00    +0.013 A 
ATOM     15  C   UNL     1      -4.249   0.379  24.182  0.00  0.00    +0.006 A 
ATOM     16  C   UNL     1      -3.589   0.870  24.246  0.00  0.00    +0.056 A 
ATOM     17  C   UNL     1      -2.925   0.617  24.665  0.00  0.00    +0.261 A 
ATOM     18  O   UNL     1      -2.464   1.327  24.535  0.00  0.00    -0.267 OA
ATOM     19  N   UNL     1      -2.922  -0.128  25.021  0.00  0.00    -0.299 N 
ATOM     20  C   UNL     1      -3.129  -0.734  25.216  0.00  0.00    +0.110 C 
ENDROOT
BRANCH  16  21
ATOM     21  C   UNL     1      -3.593   1.614  23.890  0.00  0.00    +0.002 A 
ATOM     22  C   UNL     1      -3.191   1.734  23.180  0.00  0.00    -0.000 A 
ATOM     23  C   UNL     1      -3.195   2.479  22.824  0.00  0.00    -0.000 A 
ATOM     24  C   UNL     1      -3.602   3.103  23.179  0.00  0.00    -0.000 A 
ATOM     25  C   UNL     1      -4.004   2.982  23.889  0.00  0.00    -0.003 A 
ATOM     26  C   UNL     1      -3.999   2.238  24.245  0.00  0.00    -0.006 A 
BRANCH  26  27
ATOM     27  C   UNL     1      -4.488   2.845  24.741  0.00  0.00    +0.099 C 
BRANCH  27  28
ATOM     28  N   UNL     1      -4.716   3.140  25.519  0.00  0.00    -0.267 NA
ATOM     29  C   UNL     1      -4.191   3.603  25.954  0.00  0.00    +0.090 C 
ATOM     30  C   UNL     1      -5.460   2.958  25.826  0.00  0.00    +0.090 C 
ENDBRANCH  27  28
ENDBRANCH  26  27
ENDBRANCH  16  21
BRANCH   4   2
ATOM      1  C   UNL     1      -4.354   0.502  24.815  0.00  0.00    +0.023 C 
ATOM      2  C   UNL     1      -3.379   0.454  24.538  0.00  0.00    +0.097 C 
ATOM      3  C   UNL     1      -3.463   0.235  23.724  0.00  0.00    +0.023 C 
ENDBRANCH   4   2
TORSDOF 4
ENDMDL
MODEL 3
REMARK VINA RESULT:     -15.1      1.058      3.697
REMARK  Name = 
REMARK  4 active torsions:
REMARK  status: ('A' for Active; 'I' for Inactive)
REMARK    1  A    between atoms: C_2  and  N_4
REMARK    2  A    between atoms: C_16  and  C_21
REMARK    3  A    between atoms: C_26  and  C_27
REMARK    4  A    between atoms: C_27  and  N_28
REMARK                            x       y       z     vdW  Elec       q    Type
REMARK                         _______ _______ _______ _____ _____    ______ ____
ROOT
ATOM      4  N   UNL     1      -2.853  -0.349  25.249  0.00  0.00    -0.190 NA
ATOM      5  C   UNL     1      -2.154  -0.719  25.696  0.00  0.00    +0.323 C 
ATOM      6  O   UNL     1      -1.464  -0.667  26.219  0.00  0.00    -0.251 OA
ATOM      7  N   UNL     1      -2.449  -1.403  25.341  0.00  0.00    -0.262 N 
ATOM      8  C   UNL     1      -2.256  -2.216  25.324  0.00  0.00    +0.097 C 
ATOM      9  C   UNL     1      -2.972  -2.544  24.727  0.00  0.00    +0.043 C 
ATOM     10  C   UNL     1      -3.489  -2.966  24.259  0.00  0.00    +0.011 C 
ATOM     11  C   UNL     1      -3.396  -2.300  24.460  0.00  0.00    +0.058 C 
ATOM     12  C   UNL     1      -2.699  -1.998  25.038  0.00  0.00    +0.101 C 
ATOM     13  C   UNL     1      -3.756  -1.460  24.359  0.00  0.00    +0.041 A 
ATOM     14  C   UNL     1      -4.374  -1.070  23.977  0.00  0.00    +0.013 A 
ATOM     15  C   UNL     1      -4.466  -0.255  24.069  0.00  0.00    +0.006 A 
ATOM     16  C   UNL     1      -3.941   0.169  24.543  0.00  0.00    +0.056 A 
ATOM     17  C   UNL     1      -3.323  -0.221  24.925  0.00  0.00    +0.261 A 
ATOM     18  O   UNL     1      -3.000   0.477  25.303  0.00  0.00    -0.267 OA
ATOM     19  N   UNL     1      -3.230  -1.036  24.833  0.00  0.00    -0.299 N 
ATOM     20  C   UNL     1      -3.341  -1.663  24.627  0.00  0.00    +0.110 C 
ENDROOT
BRANCH  16  21
ATOM     21  C   UNL     1      -4.034   0.983  24.635  0.00  0.00    +0.002 A 
ATOM     22  C   UNL     1      -4.489   1.279  25.256  0.00  0.00    -0.000 A 
ATOM     23  C   UNL     1      -4.582   2.095  25.347  0.00  0.00    -0.000 A 
ATOM     24  C   UNL     1      -4.220   2.613  24.817  0.00  0.00    -0.000 A 
ATOM     25  C   UNL     1      -3.765   2.316  24.196  0.00  0.00    -0.003 A 
ATOM     26  C   UNL     1      -3.672   1.502  24.105  0.00  0.00    -0.006 A 
BRANCH  26  27
ATOM     27  C   UNL     1      -3.219   1.968  23.449  0.00  0.00    +0.099 C 
BRANCH  27  28
ATOM     28  N   UNL     1      -2.522   2.031  22.944  0.00  0.00    -0.267 NA
ATOM     29  C   UNL     1      -1.785   2.196  23.277  0.00  0.00    +0.090 C 
ATOM     30  C   UNL     1      -2.592   1.925  22.130  0.00  0.00    +0.090 C 
ENDBRANCH  27  28
ENDBRANCH  26  27
ENDBRANCH  16  21
BRANCH   4   2
ATOM      1  C   UNL     1      -3.974  -0.314  23.644  0.00  0.00    +0.023 C 
ATOM      2  C   UNL     1      -3.705  -0.321  24.621  0.00  0.00    +0.097 C 
ATOM      3  C   UNL     1      -4.468  -0.294  24.988  0.00  0.00    +0.023 C 
ENDBRANCH   4   2
TORSDOF 4
ENDMDL
MODEL 4
REMARK VINA RESULT:     -14.4      2.595      3.904
REMARK  Name = 
REMARK  4 active torsions:
REMARK  status: ('A' for Active; 'I' for Inactive)
REMARK    1  A    between atoms: C_2  and  N_4
REMARK    2  A    between atoms: C_16  and  C_21
REMARK    3  A    between atoms: C_26  and  C_27
REMARK    4  A    between atoms: C_27  and  N_28
REMARK                            x       y       z     vdW  Elec       q    Type
REMARK                         _______ _______ _______ _____ _____    ______ ____
ROOT
ATOM      4  N   UNL     1      -3.344   3.259  24.302  0.00  0.00    -0.190 NA
ATOM      5  C   UNL     1      -3.759   2.840  23.611  0.00  0.00    +0.323 C 
ATOM      6  O   UNL     1      -3.799   2.577  22.785  0.00  0.00    -0.251 OA
ATOM      7  N   UNL     1      -4.331   2.715  24.194  0.00  0.00    -0.262 N 
ATOM      8  C   UNL     1      -5.077   2.343  24.248  0.00  0.00    +0.097 C 
ATOM      9  C   UNL     1      -5.280   2.518  25.200  0.00  0.00    +0.043 C 
ATOM     10  C   UNL     1      -5.591   2.577  25.950  0.00  0.00    +0.011 C 
ATOM     11  C   UNL     1      -5.010   2.779  25.612  0.00  0.00    +0.058 C 
ATOM     12  C   UNL     1      -4.829   2.603  24.691  0.00  0.00    +0.101 C 
ATOM     13  C   UNL     1      -4.219   3.229  25.742  0.00  0.00    +0.041 A 
ATOM     14  C   UNL     1      -3.795   3.622  26.330  0.00  0.00    +0.013 A 
ATOM     15  C   UNL     1      -3.060   3.953  26.157  0.00  0.00    +0.006 A 
ATOM     16  C   UNL     1      -2.748   3.891  25.395  0.00  0.00    +0.056 A 
ATOM     17  C   UNL     1      -3.172   3.498  24.807  0.00  0.00    +0.261 A 
ATOM     18  O   UNL     1      -2.592   3.617  24.188  0.00  0.00    -0.267 OA
ATOM     19  N   UNL     1      -3.907   3.166  24.980  0.00  0.00    -0.299 N 
ATOM     20  C   UNL     1      -4.451   2.986  25.326  0.00  0.00    +0.110 C 
ENDROOT
BRANCH  16  21
ATOM     21  C   UNL     1      -2.013   4.222  25.223  0.00  0.00    +0.002 A 
ATOM     22  C   UNL     1      -1.959   5.014  24.998  0.00  0.00    -0.000 A 
ATOM     23  C   UNL     1      -1.222   5.345  24.825  0.00  0.00    -0.000 A 
ATOM     24  C   UNL     1      -0.541   4.883  24.879  0.00  0.00    -0.000 A 
ATOM     25  C   UNL     1      -0.595   4.091  25.104  0.00  0.00    -0.003 A 
ATOM     26  C   UNL     1      -1.330   3.761  25.276  0.00  0.00    -0.006 A 
BRANCH  26  27
ATOM     27  C   UNL     1      -0.652   3.142  25.373  0.00  0.00    +0.099 C 
BRANCH  27  28
ATOM     28  N   UNL     1      -0.388   2.390  25.705  0.00  0.00    -0.267 NA
ATOM     29  C   UNL     1      -0.172   2.344  26.500  0.00  0.00    +0.090 C 
ATOM     30  C   UNL     1      -0.353   1.719  25.227  0.00  0.00    +0.090 C 
ENDBRANCH  27  28
ENDBRANCH  26  27
ENDBRANCH  16  21
BRANCH   4   2
ATOM      1  C   UNL     1      -2.926   3.316  26.214  0.00  0.00    +0.023 C 
ATOM      2  C   UNL     1      -3.213   3.618  25.289  0.00  0.00    +0.097 C 
ATOM      3  C   UNL     1      -3.389   4.432  25.443  0.00  0.00    +0.023 C 
ENDBRANCH   4   2
TORSDOF 4
ENDMDL
MODEL 5
REMARK VINA RESULT:     -14.0      1.491      2.307
REMARK  Name = 
REMARK  4 active torsions:
REMARK  status: ('A' for Active; 'I' for Inactive)
REMARK    1  A    between atoms: C_2  and  N_4
REMARK    2  A    between atoms: C_16  and  C_21
REMARK    3  A    between atoms: C_26  and  C_27
REMARK    4  A    between atoms: C_27  and  N_28
REMARK                            x       y       z     vdW  Elec       q    Type
REMARK                         _______ _______ _______ _____ _____    ______ ____
ROOT
ATOM      4  N   UNL     1      -3.460   2.506  25.059  0.00  0.00    -0.190 NA
ATOM      5  C   UNL     1      -3.673   3.240  25.550  0.00  0.00    +0.323 C 
ATOM      6  O   UNL     1      -3.466   3.981  25.953  0.00  0.00    -0.251 OA
ATOM      7  N   UNL     1      -4.423   2.898  25.508  0.00  0.00    -0.262 N 
ATOM      8  C   UNL     1      -5.192   3.074  25.784  0.00  0.00    +0.097 C 
ATOM      9  C   UNL     1      -5.680   2.296  25.420  0.00  0.00    +0.043 C 
ATOM     10  C   UNL     1      -6.218   1.727  25.194  0.00  0.00    +0.011 C 
ATOM     11  C   UNL     1      -5.531   1.851  25.118  0.00  0.00    +0.058 C 
ATOM     12  C   UNL     1      -5.073   2.609  25.476  0.00  0.00    +0.101 C 
ATOM     13  C   UNL     1      -4.773   1.499  24.738  0.00  0.00    +0.041 A 
ATOM     14  C   UNL     1      -4.521   0.852  24.291  0.00  0.00    +0.013 A 
ATOM     15  C   UNL     1      -3.728   0.784  24.075  0.00  0.00    +0.006 A 
ATOM     16  C   UNL     1      -3.186   1.363  24.306  0.00  0.00    +0.056 A 
ATOM     17  C   UNL     1      -3.438   2.009  24.752  0.00  0.00    +0.261 A 
ATOM     18  O   UNL     1      -2.668   2.381  24.808  0.00  0.00    -0.267 OA
ATOM     19  N   UNL     1      -4.231   2.077  24.968  0.00  0.00    -0.299 N 
ATOM     20  C   UNL     1      -4.882   1.935  25.026  0.00  0.00    +0.110 C 
ENDROOT
BRANCH  16  21
ATOM     21  C   UNL     1      -2.393   1.294  24.090  0.00  0.00    +0.002 A 
ATOM     22  C   UNL     1      -2.098   1.733  23.457  0.00  0.00    -0.000 A 
ATOM     23  C   UNL     1      -1.304   1.664  23.240  0.00  0.00    -0.000 A 
ATOM     24  C   UNL     1      -0.807   1.155  23.658  0.00  0.00    -0.000 A 
ATOM     25  C   UNL     1      -1.102   0.716  24.291  0.00  0.00    -0.003 A 
ATOM     26  C   UNL     1      -1.895   0.785  24.507  0.00  0.00    -0.006 A 
BRANCH  26  27
ATOM     27  C   UNL     1      -1.449   0.187  25.051  0.00  0.00    +0.099 C 
BRANCH  27  28
ATOM     28  N   UNL     1      -1.443  -0.580  25.445  0.00  0.00    -0.267 NA
ATOM     29  C   UNL     1      -1.421  -1.273  24.999  0.00  0.00    +0.090 C 
ATOM     30  C   UNL     1      -1.460  -0.620  26.269  0.00  0.00    +0.090 C 
ENDBRANCH  27  28
ENDBRANCH  26  27
ENDBRANCH  16  21
BRANCH   4   2
ATOM      1  C   UNL     1      -3.752   0.603  24.703  0.00  0.00    +0.023 C 
ATOM      2  C   UNL     1      -3.623   1.596  24.543  0.00  0.00    +0.097 C 
ATOM      3  C   UNL     1      -3.677   1.622  23.699  0.00  0.00    +0.023 C 
ENDBRANCH   4   2
TORSDOF 4
ENDMDL
MODEL 6
REMARK VINA RESULT:     -13.8      2.137      3.334
REMARK  Name = 
REMARK  4 active torsions:
REMARK  status: ('A' for Active; 'I' for Inactive)
REMARK    1  A    between atoms: C_2  and  N_4
REMARK    2  A    between atoms: C_16  and  C_21
REMARK    3  A    between atoms: C_26  and  C_27
REMARK    4  A    between atoms: C_27  and  N_28
REMARK                            x       y       z     vdW  Elec       q    Type
REMARK                         _______ _______ _______ _____ _____    ______ ____
ROOT
ATOM      4  N   UNL     1      -1.931   2.159  25.227  0.00  0.00    -0.190 NA
ATOM      5  C   UNL     1      -1.161   2.118  25.706  0.00  0.00    +0.323 C 
ATOM      6  O   UNL     1      -0.557   1.684  26.154  0.00  0.00    -0.251 OA
ATOM      7  N   UNL     1      -1.169   2.930  25.554  0.00  0.00    -0.262 N 
ATOM      8  C   UNL     1      -0.687   3.590  25.729  0.00  0.00    +0.097 C 
ATOM      9  C   UNL     1      -1.210   4.299  25.281  0.00  0.00    +0.043 C 
ATOM     10  C   UNL     1      -1.517   4.986  24.969  0.00  0.00    +0.011 C 
ATOM     11  C   UNL     1      -1.685   4.305  24.989  0.00  0.00    +0.058 C 
ATOM     12  C   UNL     1      -1.169   3.630  25.427  0.00  0.00    +0.101 C 
ATOM     13  C   UNL     1      -2.327   3.712  24.704  0.00  0.00    +0.041 A 
ATOM     14  C   UNL     1      -3.032   3.688  24.277  0.00  0.00    +0.013 A 
ATOM     15  C   UNL     1      -3.423   2.970  24.168  0.00  0.00    +0.006 A 
ATOM     16  C   UNL     1      -3.109   2.276  24.486  0.00  0.00    +0.056 A 
ATOM     17  C   UNL     1      -2.404   2.300  24.913  0.00  0.00    +0.261 A 
ATOM     18  O   UNL     1      -2.376   1.461  25.082  0.00  0.00    -0.267 OA
ATOM     19  N   UNL     1      -2.013   3.018  25.022  0.00  0.00    -0.299 N 
ATOM     20  C   UNL     1      -1.875   3.672  24.988  0.00  0.00    +0.110 C 
ENDROOT
BRANCH  16  21
ATOM     21  C   UNL     1      -3.501   1.559  24.376  0.00  0.00    +0.002 A 
ATOM     22  C   UNL     1      -3.183   0.987  23.875  0.00  0.00    -0.000 A 
ATOM     23  C   UNL     1      -3.575   0.268  23.765  0.00  0.00    -0.000 A 
ATOM     24  C   UNL     1      -4.286   0.124  24.158  0.00  0.00    -0.000 A 
ATOM     25  C   UNL     1      -4.605   0.696  24.660  0.00  0.00    -0.003 A 
ATOM     26  C   UNL     1      -4.212   1.414  24.769  0.00  0.00    -0.006 A 
BRANCH  26  27
ATOM     27  C   UNL     1      -4.993   1.378  25.262  0.00  0.00    +0.099 C 
BRANCH  27  28
ATOM     28  N   UNL     1      -5.716   1.772  25.518  0.00  0.00    -0.267 NA
ATOM     29  C   UNL     1      -6.325   1.907  24.978  0.00  0.00    +0.090 C 
ATOM     30  C   UNL     1      -5.798   2.015  26.302  0.00  0.00    +0.090 C 
ENDBRANCH  27  28
ENDBRANCH  26  27
ENDBRANCH  16  21
BRANCH   4   2
ATOM      1  C   UNL     1      -3.562   3.148  24.782  0.00  0.00    +0.023 C 
ATOM      2  C   UNL     1      -2.711   2.608  24.669  0.00  0.00    +0.097 C 
ATOM      3  C   UNL     1      -2.688   2.535  23.826  0.00  0.00    +0.023 C 
ENDBRANCH   4   2
TORSDOF 4
ENDMDL
MODEL 7
REMARK VINA RESULT:     -13.7      2.068      3.159
REMARK  Name = 
REMARK  4 active torsions:
REMARK  status: ('A' for Active; 'I' for Inactive)
REMARK    1  A    between atoms: C_2  and  N_4
REMARK    2  A    between atoms: C_16  and  C_21
REMARK    3  A    between atoms: C_26  and  C_27
REMARK    4  A    between atoms: C_27  and  N_28
REMARK                            x       y       z     vdW  Elec       q    Type
REMARK                         _______ _______ _______ _____ _____    ______ ____
ROOT
ATOM      4  N   UNL     1      -3.006   3.130  25.424  0.00  0.00    -0.190 NA
ATOM      5  C   UNL     1      -2.678   3.719  26.033  0.00  0.00    +0.323 C 
ATOM      6  O   UNL     1      -2.748   4.196  26.754  0.00  0.00    -0.251 OA
ATOM      7  N   UNL     1      -2.023   3.681  25.532  0.00  0.00    -0.262 N 
ATOM      8  C   UNL     1      -1.261   4.022  25.494  0.00  0.00    +0.097 C 
ATOM      9  C   UNL     1      -0.930   3.596  24.667  0.00  0.00    +0.043 C 
ATOM     10  C   UNL     1      -0.516   3.335  24.015  0.00  0.00    +0.011 C 
ATOM     11  C   UNL     1      -1.148   3.234  24.303  0.00  0.00    +0.058 C 
ATOM     12  C   UNL     1      -1.454   3.653  25.105  0.00  0.00    +0.101 C 
ATOM     13  C   UNL     1      -1.930   2.768  24.179  0.00  0.00    +0.041 A 
ATOM     14  C   UNL     1      -2.280   2.231  23.659  0.00  0.00    +0.013 A 
ATOM     15  C   UNL     1      -3.047   1.961  23.800  0.00  0.00    +0.006 A 
ATOM     16  C   UNL     1      -3.463   2.228  24.461  0.00  0.00    +0.056 A 
ATOM     17  C   UNL     1      -3.113   2.765  24.980  0.00  0.00    +0.261 A 
ATOM     18  O   UNL     1      -3.782   2.819  25.513  0.00  0.00    -0.267 OA
ATOM     19  N   UNL     1      -2.347   3.035  24.839  0.00  0.00    -0.299 N 
ATOM     20  C   UNL     1      -1.751   3.114  24.545  0.00  0.00    +0.110 C 
ENDROOT
BRANCH  16  21
ATOM     21  C   UNL     1      -4.230   1.958  24.601  0.00  0.00    +0.002 A 
ATOM     22  C   UNL     1      -4.873   2.458  24.476  0.00  0.00    -0.000 A 
ATOM     23  C   UNL     1      -5.641   2.186  24.617  0.00  0.00    -0.000 A 
ATOM     24  C   UNL     1      -5.762   1.415  24.883  0.00  0.00    -0.000 A 
ATOM     25  C   UNL     1      -5.118   0.915  25.008  0.00  0.00    -0.003 A 
ATOM     26  C   UNL     1      -4.352   1.186  24.868  0.00  0.00    -0.006 A 
BRANCH  26  27
ATOM     27  C   UNL     1      -4.351   0.310  25.161  0.00  0.00    +0.099 C 
BRANCH  27  28
ATOM     28  N   UNL     1      -3.994  -0.474  25.123  0.00  0.00    -0.267 NA
ATOM     29  C   UNL     1      -4.108  -0.948  24.457  0.00  0.00    +0.090 C 
ATOM     30  C   UNL     1      -3.538  -0.750  25.752  0.00  0.00    +0.090 C 
ENDBRANCH  27  28
ENDBRANCH  26  27
ENDBRANCH  16  21
BRANCH   4   2
ATOM      1  C   UNL     1      -2.669   1.626  24.216  0.00  0.00    +0.023 C 
ATOM      2  C   UNL     1      -3.007   2.518  24.560  0.00  0.00    +0.097 C 
ATOM      3  C   UNL     1      -3.411   2.803  23.872  0.00  0.00    +0.023 C 
ENDBRANCH   4   2
TORSDOF 4
ENDMDL
