MODEL 1
REMARK VINA RESULT:      -9.7      0.000      0.000
REMARK  Name = 
REMARK  8 active torsions:
REMARK  status: ('A' for Active; 'I' for Inactive)
REMARK    1  A    between atoms: O_2  and  C_3
REMARK    2  A    between atoms: C_3  and  C_4
REMARK    3  A    between atoms: C_6  and  C_7
REMARK    4  A    between atoms: C_7  and  C_8
REMARK    5  A    between atoms: C_13  and  C_14
REMARK    6  A    between atoms: C_14  and  N_15
REMARK    7  A    between atoms: N_18  and  C_19
REMARK    8  A    between atoms: C_24  and  O_25
REMARK                            x       y       z     vdW  Elec       q    Type
REMARK                         _______ _______ _______ _____ _____    ______ ____
ROOT
ATOM      8  C   UNL     1      -0.720   3.296  25.675  0.00  0.00    +0.121 C 
ATOM      9  C   UNL     1      -0.327   3.946  25.349  0.00  0.00    +0.033 C 
ATOM     10  C   UNL     1      -0.757   4.604  25.099  0.00  0.00    +0.038 C 
ATOM     11  C   UNL     1      -1.579   4.613  25.174  0.00  0.00    +0.181 C 
ATOM     12  O   UNL     1      -2.008   5.271  24.925  0.00  0.00    -0.220 OA
ATOM     13  C   UNL     1      -1.971   3.963  25.500  0.00  0.00    +0.167 C 
ATOM     27  O   UNL     1      -1.540   3.305  25.750  0.00  0.00    -0.354 OA
ENDROOT
BRANCH   8   7
ATOM      7  C   UNL     1      -0.289   2.638  25.924  0.00  0.00    +0.079 C 
BRANCH   7   6
ATOM      4  C   UNL     1      -0.532   0.666  25.145  0.00  0.00    +0.184 A 
ATOM      5  C   UNL     1      -0.612   1.213  25.755  0.00  0.00    +0.056 A 
ATOM      6  C   UNL     1      -0.316   1.937  25.491  0.00  0.00    +0.103 A 
ATOM     28  N   UNL     1      -0.053   1.836  24.715  0.00  0.00    -0.082 NA
ATOM     29  O   UNL     1      -0.186   1.050  24.501  0.00  0.00    -0.356 OA
BRANCH   4   3
ATOM      3  C   UNL     1      -0.757  -0.127  25.171  0.00  0.00    +0.209 C 
BRANCH   3   2
ATOM      1  C   UNL     1      -0.962  -1.378  24.511  0.00  0.00    +0.175 C 
ATOM      2  O   UNL     1      -0.709  -0.593  24.491  0.00  0.00    -0.343 OA
ENDBRANCH   3   2
ENDBRANCH   4   3
ENDBRANCH   7   6
ENDBRANCH   8   7
BRANCH  13  14
ATOM     14  C   UNL     1      -2.792   3.973  25.575  0.00  0.00    +0.149 C 
BRANCH  14  15
ATOM     15  N   UNL     1      -3.248   3.408  25.184  0.00  0.00    -0.184 NA
ATOM     16  C   UNL     1      -4.040   3.302  25.390  0.00  0.00    +0.344 C 
ATOM     17  O   UNL     1      -4.375   3.761  25.988  0.00  0.00    -0.249 OA
ATOM     18  N   UNL     1      -4.497   2.737  24.999  0.00  0.00    -0.158 NA
BRANCH  18  19
ATOM     19  C   UNL     1      -4.162   2.277  24.401  0.00  0.00    +0.109 A 
ATOM     20  C   UNL     1      -3.859   2.639  23.724  0.00  0.00    +0.020 A 
ATOM     21  C   UNL     1      -3.523   2.180  23.126  0.00  0.00    +0.002 A 
ATOM     22  C   UNL     1      -3.491   1.359  23.205  0.00  0.00    +0.003 A 
ATOM     23  C   UNL     1      -3.795   0.998  23.882  0.00  0.00    +0.038 A 
ATOM     24  C   UNL     1      -4.130   1.457  24.480  0.00  0.00    +0.154 A 
BRANCH  24  25
ATOM     25  O   UNL     1      -4.433   1.096  25.156  0.00  0.00    -0.470 OA
ATOM     26  C   UNL     1      -4.472   0.272  25.202  0.00  0.00    +0.253 C 
ENDBRANCH  24  25
ENDBRANCH  18  19
ENDBRANCH  14  15
ENDBRANCH  13  14
TORSDOF 8
ENDMDL
MODEL 2
REMARK VINA RESULT:      -9.6      1.308      3.512
REMARK  Name = 
REMARK  8 active torsions:
REMARK  status: ('A' for Active; 'I' for Inactive)
REMARK    1  A    between atoms: O_2  and  C_3
REMARK    2  A    between atoms: C_3  and  C_4
REMARK    3  A    between atoms: C_6  and  C_7
REMARK    4  A    between atoms: C_7  and  C_8
REMARK    5  A    between atoms: C_13  and  C_14
REMARK    6  A    between atoms: C_14  and  N_15
REMARK    7  A    between atoms: N_18  and  C_19
REMARK    8  A    between atoms: C_24  and  O_25
REMARK                            x       y       z     vdW  Elec       q    Type
REMARK                         _______ _______ _______ _____ _____    ______ ____
ROOT
ATOM      8  C   UNL     1      -2.645  -0.750  25.208  0.00  0.00    +0.121 C 
ATOM      9  C   UNL     1      -2.745  -1.387  24.692  0.00  0.00    +0.033 C 
ATOM     10  C   UNL     1      -3.468  -1.501  24.313  0.00  0.00    +0.038 C 
ATOM     11  C   UNL     1      -4.092  -0.978  24.448  0.00  0.00    +0.181 C 
ATOM     12  O   UNL     1      -4.816  -1.092  24.069  0.00  0.00    -0.220 OA
ATOM     13  C   UNL     1      -3.992  -0.340  24.963  0.00  0.00    +0.167 C 
ATOM     27  O   UNL     1      -3.268  -0.227  25.342  0.00  0.00    -0.354 OA
ENDROOT
BRANCH   8   7
ATOM      7  C   UNL     1      -1.921  -0.636  25.587  0.00  0.00    +0.079 C 
BRANCH   7   6
ATOM      4  C   UNL     1      -0.561   0.947  25.137  0.00  0.00    +0.184 A 
ATOM      5  C   UNL     1      -1.107   0.587  25.639  0.00  0.00    +0.056 A 
ATOM      6  C   UNL     1      -1.371  -0.106  25.277  0.00  0.00    +0.103 A 
ATOM     28  N   UNL     1      -0.987  -0.174  24.550  0.00  0.00    -0.082 NA
ATOM     29  O   UNL     1      -0.487   0.476  24.463  0.00  0.00    -0.356 OA
BRANCH   4   3
ATOM      3  C   UNL     1      -0.160   1.652  25.282  0.00  0.00    +0.209 C 
BRANCH   3   2
ATOM      1  C   UNL     1       0.170   2.732  26.158  0.00  0.00    +0.175 C 
ATOM      2  O   UNL     1      -0.248   2.037  26.007  0.00  0.00    -0.343 OA
ENDBRANCH   3   2
ENDBRANCH   4   3
ENDBRANCH   7   6
ENDBRANCH   8   7
BRANCH  13  14
ATOM     14  C   UNL     1      -4.615   0.182  25.098  0.00  0.00    +0.149 C 
BRANCH  14  15
ATOM     15  N   UNL     1      -4.520   0.986  24.942  0.00  0.00    -0.184 NA
ATOM     16  C   UNL     1      -5.051   1.534  25.258  0.00  0.00    +0.344 C 
ATOM     17  O   UNL     1      -5.676   1.276  25.730  0.00  0.00    -0.249 OA
ATOM     18  N   UNL     1      -4.956   2.339  25.103  0.00  0.00    -0.158 NA
BRANCH  18  19
ATOM     19  C   UNL     1      -4.329   2.597  24.630  0.00  0.00    +0.109 A 
ATOM     20  C   UNL     1      -4.268   2.337  23.850  0.00  0.00    +0.020 A 
ATOM     21  C   UNL     1      -3.642   2.594  23.378  0.00  0.00    +0.002 A 
ATOM     22  C   UNL     1      -3.078   3.112  23.687  0.00  0.00    +0.003 A 
ATOM     23  C   UNL     1      -3.141   3.371  24.467  0.00  0.00    +0.038 A 
ATOM     24  C   UNL     1      -3.766   3.113  24.939  0.00  0.00    +0.154 A 
BRANCH  24  25
ATOM     25  O   UNL     1      -3.828   3.373  25.719  0.00  0.00    -0.470 OA
ATOM     26  C   UNL     1      -3.304   3.942  26.008  0.00  0.00    +0.253 C 
ENDBRANCH  24  25
ENDBRANCH  18  19
ENDBRANCH  14  15
ENDBRANCH  13  14
TORSDOF 8
ENDMDL
MODEL 3
REMARK VINA RESULT:      -9.6      1.234      1.795
REMARK  Name = 
REMARK  8 active torsions:
REMARK  status: ('A' for Active; 'I' for Inactive)
REMARK    1  A    between atoms: O_2  and  C_3
REMARK    2  A    between atoms: C_3  and  C_4
REMARK    3  A    between atoms: C_6  and  C_7
REMARK    4  A    between atoms: C_7  and  C_8
REMARK    5  A    between atoms: C_13  and  C_14
REMARK    6  A    between atoms: C_14  and  N_15
REMARK    7  A    between atoms: N_18  and  C_19
REMARK    8  A    between atoms: C_24  and  O_25
REMARK                            x       y       z     vdW  Elec       q    Type
REMARK                         _______ _______ _______ _____ _____    ______ ____
ROOT
ATOM      8  C   UNL     1      -0.777   1.681  25.536  0.00  0.00    +0.121 C 
ATOM      9  C   UNL     1      -0.097   1.956  25.156  0.00  0.00    +0.033 C 
ATOM     10  C   UNL     1      -0.001   2.763  25.018  0.00  0.00    +0.038 C 
ATOM     11  C   UNL     1      -0.584   3.296  25.258  0.00  0.00    +0.181 C 
ATOM     12  O   UNL     1      -0.488   4.103  25.120  0.00  0.00    -0.220 OA
ATOM     13  C   UNL     1      -1.264   3.020  25.638  0.00  0.00    +0.167 C 
ATOM     27  O   UNL     1      -1.359   2.213  25.776  0.00  0.00    -0.354 OA
ENDROOT
BRANCH   8   7
ATOM      7  C   UNL     1      -0.873   0.873  25.674  0.00  0.00    +0.079 C 
BRANCH   7   6
ATOM      4  C   UNL     1      -2.352  -0.384  24.786  0.00  0.00    +0.184 A 
ATOM      5  C   UNL     1      -2.005  -0.039  25.449  0.00  0.00    +0.056 A 
ATOM      6  C   UNL     1      -1.373   0.428  25.193  0.00  0.00    +0.103 A 
ATOM     28  N   UNL     1      -1.331   0.370  24.371  0.00  0.00    -0.082 NA
ATOM     29  O   UNL     1      -1.936  -0.132  24.120  0.00  0.00    -0.356 OA
BRANCH   4   3
ATOM      3  C   UNL     1      -3.002  -0.892  24.788  0.00  0.00    +0.209 C 
BRANCH   3   2
ATOM      1  C   UNL     1      -4.152  -1.433  24.135  0.00  0.00    +0.175 C 
ATOM      2  O   UNL     1      -3.494  -0.935  24.127  0.00  0.00    -0.343 OA
ENDBRANCH   3   2
ENDBRANCH   4   3
ENDBRANCH   7   6
ENDBRANCH   8   7
BRANCH  13  14
ATOM     14  C   UNL     1      -1.846   3.552  25.878  0.00  0.00    +0.149 C 
BRANCH  14  15
ATOM     15  N   UNL     1      -2.612   3.488  25.580  0.00  0.00    -0.184 NA
ATOM     16  C   UNL     1      -3.234   3.886  25.949  0.00  0.00    +0.344 C 
ATOM     17  O   UNL     1      -3.088   4.348  26.617  0.00  0.00    -0.249 OA
ATOM     18  N   UNL     1      -4.000   3.821  25.652  0.00  0.00    -0.158 NA
BRANCH  18  19
ATOM     19  C   UNL     1      -4.146   3.359  24.983  0.00  0.00    +0.109 A 
ATOM     20  C   UNL     1      -3.775   3.539  24.268  0.00  0.00    +0.020 A 
ATOM     21  C   UNL     1      -3.920   3.077  23.601  0.00  0.00    +0.002 A 
ATOM     22  C   UNL     1      -4.436   2.434  23.648  0.00  0.00    +0.003 A 
ATOM     23  C   UNL     1      -4.807   2.255  24.363  0.00  0.00    +0.038 A 
ATOM     24  C   UNL     1      -4.661   2.717  25.030  0.00  0.00    +0.154 A 
BRANCH  24  25
ATOM     25  O   UNL     1      -5.032   2.537  25.745  0.00  0.00    -0.470 OA
ATOM     26  C   UNL     1      -5.675   2.019  25.757  0.00  0.00    +0.253 C 
ENDBRANCH  24  25
ENDBRANCH  18  19
ENDBRANCH  14  15
ENDBRANCH  13  14
TORSDOF 8
ENDMDL
MODEL 4
REMARK VINA RESULT:      -9.4      1.283      3.397
REMARK  Name = 
REMARK  8 active torsions:
REMARK  status: ('A' for Active; 'I' for Inactive)
REMARK    1  A    between atoms: O_2  and  C_3
REMARK    2  A    between atoms: C_3  and  C_4
REMARK    3  A    between atoms: C_6  and  C_7
REMARK    4  A    between atoms: C_7  and  C_8
REMARK    5  A    between atoms: C_13  and  C_14
REMARK    6  A    between atoms: C_14  and  N_15
REMARK    7  A    between atoms: N_18  and  C_19
REMARK    8  A    between atoms: C_24  and  O_25
REMARK                            x       y       z     vdW  Elec       q    Type
REMARK                         _______ _______ _______ _____ _____    ______ ____
ROOT
ATOM      8  C   UNL     1      -2.322   4.013  25.768  0.00  0.00    +0.121 C 
ATOM      9  C   UNL     1      -1.915   4.623  25.388  0.00  0.00    +0.033 C 
ATOM     10  C   UNL     1      -1.172   4.481  25.060  0.00  0.00    +0.038 C 
ATOM     11  C   UNL     1      -0.835   3.729  25.111  0.00  0.00    +0.181 C 
ATOM     12  O   UNL     1      -0.092   3.587  24.783  0.00  0.00    -0.220 OA
ATOM     13  C   UNL     1      -1.242   3.119  25.491  0.00  0.00    +0.167 C 
ATOM     27  O   UNL     1      -1.985   3.262  25.819  0.00  0.00    -0.354 OA
ENDROOT
BRANCH   8   7
ATOM      7  C   UNL     1      -3.065   4.156  26.097  0.00  0.00    +0.079 C 
BRANCH   7   6
ATOM      4  C   UNL     1      -4.894   3.225  25.508  0.00  0.00    +0.184 A 
ATOM      5  C   UNL     1      -4.316   3.383  26.074  0.00  0.00    +0.056 A 
ATOM      6  C   UNL     1      -3.743   3.865  25.727  0.00  0.00    +0.103 A 
ATOM     28  N   UNL     1      -3.967   4.005  24.946  0.00  0.00    -0.082 NA
ATOM     29  O   UNL     1      -4.678   3.609  24.810  0.00  0.00    -0.356 OA
BRANCH   4   3
ATOM      3  C   UNL     1      -5.569   2.764  25.619  0.00  0.00    +0.209 C 
BRANCH   3   2
ATOM      1  C   UNL     1      -6.495   1.798  25.119  0.00  0.00    +0.175 C 
ATOM      2  O   UNL     1      -5.888   2.341  24.986  0.00  0.00    -0.343 OA
ENDBRANCH   3   2
ENDBRANCH   4   3
ENDBRANCH   7   6
ENDBRANCH   8   7
BRANCH  13  14
ATOM     14  C   UNL     1      -0.905   2.369  25.542  0.00  0.00    +0.149 C 
BRANCH  14  15
ATOM     15  N   UNL     1      -1.298   1.718  25.224  0.00  0.00    -0.184 NA
ATOM     16  C   UNL     1      -1.087   0.954  25.455  0.00  0.00    +0.344 C 
ATOM     17  O   UNL     1      -0.482   0.842  26.005  0.00  0.00    -0.249 OA
ATOM     18  N   UNL     1      -1.480   0.302  25.137  0.00  0.00    -0.158 NA
BRANCH  18  19
ATOM     19  C   UNL     1      -2.086   0.414  24.586  0.00  0.00    +0.109 A 
ATOM     20  C   UNL     1      -1.939   0.835  23.892  0.00  0.00    +0.020 A 
ATOM     21  C   UNL     1      -2.544   0.947  23.342  0.00  0.00    +0.002 A 
ATOM     22  C   UNL     1      -3.296   0.638  23.487  0.00  0.00    +0.003 A 
ATOM     23  C   UNL     1      -3.441   0.217  24.181  0.00  0.00    +0.038 A 
ATOM     24  C   UNL     1      -2.837   0.105  24.731  0.00  0.00    +0.154 A 
BRANCH  24  25
ATOM     25  O   UNL     1      -2.983  -0.316  25.425  0.00  0.00    -0.470 OA
ATOM     26  C   UNL     1      -3.690  -0.734  25.513  0.00  0.00    +0.253 C 
ENDBRANCH  24  25
ENDBRANCH  18  19
ENDBRANCH  14  15
ENDBRANCH  13  14
TORSDOF 8
ENDMDL
MODEL 5
REMARK VINA RESULT:      -9.3      1.326      3.670
REMARK  Name = 
REMARK  8 active torsions:
REMARK  status: ('A' for Active; 'I' for Inactive)
REMARK    1  A    between atoms: O_2  and  C_3
REMARK    2  A    between atoms: C_3  and  C_4
REMARK    3  A    between atoms: C_6  and  C_7
REMARK    4  A    between atoms: C_7  and  C_8
REMARK    5  A    between atoms: C_13  and  C_14
REMARK    6  A    between atoms: C_14  and  N_15
REMARK    7  A    between atoms: N_18  and  C_19
REMARK    8  A    between atoms: C_24  and  O_25
REMARK                            x       y       z     vdW  Elec       q    Type
REMARK                         _______ _______ _______ _____ _____    ______ ____
ROOT
ATOM      8  C   UNL     1      -4.002   2.422  24.669  0.00  0.00    +0.121 C 
ATOM      9  C   UNL     1      -4.377   2.883  25.243  0.00  0.00    +0.033 C 
ATOM     10  C   UNL     1      -3.957   3.474  25.636  0.00  0.00    +0.038 C 
ATOM     11  C   UNL     1      -3.162   3.605  25.456  0.00  0.00    +0.181 C 
ATOM     12  O   UNL     1      -2.743   4.196  25.849  0.00  0.00    -0.220 OA
ATOM     13  C   UNL     1      -2.787   3.144  24.883  0.00  0.00    +0.167 C 
ATOM     27  O   UNL     1      -3.208   2.553  24.490  0.00  0.00    -0.354 OA
ENDROOT
BRANCH   8   7
ATOM      7  C   UNL     1      -4.423   1.831  24.276  0.00  0.00    +0.079 C 
BRANCH   7   6
ATOM      4  C   UNL     1      -4.195  -0.273  24.557  0.00  0.00    +0.184 A 
ATOM      5  C   UNL     1      -4.168   0.396  24.077  0.00  0.00    +0.056 A 
ATOM      6  C   UNL     1      -4.378   1.050  24.536  0.00  0.00    +0.103 A 
ATOM     28  N   UNL     1      -4.534   0.782  25.301  0.00  0.00    -0.082 NA
ATOM     29  O   UNL     1      -4.421  -0.035  25.314  0.00  0.00    -0.356 OA
BRANCH   4   3
ATOM      3  C   UNL     1      -4.025  -1.046  24.323  0.00  0.00    +0.209 C 
BRANCH   3   2
ATOM      1  C   UNL     1      -3.602  -2.371  24.647  0.00  0.00    +0.175 C 
ATOM      2  O   UNL     1      -3.819  -1.612  24.886  0.00  0.00    -0.343 OA
ENDBRANCH   3   2
ENDBRANCH   4   3
ENDBRANCH   7   6
ENDBRANCH   8   7
BRANCH  13  14
ATOM     14  C   UNL     1      -1.994   3.275  24.703  0.00  0.00    +0.149 C 
BRANCH  14  15
ATOM     15  N   UNL     1      -1.454   2.653  24.743  0.00  0.00    -0.184 NA
ATOM     16  C   UNL     1      -0.694   2.744  24.434  0.00  0.00    +0.344 C 
ATOM     17  O   UNL     1      -0.475   3.458  24.084  0.00  0.00    -0.249 OA
ATOM     18  N   UNL     1      -0.154   2.122  24.473  0.00  0.00    -0.158 NA
BRANCH  18  19
ATOM     19  C   UNL     1      -0.373   1.407  24.824  0.00  0.00    +0.109 A 
ATOM     20  C   UNL     1      -0.632   1.394  25.607  0.00  0.00    +0.020 A 
ATOM     21  C   UNL     1      -0.851   0.680  25.957  0.00  0.00    +0.002 A 
ATOM     22  C   UNL     1      -0.811  -0.022  25.524  0.00  0.00    +0.003 A 
ATOM     23  C   UNL     1      -0.552  -0.008  24.740  0.00  0.00    +0.038 A 
ATOM     24  C   UNL     1      -0.333   0.707  24.391  0.00  0.00    +0.154 A 
BRANCH  24  25
ATOM     25  O   UNL     1      -0.075   0.720  23.608  0.00  0.00    -0.470 OA
ATOM     26  C   UNL     1       0.236   0.036  23.264  0.00  0.00    +0.253 C 
ENDBRANCH  24  25
ENDBRANCH  18  19
ENDBRANCH  14  15
ENDBRANCH  13  14
TORSDOF 8
ENDMDL
MODEL 6
REMARK VINA RESULT:      -9.3      1.359      4.829
REMARK  Name = 
REMARK  8 active torsions:
REMARK  status: ('A' for Active; 'I' for Inactive)
REMARK    1  A    between atoms: O_2  and  C_3
REMARK    2  A    between atoms: C_3  and  C_4
REMARK    3  A    between atoms: C_6  and  C_7
REMARK    4  A    between atoms: C_7  and  C_8
REMARK    5  A    between atoms: C_13  and  C_14
REMARK    6  A    between atoms: C_14  and  N_15
REMARK    7  A    between atoms: N_18  and  C_19
REMARK    8  A    between atoms: C_24  and  O_25
REMARK                            x       y       z     vdW  Elec       q    Type
REMARK                         _______ _______ _______ _____ _____    ______ ____
ROOT
ATOM      8  C   UNL     1      -2.876  -0.474  24.476  0.00  0.00    +0.121 C 
ATOM      9  C   UNL     1      -2.926  -1.103  25.009  0.00  0.00    +0.033 C 
ATOM     10  C   UNL     1      -2.240  -1.417  25.341  0.00  0.00    +0.038 C 
ATOM     11  C   UNL     1      -1.503  -1.105  25.141  0.00  0.00    +0.181 C 
ATOM     12  O   UNL     1      -0.817  -1.419  25.473  0.00  0.00    -0.220 OA
ATOM     13  C   UNL     1      -1.453  -0.476  24.608  0.00  0.00    +0.167 C 
ATOM     27  O   UNL     1      -2.140  -0.161  24.276  0.00  0.00    -0.354 OA
ENDROOT
BRANCH   8   7
ATOM      7  C   UNL     1      -3.563  -0.159  24.144  0.00  0.00    +0.079 C 
BRANCH   7   6
ATOM      4  C   UNL     1      -4.449   1.660  24.822  0.00  0.00    +0.184 A 
ATOM      5  C   UNL     1      -3.989   1.241  24.281  0.00  0.00    +0.056 A 
ATOM      6  C   UNL     1      -3.963   0.453  24.525  0.00  0.00    +0.103 A 
ATOM     28  N   UNL     1      -4.407   0.386  25.217  0.00  0.00    -0.082 NA
ATOM     29  O   UNL     1      -4.708   1.131  25.400  0.00  0.00    -0.356 OA
BRANCH   4   3
ATOM      3  C   UNL     1      -4.622   2.466  24.791  0.00  0.00    +0.209 C 
BRANCH   3   2
ATOM      1  C   UNL     1      -4.782   3.724  25.449  0.00  0.00    +0.175 C 
ATOM      2  O   UNL     1      -4.613   2.917  25.482  0.00  0.00    -0.343 OA
ENDBRANCH   3   2
ENDBRANCH   4   3
ENDBRANCH   7   6
ENDBRANCH   8   7
BRANCH  13  14
ATOM     14  C   UNL     1      -0.717  -0.163  24.408  0.00  0.00    +0.149 C 
BRANCH  14  15
ATOM     15  N   UNL     1      -0.541   0.623  24.585  0.00  0.00    -0.184 NA
ATOM     16  C   UNL     1       0.027   1.028  24.144  0.00  0.00    +0.344 C 
ATOM     17  O   UNL     1       0.418   0.647  23.526  0.00  0.00    -0.249 OA
ATOM     18  N   UNL     1       0.203   1.815  24.320  0.00  0.00    -0.158 NA
BRANCH  18  19
ATOM     19  C   UNL     1      -0.189   2.197  24.938  0.00  0.00    +0.109 A 
ATOM     20  C   UNL     1      -0.080   1.941  25.715  0.00  0.00    +0.020 A 
ATOM     21  C   UNL     1      -0.472   2.323  26.333  0.00  0.00    +0.002 A 
ATOM     22  C   UNL     1      -0.972   2.960  26.174  0.00  0.00    +0.003 A 
ATOM     23  C   UNL     1      -1.080   3.215  25.397  0.00  0.00    +0.038 A 
ATOM     24  C   UNL     1      -0.688   2.834  24.779  0.00  0.00    +0.154 A 
BRANCH  24  25
ATOM     25  O   UNL     1      -0.796   3.089  24.003  0.00  0.00    -0.470 OA
ATOM     26  C   UNL     1      -1.169   3.811  23.853  0.00  0.00    +0.253 C 
ENDBRANCH  24  25
ENDBRANCH  18  19
ENDBRANCH  14  15
ENDBRANCH  13  14
TORSDOF 8
ENDMDL
MODEL 7
REMARK VINA RESULT:      -9.3      1.733      4.188
REMARK  Name = 
REMARK  8 active torsions:
REMARK  status: ('A' for Active; 'I' for Inactive)
REMARK    1  A    between atoms: O_2  and  C_3
REMARK    2  A    between atoms: C_3  and  C_4
REMARK    3  A    between atoms: C_6  and  C_7
REMARK    4  A    between atoms: C_7  and  C_8
REMARK    5  A    between atoms: C_13  and  C_14
REMARK    6  A    between atoms: C_14  and  N_15
REMARK    7  A    between atoms: N_18  and  C_19
REMARK    8  A    between atoms: C_24  and  O_25
REMARK                            x       y       z     vdW  Elec       q    Type
REMARK                         _______ _______ _______ _____ _____    ______ ____
ROOT
ATOM      8  C   UNL     1      -1.894   1.999  23.620  0.00  0.00    +0.121 C 
ATOM      9  C   UNL     1      -1.459   2.633  23.923  0.00  0.00    +0.033 C 
ATOM     10  C   UNL     1      -0.745   2.494  24.311  0.00  0.00    +0.038 C 
ATOM     11  C   UNL     1      -0.464   1.723  24.397  0.00  0.00    +0.181 C 
ATOM     12  O   UNL     1       0.250   1.584  24.785  0.00  0.00    -0.220 OA
ATOM     13  C   UNL     1      -0.900   1.089  24.094  0.00  0.00    +0.167 C 
ATOM     27  O   UNL     1      -1.614   1.229  23.706  0.00  0.00    -0.354 OA
ENDROOT
BRANCH   8   7
ATOM      7  C   UNL     1      -2.609   2.139  23.231  0.00  0.00    +0.079 C 
BRANCH   7   6
ATOM      4  C   UNL     1      -4.431   2.367  24.319  0.00  0.00    +0.184 A 
ATOM      5  C   UNL     1      -3.889   1.897  23.913  0.00  0.00    +0.056 A 
ATOM      6  C   UNL     1      -3.270   2.382  23.659  0.00  0.00    +0.103 A 
ATOM     28  N   UNL     1      -3.432   3.151  23.908  0.00  0.00    -0.082 NA
ATOM     29  O   UNL     1      -4.149   3.143  24.316  0.00  0.00    -0.356 OA
BRANCH   4   3
ATOM      3  C   UNL     1      -5.133   2.109  24.666  0.00  0.00    +0.209 C 
BRANCH   3   2
ATOM      1  C   UNL     1      -5.937   1.907  25.831  0.00  0.00    +0.175 C 
ATOM      2  O   UNL     1      -5.229   2.154  25.485  0.00  0.00    -0.343 OA
ENDBRANCH   3   2
ENDBRANCH   4   3
ENDBRANCH   7   6
ENDBRANCH   8   7
BRANCH  13  14
ATOM     14  C   UNL     1      -0.620   0.319  24.180  0.00  0.00    +0.149 C 
BRANCH  14  15
ATOM     15  N   UNL     1      -1.112  -0.267  24.488  0.00  0.00    -0.184 NA
ATOM     16  C   UNL     1      -0.904  -1.062  24.414  0.00  0.00    +0.344 C 
ATOM     17  O   UNL     1      -0.204  -1.271  24.031  0.00  0.00    -0.249 OA
ATOM     18  N   UNL     1      -1.396  -1.649  24.722  0.00  0.00    -0.158 NA
BRANCH  18  19
ATOM     19  C   UNL     1      -2.097  -1.439  25.105  0.00  0.00    +0.109 A 
ATOM     20  C   UNL     1      -2.075  -0.937  25.759  0.00  0.00    +0.020 A 
ATOM     21  C   UNL     1      -2.775  -0.727  26.142  0.00  0.00    +0.002 A 
ATOM     22  C   UNL     1      -3.498  -1.021  25.871  0.00  0.00    +0.003 A 
ATOM     23  C   UNL     1      -3.519  -1.523  25.217  0.00  0.00    +0.038 A 
ATOM     24  C   UNL     1      -2.819  -1.732  24.834  0.00  0.00    +0.154 A 
BRANCH  24  25
ATOM     25  O   UNL     1      -2.840  -2.234  24.181  0.00  0.00    -0.470 OA
ATOM     26  C   UNL     1      -3.522  -2.673  24.020  0.00  0.00    +0.253 C 
ENDBRANCH  24  25
ENDBRANCH  18  19
ENDBRANCH  14  15
ENDBRANCH  13  14
TORSDOF 8
ENDMDL
MODEL 8
REMARK VINA RESULT:      -9.2      1.453      4.817
REMARK  Name = 
REMARK  8 active torsions:
REMARK  status: ('A' for Active; 'I' for Inactive)
REMARK    1  A    between atoms: O_2  and  C_3
REMARK    2  A    between atoms: C_3  and  C_4
REMARK    3  A    between atoms: C_6  and  C_7
REMARK    4  A    between atoms: C_7  and  C_8
REMARK    5  A    between atoms: C_13  and  C_14
REMARK    6  A    between atoms: C_14  and  N_15
REMARK    7  A    between atoms: N_18  and  C_19
REMARK    8  A    between atoms: C_24  and  O_25
REMARK                            x       y       z     vdW  Elec       q    Type
REMARK                         _______ _______ _______ _____ _____    ______ ____
ROOT
ATOM      8  C   UNL     1      -4.383   0.150  24.841  0.00  0.00    +0.121 C 
ATOM      9  C   UNL     1      -4.691  -0.371  24.280  0.00  0.00    +0.033 C 
ATOM     10  C   UNL     1      -4.274  -1.053  24.078  0.00  0.00    +0.038 C 
ATOM     11  C   UNL     1      -3.549  -1.215  24.437  0.00  0.00    +0.181 C 
ATOM     12  O   UNL     1      -3.132  -1.897  24.235  0.00  0.00    -0.220 OA
ATOM     13  C   UNL     1      -3.241  -0.694  24.998  0.00  0.00    +0.167 C 
ATOM     27  O   UNL     1      -3.659  -0.011  25.200  0.00  0.00    -0.354 OA
ENDROOT
BRANCH   8   7
ATOM      7  C   UNL     1      -4.801   0.833  25.043  0.00  0.00    +0.079 C 
BRANCH   7   6
ATOM      4  C   UNL     1      -4.100   2.839  24.841  0.00  0.00    +0.184 A 
ATOM      5  C   UNL     1      -4.370   2.214  25.305  0.00  0.00    +0.056 A 
ATOM      6  C   UNL     1      -4.522   1.572  24.808  0.00  0.00    +0.103 A 
ATOM     28  N   UNL     1      -4.346   1.802  24.036  0.00  0.00    -0.082 NA
ATOM     29  O   UNL     1      -4.085   2.584  24.055  0.00  0.00    -0.356 OA
BRANCH   4   3
ATOM      3  C   UNL     1      -3.883   3.587  25.111  0.00  0.00    +0.209 C 
BRANCH   3   2
ATOM      1  C   UNL     1      -3.136   4.401  26.017  0.00  0.00    +0.175 C 
ATOM      2  O   UNL     1      -3.430   3.662  25.797  0.00  0.00    -0.343 OA
ENDBRANCH   3   2
ENDBRANCH   4   3
ENDBRANCH   7   6
ENDBRANCH   8   7
BRANCH  13  14
ATOM     14  C   UNL     1      -2.516  -0.855  25.357  0.00  0.00    +0.149 C 
BRANCH  14  15
ATOM     15  N   UNL     1      -1.887  -0.330  25.270  0.00  0.00    -0.184 NA
ATOM     16  C   UNL     1      -1.248  -0.361  25.792  0.00  0.00    +0.344 C 
ATOM     17  O   UNL     1      -1.240  -0.917  26.401  0.00  0.00    -0.249 OA
ATOM     18  N   UNL     1      -0.618   0.165  25.705  0.00  0.00    -0.158 NA
BRANCH  18  19
ATOM     19  C   UNL     1      -0.626   0.722  25.095  0.00  0.00    +0.109 A 
ATOM     20  C   UNL     1      -0.690   0.473  24.311  0.00  0.00    +0.020 A 
ATOM     21  C   UNL     1      -0.698   1.029  23.702  0.00  0.00    +0.002 A 
ATOM     22  C   UNL     1      -0.642   1.834  23.877  0.00  0.00    +0.003 A 
ATOM     23  C   UNL     1      -0.578   2.082  24.661  0.00  0.00    +0.038 A 
ATOM     24  C   UNL     1      -0.570   1.525  25.270  0.00  0.00    +0.154 A 
BRANCH  24  25
ATOM     25  O   UNL     1      -0.506   1.773  26.054  0.00  0.00    -0.470 OA
ATOM     26  C   UNL     1      -0.158   2.502  26.229  0.00  0.00    +0.253 C 
ENDBRANCH  24  25
ENDBRANCH  18  19
ENDBRANCH  14  15
ENDBRANCH  13  14
TORSDOF 8
ENDMDL
MODEL 9
REMARK VINA RESULT:      -9.1      1.534      3.730
REMARK  Name = 
REMARK  8 active torsions:
REMARK  status: ('A' for Active; 'I' for Inactive)
REMARK    1  A    between atoms: O_2  and  C_3
REMARK    2  A    between atoms: C_3  and  C_4
REMARK    3  A    between atoms: C_6  and  C_7
REMARK    4  A    between atoms: C_7  and  C_8
REMARK    5  A    between atoms: C_13  and  C_14
REMARK    6  A    between atoms: C_14  and  N_15
REMARK    7  A    between atoms: N_18  and  C_19
REMARK    8  A    between atoms: C_24  and  O_25
REMARK                            x       y       z     vdW  Elec       q    Type
REMARK                         _______ _______ _______ _____ _____    ______ ____
ROOT
ATOM      8  C   UNL     1      -4.822   1.054  24.749  0.00  0.00    +0.121 C 
ATOM      9  C   UNL     1      -5.279   1.508  25.266  0.00  0.00    +0.033 C 
ATOM     10  C   UNL     1      -5.159   2.322  25.317  0.00  0.00    +0.038 C 
ATOM     11  C   UNL     1      -4.582   2.684  24.851  0.00  0.00    +0.181 C 
ATOM     12  O   UNL     1      -4.461   3.498  24.902  0.00  0.00    -0.220 OA
ATOM     13  C   UNL     1      -4.124   2.231  24.334  0.00  0.00    +0.167 C 
ATOM     27  O   UNL     1      -4.245   1.416  24.283  0.00  0.00    -0.354 OA
ENDROOT
BRANCH   8   7
ATOM      7  C   UNL     1      -4.943   0.240  24.698  0.00  0.00    +0.079 C 
BRANCH   7   6
ATOM      4  C   UNL     1      -3.418  -1.245  24.863  0.00  0.00    +0.184 A 
ATOM      5  C   UNL     1      -3.993  -0.849  24.425  0.00  0.00    +0.056 A 
ATOM      6  C   UNL     1      -4.341  -0.281  24.913  0.00  0.00    +0.103 A 
ATOM     28  N   UNL     1      -3.981  -0.328  25.654  0.00  0.00    -0.082 NA
ATOM     29  O   UNL     1      -3.410  -0.923  25.623  0.00  0.00    -0.356 OA
BRANCH   4   3
ATOM      3  C   UNL     1      -2.935  -1.856  24.590  0.00  0.00    +0.209 C 
BRANCH   3   2
ATOM      1  C   UNL     1      -1.688  -2.552  24.624  0.00  0.00    +0.175 C 
ATOM      2  O   UNL     1      -2.200  -1.989  24.942  0.00  0.00    -0.343 OA
ENDBRANCH   3   2
ENDBRANCH   4   3
ENDBRANCH   7   6
ENDBRANCH   8   7
BRANCH  13  14
ATOM     14  C   UNL     1      -3.548   2.592  23.869  0.00  0.00    +0.149 C 
BRANCH  14  15
ATOM     15  N   UNL     1      -2.751   2.420  23.992  0.00  0.00    -0.184 NA
ATOM     16  C   UNL     1      -2.218   2.461  23.363  0.00  0.00    +0.344 C 
ATOM     17  O   UNL     1      -2.482   2.674  22.612  0.00  0.00    -0.249 OA
ATOM     18  N   UNL     1      -1.420   2.289  23.486  0.00  0.00    -0.158 NA
BRANCH  18  19
ATOM     19  C   UNL     1      -1.155   2.075  24.239  0.00  0.00    +0.109 A 
ATOM     20  C   UNL     1      -1.263   2.590  24.875  0.00  0.00    +0.020 A 
ATOM     21  C   UNL     1      -0.998   2.376  25.627  0.00  0.00    +0.002 A 
ATOM     22  C   UNL     1      -0.626   1.648  25.742  0.00  0.00    +0.003 A 
ATOM     23  C   UNL     1      -0.519   1.135  25.106  0.00  0.00    +0.038 A 
ATOM     24  C   UNL     1      -0.784   1.348  24.354  0.00  0.00    +0.154 A 
BRANCH  24  25
ATOM     25  O   UNL     1      -0.676   0.835  23.718  0.00  0.00    -0.470 OA
ATOM     26  C   UNL     1      -0.013   0.343  23.692  0.00  0.00    +0.253 C 
ENDBRANCH  24  25
ENDBRANCH  18  19
ENDBRANCH  14  15
ENDBRANCH  13  14
TORSDOF 8
ENDMDL
MODEL 10
REMARK VINA RESULT:      -9.1      1.484      3.469
REMARK  Name = 
REMARK  8 active torsions:
REMARK  status: ('A' for Active; 'I' for Inactive)
REMARK    1  A    between atoms: O_2  and  C_3
REMARK    2  A    between atoms: C_3  and  C_4
REMARK    3  A    between atoms: C_6  and  C_7
REMARK    4  A    between atoms: C_7  and  C_8
REMARK    5  A    between atoms: C_13  and  C_14
REMARK    6  A    between atoms: C_14  and  N_15
REMARK    7  A    between atoms: N_18  and  C_19
REMARK    8  A    between atoms: C_24  and  O_25
REMARK                            x       y       z     vdW  Elec       q    Type
REMARK                         _______ _______ _______ _____ _____    ______ ____
ROOT
ATOM      8  C   UNL     1      -2.379  -0.049  25.234  0.00  0.00    +0.121 C 
ATOM      9  C   UNL     1      -2.921  -0.615  25.495  0.00  0.00    +0.033 C 
ATOM     10  C   UNL     1      -3.718  -0.546  25.294  0.00  0.00    +0.038 C 
ATOM     11  C   UNL     1      -3.975   0.088  24.833  0.00  0.00    +0.181 C 
ATOM     12  O   UNL     1      -4.771   0.157  24.632  0.00  0.00    -0.220 OA
ATOM     13  C   UNL     1      -3.433   0.655  24.572  0.00  0.00    +0.167 C 
ATOM     27  O   UNL     1      -2.636   0.585  24.773  0.00  0.00    -0.354 OA
ENDROOT
BRANCH   8   7
ATOM      7  C   UNL     1      -1.582  -0.118  25.435  0.00  0.00    +0.079 C 
BRANCH   7   6
ATOM      4  C   UNL     1      -0.060  -0.172  23.940  0.00  0.00    +0.184 A 
ATOM      5  C   UNL     1      -0.526   0.243  24.478  0.00  0.00    +0.056 A 
ATOM      6  C   UNL     1      -1.024  -0.297  24.855  0.00  0.00    +0.103 A 
ATOM     28  N   UNL     1      -0.865  -1.046  24.549  0.00  0.00    -0.082 NA
ATOM     29  O   UNL     1      -0.269  -0.970  23.984  0.00  0.00    -0.356 OA
BRANCH   4   3
ATOM      3  C   UNL     1       0.515   0.151  23.444  0.00  0.00    +0.209 C 
BRANCH   3   2
ATOM      1  C   UNL     1       1.671  -0.015  22.621  0.00  0.00    +0.175 C 
ATOM      2  O   UNL     1       1.055  -0.342  23.061  0.00  0.00    -0.343 OA
ENDBRANCH   3   2
ENDBRANCH   4   3
ENDBRANCH   7   6
ENDBRANCH   8   7
BRANCH  13  14
ATOM     14  C   UNL     1      -3.689   1.289  24.112  0.00  0.00    +0.149 C 
BRANCH  14  15
ATOM     15  N   UNL     1      -3.512   2.061  24.338  0.00  0.00    -0.184 NA
ATOM     16  C   UNL     1      -3.396   2.643  23.765  0.00  0.00    +0.344 C 
ATOM     17  O   UNL     1      -3.457   2.452  22.965  0.00  0.00    -0.249 OA
ATOM     18  N   UNL     1      -3.218   3.417  23.991  0.00  0.00    -0.158 NA
BRANCH  18  19
ATOM     19  C   UNL     1      -3.156   3.609  24.792  0.00  0.00    +0.109 A 
ATOM     20  C   UNL     1      -3.823   3.570  25.278  0.00  0.00    +0.020 A 
ATOM     21  C   UNL     1      -3.761   3.761  26.078  0.00  0.00    +0.002 A 
ATOM     22  C   UNL     1      -3.033   3.991  26.393  0.00  0.00    +0.003 A 
ATOM     23  C   UNL     1      -2.368   4.030  25.906  0.00  0.00    +0.038 A 
ATOM     24  C   UNL     1      -2.430   3.838  25.106  0.00  0.00    +0.154 A 
BRANCH  24  25
ATOM     25  O   UNL     1      -1.764   3.877  24.621  0.00  0.00    -0.470 OA
ATOM     26  C   UNL     1      -1.061   4.200  24.910  0.00  0.00    +0.253 C 
ENDBRANCH  24  25
ENDBRANCH  18  19
ENDBRANCH  14  15
ENDBRANCH  13  14
TORSDOF 8
ENDMDL
