REMARK  Name = 
REMARK  4 active torsions:
REMARK  status: ('A' for Active; 'I' for Inactive)
REMARK    1  A    between atoms: S_2  and  C_3
REMARK    2  A    between atoms: C_6  and  C_9
REMARK    3  A    between atoms: N_17  and  C_18
REMARK    4  A    between atoms: C_18  and  C_19
REMARK                            x       y       z     vdW  Elec       q    Type
REMARK                         _______ _______ _______ _____ _____    ______ ____
ROOT
ATOM      9  C   UNL     1      -1.296  -1.150   0.000  0.00  0.00    +0.056 A 
ATOM     10  C   UNL     1      -1.167  -0.335   0.000  0.00  0.00    +0.006 A 
ATOM     11  C   UNL     1      -0.397  -0.039   0.000  0.00  0.00    +0.013 A 
ATOM     12  C   UNL     1       0.244  -0.558   0.000  0.00  0.00    +0.041 A 
ATOM     13  C   UNL     1       1.163  -0.557   0.000  0.00  0.00    +0.054 C 
ATOM     14  C   UNL     1       1.713  -0.121   0.000  0.00  0.00    +0.011 C 
ATOM     15  C   UNL     1       1.582  -0.925   0.000  0.00  0.00    +0.039 C 
ATOM     16  C   UNL     1       1.629  -1.912   0.000  0.00  0.00    +0.074 C 
ATOM     17  N   UNL     1       0.813  -2.091   0.000  0.00  0.00    -0.268 NA
ATOM     26  C   UNL     1       1.225  -1.510   0.000  0.00  0.00    +0.078 C 
ATOM     27  C   UNL     1       0.622  -0.936   0.000  0.00  0.00    +0.110 C 
ATOM     28  N   UNL     1       0.115  -1.373   0.000  0.00  0.00    -0.299 N 
ATOM     29  C   UNL     1      -0.655  -1.669   0.000  0.00  0.00    +0.261 A 
ATOM     30  O   UNL     1      -0.784  -2.484   0.000  0.00  0.00    -0.267 OA
ENDROOT
BRANCH   9   6
ATOM      3  C   UNL     1      -3.606  -2.037   0.000  0.00  0.00    +0.025 A 
ATOM      4  C   UNL     1      -3.478  -1.222   0.000  0.00  0.00    +0.006 A 
ATOM      5  C   UNL     1      -2.707  -0.926   0.000  0.00  0.00    +0.001 A 
ATOM      6  C   UNL     1      -2.066  -1.445   0.000  0.00  0.00    +0.005 A 
ATOM      7  C   UNL     1      -2.195  -2.260   0.000  0.00  0.00    +0.001 A 
ATOM      8  C   UNL     1      -2.965  -2.556   0.000  0.00  0.00    +0.006 A 
BRANCH   3   2
ATOM      1  C   UNL     1      -4.505  -3.147   0.000  0.00  0.00    +0.074 C 
ATOM      2  S   UNL     1      -4.377  -2.333   0.000  0.00  0.00    -0.113 S 
ENDBRANCH   3   2
ENDBRANCH   9   6
BRANCH  17  18
ATOM     18  C   UNL     1       0.125  -2.547   0.000  0.00  0.00    +0.102 C 
BRANCH  18  19
ATOM     19  C   UNL     1       0.176  -3.370   0.000  0.00  0.00    +0.033 A 
ATOM     20  C   UNL     1       0.914  -3.738   0.000  0.00  0.00    +0.193 A 
ATOM     21  O   UNL     1       1.602  -3.283   0.000  0.00  0.00    -0.287 OA
ATOM     22  C   UNL     1       0.965  -4.562   0.000  0.00  0.00    +0.042 A 
ATOM     23  C   UNL     1       0.277  -5.017   0.000  0.00  0.00    +0.003 A 
ATOM     24  C   UNL     1      -0.461  -4.650   0.000  0.00  0.00    -0.000 A 
ATOM     25  C   UNL     1      -0.512  -3.826   0.000  0.00  0.00    +0.000 A 
ENDBRANCH  18  19
ENDBRANCH  17  18
TORSDOF 4
