MODEL 1
REMARK VINA RESULT:     -12.6      0.000      0.000
REMARK  Name = 
REMARK  7 active torsions:
REMARK  status: ('A' for Active; 'I' for Inactive)
REMARK    1  A    between atoms: C_5  and  C_6
REMARK    2  A    between atoms: C_6  and  C_7
REMARK    3  A    between atoms: C_10  and  C_12
REMARK    4  A    between atoms: C_20  and  C_21
REMARK    5  A    between atoms: C_21  and  N_22
REMARK    6  A    between atoms: N_22  and  C_23
REMARK    7  A    between atoms: C_23  and  C_24
REMARK                            x       y       z     vdW  Elec       q    Type
REMARK                         _______ _______ _______ _____ _____    ______ ____
ROOT
ATOM      1  O   UNL     1      -1.241   3.972  25.774  0.00  0.00    -0.220 OA
ATOM      2  C   UNL     1      -1.070   3.207  25.519  0.00  0.00    +0.180 C 
ATOM      3  C   UNL     1      -0.355   2.853  25.729  0.00  0.00    +0.038 C 
ATOM      4  C   UNL     1      -0.183   2.087  25.473  0.00  0.00    +0.033 C 
ATOM      5  C   UNL     1      -0.727   1.676  25.008  0.00  0.00    +0.121 C 
ATOM     19  O   UNL     1      -1.442   2.031  24.799  0.00  0.00    -0.354 OA
ATOM     20  C   UNL     1      -1.613   2.795  25.054  0.00  0.00    +0.163 C 
ENDROOT
BRANCH   5   6
ATOM      6  C   UNL     1      -0.555   0.910  24.753  0.00  0.00    +0.079 C 
BRANCH   6   7
ATOM      7  C   UNL     1      -0.961   0.268  25.073  0.00  0.00    +0.103 A 
ATOM      8  N   UNL     1      -0.912   0.003  25.853  0.00  0.00    -0.081 NA
ATOM      9  O   UNL     1      -1.407  -0.651  25.932  0.00  0.00    -0.354 OA
ATOM     10  C   UNL     1      -1.763  -0.791  25.201  0.00  0.00    +0.177 A 
ATOM     11  C   UNL     1      -1.487  -0.223  24.670  0.00  0.00    +0.058 A 
BRANCH  10  12
ATOM     12  C   UNL     1      -2.301  -1.393  25.030  0.00  0.00    +0.037 A 
ATOM     13  C   UNL     1      -2.043  -2.085  24.663  0.00  0.00    +0.005 A 
ATOM     14  C   UNL     1      -2.581  -2.688  24.493  0.00  0.00    +0.030 A 
ATOM     15  C   UNL     1      -3.376  -2.598  24.689  0.00  0.00    +0.140 A 
ATOM     16  F   UNL     1      -3.914  -3.199  24.519  0.00  0.00    -0.204 F 
ATOM     17  C   UNL     1      -3.635  -1.905  25.057  0.00  0.00    +0.030 A 
ATOM     18  C   UNL     1      -3.097  -1.303  25.227  0.00  0.00    +0.005 A 
ENDBRANCH  10  12
ENDBRANCH   6   7
ENDBRANCH   5   6
BRANCH  20  21
ATOM     21  C   UNL     1      -2.328   3.149  24.845  0.00  0.00    +0.121 C 
BRANCH  21  22
ATOM     22  N   UNL     1      -3.035   2.731  24.926  0.00  0.00    -0.211 NA
BRANCH  22  23
ATOM     23  C   UNL     1      -3.756   3.108  24.788  0.00  0.00    +0.118 C 
BRANCH  23  24
ATOM     24  C   UNL     1      -4.463   2.713  24.940  0.00  0.00    +0.034 A 
ATOM     25  C   UNL     1      -5.080   3.105  25.323  0.00  0.00    +0.193 A 
ATOM     26  O   UNL     1      -4.990   3.892  25.554  0.00  0.00    -0.287 OA
ATOM     27  C   UNL     1      -5.789   2.710  25.475  0.00  0.00    +0.042 A 
ATOM     28  C   UNL     1      -5.880   1.923  25.244  0.00  0.00    +0.003 A 
ATOM     29  C   UNL     1      -5.263   1.531  24.861  0.00  0.00    -0.000 A 
ATOM     30  C   UNL     1      -4.555   1.926  24.709  0.00  0.00    +0.000 A 
ENDBRANCH  23  24
ENDBRANCH  22  23
ENDBRANCH  21  22
ENDBRANCH  20  21
TORSDOF 7
ENDMDL
MODEL 2
REMARK VINA RESULT:     -12.6      1.534      3.476
REMARK  Name = 
REMARK  7 active torsions:
REMARK  status: ('A' for Active; 'I' for Inactive)
REMARK    1  A    between atoms: C_5  and  C_6
REMARK    2  A    between atoms: C_6  and  C_7
REMARK    3  A    between atoms: C_10  and  C_12
REMARK    4  A    between atoms: C_20  and  C_21
REMARK    5  A    between atoms: C_21  and  N_22
REMARK    6  A    between atoms: N_22  and  C_23
REMARK    7  A    between atoms: C_23  and  C_24
REMARK                            x       y       z     vdW  Elec       q    Type
REMARK                         _______ _______ _______ _____ _____    ______ ____
ROOT
ATOM      1  O   UNL     1      -5.664   3.549  26.061  0.00  0.00    -0.220 OA
ATOM      2  C   UNL     1      -5.394   2.886  25.652  0.00  0.00    +0.180 C 
ATOM      3  C   UNL     1      -5.898   2.246  25.525  0.00  0.00    +0.038 C 
ATOM      4  C   UNL     1      -5.628   1.582  25.116  0.00  0.00    +0.033 C 
ATOM      5  C   UNL     1      -4.853   1.560  24.833  0.00  0.00    +0.121 C 
ATOM     19  O   UNL     1      -4.349   2.200  24.960  0.00  0.00    -0.354 OA
ATOM     20  C   UNL     1      -4.619   2.863  25.369  0.00  0.00    +0.163 C 
ENDROOT
BRANCH   5   6
ATOM      6  C   UNL     1      -4.582   0.896  24.423  0.00  0.00    +0.079 C 
BRANCH   6   7
ATOM      7  C   UNL     1      -4.124   0.330  24.811  0.00  0.00    +0.103 A 
ATOM      8  N   UNL     1      -4.378  -0.163  25.423  0.00  0.00    -0.081 NA
ATOM      9  O   UNL     1      -3.744  -0.640  25.645  0.00  0.00    -0.354 OA
ATOM     10  C   UNL     1      -3.098  -0.442  25.172  0.00  0.00    +0.177 A 
ATOM     11  C   UNL     1      -3.333   0.157  24.657  0.00  0.00    +0.058 A 
BRANCH  10  12
ATOM     12  C   UNL     1      -2.347  -0.784  25.208  0.00  0.00    +0.037 A 
ATOM     13  C   UNL     1      -2.190  -1.478  24.792  0.00  0.00    +0.005 A 
ATOM     14  C   UNL     1      -1.439  -1.820  24.828  0.00  0.00    +0.030 A 
ATOM     15  C   UNL     1      -0.847  -1.467  25.280  0.00  0.00    +0.140 A 
ATOM     16  F   UNL     1      -0.097  -1.808  25.316  0.00  0.00    -0.204 F 
ATOM     17  C   UNL     1      -1.004  -0.772  25.696  0.00  0.00    +0.030 A 
ATOM     18  C   UNL     1      -1.754  -0.430  25.660  0.00  0.00    +0.005 A 
ENDBRANCH  10  12
ENDBRANCH   6   7
ENDBRANCH   5   6
BRANCH  20  21
ATOM     21  C   UNL     1      -4.115   3.503  25.496  0.00  0.00    +0.121 C 
BRANCH  21  22
ATOM     22  N   UNL     1      -3.297   3.405  25.432  0.00  0.00    -0.211 NA
BRANCH  22  23
ATOM     23  C   UNL     1      -2.793   4.043  25.566  0.00  0.00    +0.118 C 
BRANCH  23  24
ATOM     24  C   UNL     1      -1.980   3.956  25.460  0.00  0.00    +0.034 A 
ATOM     25  C   UNL     1      -1.529   4.592  25.191  0.00  0.00    +0.193 A 
ATOM     26  O   UNL     1      -1.890   5.316  25.029  0.00  0.00    -0.287 OA
ATOM     27  C   UNL     1      -0.715   4.505  25.084  0.00  0.00    +0.042 A 
ATOM     28  C   UNL     1      -0.353   3.781  25.246  0.00  0.00    +0.003 A 
ATOM     29  C   UNL     1      -0.805   3.145  25.514  0.00  0.00    -0.000 A 
ATOM     30  C   UNL     1      -1.617   3.232  25.621  0.00  0.00    +0.000 A 
ENDBRANCH  23  24
ENDBRANCH  22  23
ENDBRANCH  21  22
ENDBRANCH  20  21
TORSDOF 7
ENDMDL
MODEL 3
REMARK VINA RESULT:     -12.3      1.365      3.499
REMARK  Name = 
REMARK  7 active torsions:
REMARK  status: ('A' for Active; 'I' for Inactive)
REMARK    1  A    between atoms: C_5  and  C_6
REMARK    2  A    between atoms: C_6  and  C_7
REMARK    3  A    between atoms: C_10  and  C_12
REMARK    4  A    between atoms: C_20  and  C_21
REMARK    5  A    between atoms: C_21  and  N_22
REMARK    6  A    between atoms: N_22  and  C_23
REMARK    7  A    between atoms: C_23  and  C_24
REMARK                            x       y       z     vdW  Elec       q    Type
REMARK                         _______ _______ _______ _____ _____    ______ ____
ROOT
ATOM      1  O   UNL     1      -1.982   4.128  25.645  0.00  0.00    -0.220 OA
ATOM      2  C   UNL     1      -2.574   3.646  25.332  0.00  0.00    +0.180 C 
ATOM      3  C   UNL     1      -3.367   3.836  25.453  0.00  0.00    +0.038 C 
ATOM      4  C   UNL     1      -3.960   3.354  25.141  0.00  0.00    +0.033 C 
ATOM      5  C   UNL     1      -3.758   2.682  24.708  0.00  0.00    +0.121 C 
ATOM     19  O   UNL     1      -2.965   2.491  24.587  0.00  0.00    -0.354 OA
ATOM     20  C   UNL     1      -2.373   2.973  24.899  0.00  0.00    +0.163 C 
ENDROOT
BRANCH   5   6
ATOM      6  C   UNL     1      -4.351   2.199  24.395  0.00  0.00    +0.079 C 
BRANCH   6   7
ATOM      7  C   UNL     1      -4.454   1.433  24.682  0.00  0.00    +0.103 A 
ATOM      8  N   UNL     1      -4.897   1.219  25.345  0.00  0.00    -0.081 NA
ATOM      9  O   UNL     1      -4.849   0.400  25.430  0.00  0.00    -0.354 OA
ATOM     10  C   UNL     1      -4.376   0.108  24.820  0.00  0.00    +0.177 A 
ATOM     11  C   UNL     1      -4.132   0.746  24.358  0.00  0.00    +0.058 A 
BRANCH  10  12
ATOM     12  C   UNL     1      -4.181  -0.684  24.694  0.00  0.00    +0.037 A 
ATOM     13  C   UNL     1      -4.322  -1.032  23.961  0.00  0.00    +0.005 A 
ATOM     14  C   UNL     1      -4.128  -1.825  23.835  0.00  0.00    +0.030 A 
ATOM     15  C   UNL     1      -3.792  -2.268  24.444  0.00  0.00    +0.140 A 
ATOM     16  F   UNL     1      -3.597  -3.060  24.319  0.00  0.00    -0.204 F 
ATOM     17  C   UNL     1      -3.650  -1.920  25.179  0.00  0.00    +0.030 A 
ATOM     18  C   UNL     1      -3.844  -1.127  25.304  0.00  0.00    +0.005 A 
ENDBRANCH  10  12
ENDBRANCH   6   7
ENDBRANCH   5   6
BRANCH  20  21
ATOM     21  C   UNL     1      -1.580   2.782  24.778  0.00  0.00    +0.121 C 
BRANCH  21  22
ATOM     22  N   UNL     1      -1.310   2.018  24.936  0.00  0.00    -0.211 NA
BRANCH  22  23
ATOM     23  C   UNL     1      -0.670   1.712  24.515  0.00  0.00    +0.118 C 
BRANCH  23  24
ATOM     24  C   UNL     1      -0.522   0.901  24.523  0.00  0.00    +0.034 A 
ATOM     25  C   UNL     1      -0.244   0.525  23.843  0.00  0.00    +0.193 A 
ATOM     26  O   UNL     1      -0.114   0.961  23.154  0.00  0.00    -0.287 OA
ATOM     27  C   UNL     1      -0.096  -0.287  23.850  0.00  0.00    +0.042 A 
ATOM     28  C   UNL     1      -0.226  -0.723  24.538  0.00  0.00    +0.003 A 
ATOM     29  C   UNL     1      -0.504  -0.348  25.219  0.00  0.00    -0.000 A 
ATOM     30  C   UNL     1      -0.652   0.463  25.211  0.00  0.00    +0.000 A 
ENDBRANCH  23  24
ENDBRANCH  22  23
ENDBRANCH  21  22
ENDBRANCH  20  21
TORSDOF 7
ENDMDL
MODEL 4
REMARK VINA RESULT:     -12.3      1.438      4.235
REMARK  Name = 
REMARK  7 active torsions:
REMARK  status: ('A' for Active; 'I' for Inactive)
REMARK    1  A    between atoms: C_5  and  C_6
REMARK    2  A    between atoms: C_6  and  C_7
REMARK    3  A    between atoms: C_10  and  C_12
REMARK    4  A    between atoms: C_20  and  C_21
REMARK    5  A    between atoms: C_21  and  N_22
REMARK    6  A    between atoms: N_22  and  C_23
REMARK    7  A    between atoms: C_23  and  C_24
REMARK                            x       y       z     vdW  Elec       q    Type
REMARK                         _______ _______ _______ _____ _____    ______ ____
ROOT
ATOM      1  O   UNL     1       0.524   0.649  23.838  0.00  0.00    -0.220 OA
ATOM      2  C   UNL     1       0.041   1.176  24.247  0.00  0.00    +0.180 C 
ATOM      3  C   UNL     1       0.116   1.988  24.122  0.00  0.00    +0.038 C 
ATOM      4  C   UNL     1      -0.369   2.516  24.532  0.00  0.00    +0.033 C 
ATOM      5  C   UNL     1      -0.928   2.231  25.067  0.00  0.00    +0.121 C 
ATOM     19  O   UNL     1      -1.003   1.419  25.193  0.00  0.00    -0.354 OA
ATOM     20  C   UNL     1      -0.519   0.892  24.783  0.00  0.00    +0.163 C 
ENDROOT
BRANCH   5   6
ATOM      6  C   UNL     1      -1.413   2.759  25.477  0.00  0.00    +0.079 C 
BRANCH   6   7
ATOM      7  C   UNL     1      -2.170   2.927  25.197  0.00  0.00    +0.103 A 
ATOM      8  N   UNL     1      -2.368   3.526  24.665  0.00  0.00    -0.081 NA
ATOM      9  O   UNL     1      -3.183   3.494  24.539  0.00  0.00    -0.354 OA
ATOM     10  C   UNL     1      -3.488   2.877  24.992  0.00  0.00    +0.177 A 
ATOM     11  C   UNL     1      -2.862   2.526  25.399  0.00  0.00    +0.058 A 
BRANCH  10  12
ATOM     12  C   UNL     1      -4.280   2.649  25.032  0.00  0.00    +0.037 A 
ATOM     13  C   UNL     1      -4.550   2.013  24.584  0.00  0.00    +0.005 A 
ATOM     14  C   UNL     1      -5.343   1.786  24.624  0.00  0.00    +0.030 A 
ATOM     15  C   UNL     1      -5.865   2.196  25.112  0.00  0.00    +0.140 A 
ATOM     16  F   UNL     1      -6.657   1.969  25.152  0.00  0.00    -0.204 F 
ATOM     17  C   UNL     1      -5.595   2.833  25.562  0.00  0.00    +0.030 A 
ATOM     18  C   UNL     1      -4.802   3.060  25.522  0.00  0.00    +0.005 A 
ENDBRANCH  10  12
ENDBRANCH   6   7
ENDBRANCH   5   6
BRANCH  20  21
ATOM     21  C   UNL     1      -0.595   0.080  24.908  0.00  0.00    +0.121 C 
BRANCH  21  22
ATOM     22  N   UNL     1      -1.344  -0.265  24.939  0.00  0.00    -0.211 NA
BRANCH  22  23
ATOM     23  C   UNL     1      -1.418  -1.084  25.005  0.00  0.00    +0.118 C 
BRANCH  23  24
ATOM     24  C   UNL     1      -2.166  -1.432  25.002  0.00  0.00    +0.034 A 
ATOM     25  C   UNL     1      -2.283  -2.155  24.624  0.00  0.00    +0.193 A 
ATOM     26  O   UNL     1      -1.652  -2.532  24.248  0.00  0.00    -0.287 OA
ATOM     27  C   UNL     1      -3.031  -2.504  24.620  0.00  0.00    +0.042 A 
ATOM     28  C   UNL     1      -3.662  -2.127  24.995  0.00  0.00    +0.003 A 
ATOM     29  C   UNL     1      -3.545  -1.403  25.374  0.00  0.00    -0.000 A 
ATOM     30  C   UNL     1      -2.798  -1.056  25.377  0.00  0.00    +0.000 A 
ENDBRANCH  23  24
ENDBRANCH  22  23
ENDBRANCH  21  22
ENDBRANCH  20  21
TORSDOF 7
ENDMDL
MODEL 5
REMARK VINA RESULT:     -12.2      1.962      3.970
REMARK  Name = 
REMARK  7 active torsions:
REMARK  status: ('A' for Active; 'I' for Inactive)
REMARK    1  A    between atoms: C_5  and  C_6
REMARK    2  A    between atoms: C_6  and  C_7
REMARK    3  A    between atoms: C_10  and  C_12
REMARK    4  A    between atoms: C_20  and  C_21
REMARK    5  A    between atoms: C_21  and  N_22
REMARK    6  A    between atoms: N_22  and  C_23
REMARK    7  A    between atoms: C_23  and  C_24
REMARK                            x       y       z     vdW  Elec       q    Type
REMARK                         _______ _______ _______ _____ _____    ______ ____
ROOT
ATOM      1  O   UNL     1      -4.381  -1.851  23.929  0.00  0.00    -0.220 OA
ATOM      2  C   UNL     1      -3.715  -1.610  24.351  0.00  0.00    +0.180 C 
ATOM      3  C   UNL     1      -3.045  -2.092  24.373  0.00  0.00    +0.038 C 
ATOM      4  C   UNL     1      -2.378  -1.851  24.796  0.00  0.00    +0.033 C 
ATOM      5  C   UNL     1      -2.381  -1.129  25.195  0.00  0.00    +0.121 C 
ATOM     19  O   UNL     1      -3.051  -0.648  25.173  0.00  0.00    -0.354 OA
ATOM     20  C   UNL     1      -3.717  -0.889  24.751  0.00  0.00    +0.163 C 
ENDROOT
BRANCH   5   6
ATOM      6  C   UNL     1      -1.714  -0.889  25.618  0.00  0.00    +0.079 C 
BRANCH   6   7
ATOM      7  C   UNL     1      -1.255  -0.261  25.342  0.00  0.00    +0.103 A 
ATOM      8  N   UNL     1      -0.613  -0.320  24.826  0.00  0.00    -0.081 NA
ATOM      9  O   UNL     1      -0.319   0.440  24.699  0.00  0.00    -0.354 OA
ATOM     10  C   UNL     1      -0.779   0.968  25.136  0.00  0.00    +0.177 A 
ATOM     11  C   UNL     1      -1.357   0.534  25.533  0.00  0.00    +0.058 A 
BRANCH  10  12
ATOM     12  C   UNL     1      -0.677   1.786  25.170  0.00  0.00    +0.037 A 
ATOM     13  C   UNL     1      -0.653   2.169  25.899  0.00  0.00    +0.005 A 
ATOM     14  C   UNL     1      -0.551   2.988  25.933  0.00  0.00    +0.030 A 
ATOM     15  C   UNL     1      -0.475   3.423  25.236  0.00  0.00    +0.140 A 
ATOM     16  F   UNL     1      -0.373   4.241  25.269  0.00  0.00    -0.204 F 
ATOM     17  C   UNL     1      -0.499   3.040  24.506  0.00  0.00    +0.030 A 
ATOM     18  C   UNL     1      -0.601   2.221  24.472  0.00  0.00    +0.005 A 
ENDBRANCH  10  12
ENDBRANCH   6   7
ENDBRANCH   5   6
BRANCH  20  21
ATOM     21  C   UNL     1      -4.387  -0.407  24.728  0.00  0.00    +0.121 C 
BRANCH  21  22
ATOM     22  N   UNL     1      -4.305   0.414  24.710  0.00  0.00    -0.211 NA
BRANCH  22  23
ATOM     23  C   UNL     1      -4.955   0.897  24.865  0.00  0.00    +0.118 C 
BRANCH  23  24
ATOM     24  C   UNL     1      -4.864   1.716  24.890  0.00  0.00    +0.034 A 
ATOM     25  C   UNL     1      -5.311   2.165  25.418  0.00  0.00    +0.193 A 
ATOM     26  O   UNL     1      -5.849   1.796  25.921  0.00  0.00    -0.287 OA
ATOM     27  C   UNL     1      -5.219   2.986  25.443  0.00  0.00    +0.042 A 
ATOM     28  C   UNL     1      -4.681   3.355  24.939  0.00  0.00    +0.003 A 
ATOM     29  C   UNL     1      -4.234   2.906  24.411  0.00  0.00    -0.000 A 
ATOM     30  C   UNL     1      -4.325   2.087  24.386  0.00  0.00    +0.000 A 
ENDBRANCH  23  24
ENDBRANCH  22  23
ENDBRANCH  21  22
ENDBRANCH  20  21
TORSDOF 7
ENDMDL
MODEL 6
REMARK VINA RESULT:     -12.2      1.833      4.452
REMARK  Name = 
REMARK  7 active torsions:
REMARK  status: ('A' for Active; 'I' for Inactive)
REMARK    1  A    between atoms: C_5  and  C_6
REMARK    2  A    between atoms: C_6  and  C_7
REMARK    3  A    between atoms: C_10  and  C_12
REMARK    4  A    between atoms: C_20  and  C_21
REMARK    5  A    between atoms: C_21  and  N_22
REMARK    6  A    between atoms: N_22  and  C_23
REMARK    7  A    between atoms: C_23  and  C_24
REMARK                            x       y       z     vdW  Elec       q    Type
REMARK                         _______ _______ _______ _____ _____    ______ ____
ROOT
ATOM      1  O   UNL     1      -0.374  -1.538  24.452  0.00  0.00    -0.220 OA
ATOM      2  C   UNL     1      -1.150  -1.419  24.702  0.00  0.00    +0.180 C 
ATOM      3  C   UNL     1      -1.722  -1.996  24.559  0.00  0.00    +0.038 C 
ATOM      4  C   UNL     1      -2.500  -1.877  24.809  0.00  0.00    +0.033 C 
ATOM      5  C   UNL     1      -2.705  -1.181  25.201  0.00  0.00    +0.121 C 
ATOM     19  O   UNL     1      -2.133  -0.604  25.344  0.00  0.00    -0.354 OA
ATOM     20  C   UNL     1      -1.356  -0.723  25.094  0.00  0.00    +0.163 C 
ENDROOT
BRANCH   5   6
ATOM      6  C   UNL     1      -3.483  -1.062  25.451  0.00  0.00    +0.079 C 
BRANCH   6   7
ATOM      7  C   UNL     1      -3.933  -0.454  25.122  0.00  0.00    +0.103 A 
ATOM      8  N   UNL     1      -4.298  -0.466  24.382  0.00  0.00    -0.081 NA
ATOM      9  O   UNL     1      -4.688   0.253  24.279  0.00  0.00    -0.354 OA
ATOM     10  C   UNL     1      -4.565   0.709  24.955  0.00  0.00    +0.177 A 
ATOM     11  C   UNL     1      -4.099   0.272  25.476  0.00  0.00    +0.058 A 
BRANCH  10  12
ATOM     12  C   UNL     1      -4.858   1.469  25.087  0.00  0.00    +0.037 A 
ATOM     13  C   UNL     1      -5.567   1.574  25.494  0.00  0.00    +0.005 A 
ATOM     14  C   UNL     1      -5.860   2.334  25.625  0.00  0.00    +0.030 A 
ATOM     15  C   UNL     1      -5.443   2.990  25.350  0.00  0.00    +0.140 A 
ATOM     16  F   UNL     1      -5.735   3.750  25.481  0.00  0.00    -0.204 F 
ATOM     17  C   UNL     1      -4.732   2.886  24.942  0.00  0.00    +0.030 A 
ATOM     18  C   UNL     1      -4.440   2.125  24.810  0.00  0.00    +0.005 A 
ENDBRANCH  10  12
ENDBRANCH   6   7
ENDBRANCH   5   6
BRANCH  20  21
ATOM     21  C   UNL     1      -0.785  -0.145  25.237  0.00  0.00    +0.121 C 
BRANCH  21  22
ATOM     22  N   UNL     1      -0.946   0.647  25.068  0.00  0.00    -0.211 NA
BRANCH  22  23
ATOM     23  C   UNL     1      -0.479   1.242  25.396  0.00  0.00    +0.118 C 
BRANCH  23  24
ATOM     24  C   UNL     1      -0.631   2.032  25.214  0.00  0.00    +0.034 A 
ATOM     25  C   UNL     1      -0.567   2.609  25.800  0.00  0.00    +0.193 A 
ATOM     26  O   UNL     1      -0.351   2.397  26.567  0.00  0.00    -0.287 OA
ATOM     27  C   UNL     1      -0.719   3.400  25.619  0.00  0.00    +0.042 A 
ATOM     28  C   UNL     1      -0.935   3.613  24.851  0.00  0.00    +0.003 A 
ATOM     29  C   UNL     1      -0.999   3.035  24.266  0.00  0.00    -0.000 A 
ATOM     30  C   UNL     1      -0.847   2.246  24.447  0.00  0.00    +0.000 A 
ENDBRANCH  23  24
ENDBRANCH  22  23
ENDBRANCH  21  22
ENDBRANCH  20  21
TORSDOF 7
ENDMDL
MODEL 7
REMARK VINA RESULT:     -12.0      1.909      4.653
REMARK  Name = 
REMARK  7 active torsions:
REMARK  status: ('A' for Active; 'I' for Inactive)
REMARK    1  A    between atoms: C_5  and  C_6
REMARK    2  A    between atoms: C_6  and  C_7
REMARK    3  A    between atoms: C_10  and  C_12
REMARK    4  A    between atoms: C_20  and  C_21
REMARK    5  A    between atoms: C_21  and  N_22
REMARK    6  A    between atoms: N_22  and  C_23
REMARK    7  A    between atoms: C_23  and  C_24
REMARK                            x       y       z     vdW  Elec       q    Type
REMARK                         _______ _______ _______ _____ _____    ______ ____
ROOT
ATOM      1  O   UNL     1      -6.351   1.662  25.884  0.00  0.00    -0.220 OA
ATOM      2  C   UNL     1      -5.763   2.166  25.604  0.00  0.00    +0.180 C 
ATOM      3  C   UNL     1      -5.741   2.953  25.853  0.00  0.00    +0.038 C 
ATOM      4  C   UNL     1      -5.152   3.459  25.573  0.00  0.00    +0.033 C 
ATOM      5  C   UNL     1      -4.585   3.177  25.044  0.00  0.00    +0.121 C 
ATOM     19  O   UNL     1      -4.606   2.391  24.795  0.00  0.00    -0.354 OA
ATOM     20  C   UNL     1      -5.195   1.886  25.075  0.00  0.00    +0.163 C 
ENDROOT
BRANCH   5   6
ATOM      6  C   UNL     1      -3.996   3.683  24.763  0.00  0.00    +0.079 C 
BRANCH   6   7
ATOM      7  C   UNL     1      -3.236   3.649  25.083  0.00  0.00    +0.103 A 
ATOM      8  N   UNL     1      -2.959   4.087  25.725  0.00  0.00    -0.081 NA
ATOM      9  O   UNL     1      -2.172   3.879  25.855  0.00  0.00    -0.354 OA
ATOM     10  C   UNL     1      -1.962   3.313  25.294  0.00  0.00    +0.177 A 
ATOM     11  C   UNL     1      -2.619   3.170  24.816  0.00  0.00    +0.058 A 
BRANCH  10  12
ATOM     12  C   UNL     1      -1.223   2.952  25.222  0.00  0.00    +0.037 A 
ATOM     13  C   UNL     1      -0.875   2.590  25.876  0.00  0.00    +0.005 A 
ATOM     14  C   UNL     1      -0.136   2.229  25.804  0.00  0.00    +0.030 A 
ATOM     15  C   UNL     1       0.254   2.230  25.078  0.00  0.00    +0.140 A 
ATOM     16  F   UNL     1       0.992   1.870  25.006  0.00  0.00    -0.204 F 
ATOM     17  C   UNL     1      -0.094   2.592  24.423  0.00  0.00    +0.030 A 
ATOM     18  C   UNL     1      -0.833   2.953  24.494  0.00  0.00    +0.005 A 
ENDBRANCH  10  12
ENDBRANCH   6   7
ENDBRANCH   5   6
BRANCH  20  21
ATOM     21  C   UNL     1      -5.216   1.100  24.827  0.00  0.00    +0.121 C 
BRANCH  21  22
ATOM     22  N   UNL     1      -4.561   0.611  24.945  0.00  0.00    -0.211 NA
BRANCH  22  23
ATOM     23  C   UNL     1      -4.527  -0.129  24.581  0.00  0.00    +0.118 C 
BRANCH  23  24
ATOM     24  C   UNL     1      -3.927  -0.658  24.780  0.00  0.00    +0.034 A 
ATOM     25  C   UNL     1      -3.913  -1.411  24.442  0.00  0.00    +0.193 A 
ATOM     26  O   UNL     1      -4.499  -1.634  23.906  0.00  0.00    -0.287 OA
ATOM     27  C   UNL     1      -3.312  -1.941  24.640  0.00  0.00    +0.042 A 
ATOM     28  C   UNL     1      -2.726  -1.717  25.176  0.00  0.00    +0.003 A 
ATOM     29  C   UNL     1      -2.740  -0.965  25.513  0.00  0.00    -0.000 A 
ATOM     30  C   UNL     1      -3.340  -0.436  25.315  0.00  0.00    +0.000 A 
ENDBRANCH  23  24
ENDBRANCH  22  23
ENDBRANCH  21  22
ENDBRANCH  20  21
TORSDOF 7
ENDMDL
MODEL 8
REMARK VINA RESULT:      -8.9     16.310     18.430
REMARK  Name = 
REMARK  7 active torsions:
REMARK  status: ('A' for Active; 'I' for Inactive)
REMARK    1  A    between atoms: C_5  and  C_6
REMARK    2  A    between atoms: C_6  and  C_7
REMARK    3  A    between atoms: C_10  and  C_12
REMARK    4  A    between atoms: C_20  and  C_21
REMARK    5  A    between atoms: C_21  and  N_22
REMARK    6  A    between atoms: N_22  and  C_23
REMARK    7  A    between atoms: C_23  and  C_24
REMARK                            x       y       z     vdW  Elec       q    Type
REMARK                         _______ _______ _______ _____ _____    ______ ____
ROOT
ATOM      1  O   UNL     1      10.771   8.584  17.223  0.00  0.00    -0.220 OA
ATOM      2  C   UNL     1      11.578   8.643  17.380  0.00  0.00    +0.180 C 
ATOM      3  C   UNL     1      12.119   8.656  16.757  0.00  0.00    +0.038 C 
ATOM      4  C   UNL     1      12.928   8.716  16.914  0.00  0.00    +0.033 C 
ATOM      5  C   UNL     1      13.194   8.762  17.693  0.00  0.00    +0.121 C 
ATOM     19  O   UNL     1      12.653   8.749  18.316  0.00  0.00    -0.354 OA
ATOM     20  C   UNL     1      11.846   8.690  18.159  0.00  0.00    +0.163 C 
ENDROOT
BRANCH   5   6
ATOM      6  C   UNL     1      14.003   8.822  17.849  0.00  0.00    +0.079 C 
BRANCH   6   7
ATOM      7  C   UNL     1      14.415   8.170  18.142  0.00  0.00    +0.103 A 
ATOM      8  N   UNL     1      14.576   7.473  17.731  0.00  0.00    -0.081 NA
ATOM      9  O   UNL     1      14.999   6.974  18.233  0.00  0.00    -0.354 OA
ATOM     10  C   UNL     1      15.101   7.362  18.953  0.00  0.00    +0.177 A 
ATOM     11  C   UNL     1      14.740   8.102  18.898  0.00  0.00    +0.058 A 
BRANCH  10  12
ATOM     12  C   UNL     1      15.494   7.063  19.614  0.00  0.00    +0.037 A 
ATOM     13  C   UNL     1      15.064   6.769  20.253  0.00  0.00    +0.005 A 
ATOM     14  C   UNL     1      15.458   6.470  20.914  0.00  0.00    +0.030 A 
ATOM     15  C   UNL     1      16.282   6.465  20.936  0.00  0.00    +0.140 A 
ATOM     16  F   UNL     1      16.676   6.167  21.596  0.00  0.00    -0.204 F 
ATOM     17  C   UNL     1      16.713   6.760  20.296  0.00  0.00    +0.030 A 
ATOM     18  C   UNL     1      16.320   7.059  19.635  0.00  0.00    +0.005 A 
ENDBRANCH  10  12
ENDBRANCH   6   7
ENDBRANCH   5   6
BRANCH  20  21
ATOM     21  C   UNL     1      11.305   8.677  18.782  0.00  0.00    +0.121 C 
BRANCH  21  22
ATOM     22  N   UNL     1      11.421   8.164  19.419  0.00  0.00    -0.211 NA
BRANCH  22  23
ATOM     23  C   UNL     1      11.059   8.319  20.144  0.00  0.00    +0.118 C 
BRANCH  23  24
ATOM     24  C   UNL     1      11.104   7.765  20.753  0.00  0.00    +0.034 A 
ATOM     25  C   UNL     1      10.780   7.938  21.492  0.00  0.00    +0.193 A 
ATOM     26  O   UNL     1      10.411   8.664  21.622  0.00  0.00    -0.287 OA
ATOM     27  C   UNL     1      10.825   7.384  22.103  0.00  0.00    +0.042 A 
ATOM     28  C   UNL     1      11.195   6.658  21.973  0.00  0.00    +0.003 A 
ATOM     29  C   UNL     1      11.518   6.485  21.234  0.00  0.00    -0.000 A 
ATOM     30  C   UNL     1      11.473   7.039  20.625  0.00  0.00    +0.000 A 
ENDBRANCH  23  24
ENDBRANCH  22  23
ENDBRANCH  21  22
ENDBRANCH  20  21
TORSDOF 7
ENDMDL
