MODEL 1
REMARK VINA RESULT:     -14.9      0.000      0.000
REMARK  Name = 
REMARK  6 active torsions:
REMARK  status: ('A' for Active; 'I' for Inactive)
REMARK    1  A    between atoms: O_2  and  C_3
REMARK    2  A    between atoms: C_6  and  S_9
REMARK    3  A    between atoms: S_9  and  N_12
REMARK    4  A    between atoms: C_21  and  N_22
REMARK    5  A    between atoms: C_23  and  C_25
REMARK    6  A    between atoms: C_25  and  C_26
REMARK                            x       y       z     vdW  Elec       q    Type
REMARK                         _______ _______ _______ _____ _____    ______ ____
ROOT
ATOM     12  N   UNL     1      -3.755   3.385  25.015  0.00  0.00    -0.155 NA
ATOM     13  C   UNL     1      -4.117   4.077  25.311  0.00  0.00    +0.098 C 
ATOM     14  C   UNL     1      -5.021   3.726  25.497  0.00  0.00    +0.041 C 
ATOM     15  C   UNL     1      -5.799   3.594  25.702  0.00  0.00    +0.011 C 
ATOM     16  C   UNL     1      -5.262   3.226  25.439  0.00  0.00    +0.056 C 
ATOM     17  C   UNL     1      -4.393   3.581  25.264  0.00  0.00    +0.102 C 
ATOM     18  C   UNL     1      -5.041   2.383  25.147  0.00  0.00    +0.041 A 
ATOM     19  C   UNL     1      -5.369   1.633  25.049  0.00  0.00    +0.014 A 
ATOM     20  C   UNL     1      -4.910   1.019  24.745  0.00  0.00    +0.023 A 
ATOM     21  C   UNL     1      -4.123   1.155  24.538  0.00  0.00    +0.129 A 
ATOM     32  C   UNL     1      -3.795   1.906  24.635  0.00  0.00    +0.276 A 
ATOM     33  O   UNL     1      -3.008   2.042  24.428  0.00  0.00    -0.266 OA
ATOM     34  N   UNL     1      -4.254   2.520  24.940  0.00  0.00    -0.298 N 
ATOM     35  C   UNL     1      -4.781   2.848  25.190  0.00  0.00    +0.110 C 
ENDROOT
BRANCH  12   9
ATOM      9  S   UNL     1      -3.168   2.896  24.704  0.00  0.00    +0.063 S 
ATOM     10  O   UNL     1      -3.411   3.090  23.939  0.00  0.00    -0.153 OA
ATOM     11  O   UNL     1      -2.924   2.701  25.468  0.00  0.00    -0.153 OA
BRANCH   9   6
ATOM      3  C   UNL     1      -1.405   1.431  23.770  0.00  0.00    +0.139 A 
ATOM      4  C   UNL     1      -1.919   1.831  23.264  0.00  0.00    +0.038 A 
ATOM      5  C   UNL     1      -2.507   2.320  23.576  0.00  0.00    +0.023 A 
ATOM      6  C   UNL     1      -2.580   2.407  24.392  0.00  0.00    +0.122 A 
ATOM      7  C   UNL     1      -2.066   2.007  24.898  0.00  0.00    +0.023 A 
ATOM      8  C   UNL     1      -1.478   1.518  24.587  0.00  0.00    +0.038 A 
BRANCH   3   2
ATOM      1  C   UNL     1      -0.115   0.826  23.874  0.00  0.00    +0.252 C 
ATOM      2  O   UNL     1      -0.818   0.942  23.459  0.00  0.00    -0.471 OA
ENDBRANCH   3   2
ENDBRANCH   9   6
ENDBRANCH  12   9
BRANCH  21  22
ATOM     22  N   UNL     1      -3.665   0.541  24.233  0.00  0.00    -0.174 NA
ATOM     23  C   UNL     1      -3.985  -0.216  24.162  0.00  0.00    +0.250 C 
ATOM     24  O   UNL     1      -4.763  -0.360  24.396  0.00  0.00    -0.273 OA
BRANCH  23  25
ATOM     25  C   UNL     1      -3.525  -0.831  23.857  0.00  0.00    +0.113 C 
BRANCH  25  26
ATOM     26  C   UNL     1      -3.505  -1.561  24.241  0.00  0.00    -0.013 A 
ATOM     27  C   UNL     1      -3.925  -2.201  23.933  0.00  0.00    -0.004 A 
ATOM     28  C   UNL     1      -3.905  -2.930  24.317  0.00  0.00    -0.000 A 
ATOM     29  C   UNL     1      -3.465  -3.020  25.010  0.00  0.00    -0.000 A 
ATOM     30  C   UNL     1      -3.046  -2.380  25.318  0.00  0.00    -0.000 A 
ATOM     31  C   UNL     1      -3.066  -1.650  24.934  0.00  0.00    -0.004 A 
ENDBRANCH  25  26
ENDBRANCH  23  25
ENDBRANCH  21  22
TORSDOF 6
ENDMDL
MODEL 2
REMARK VINA RESULT:     -14.8      1.311      2.962
REMARK  Name = 
REMARK  6 active torsions:
REMARK  status: ('A' for Active; 'I' for Inactive)
REMARK    1  A    between atoms: O_2  and  C_3
REMARK    2  A    between atoms: C_6  and  S_9
REMARK    3  A    between atoms: S_9  and  N_12
REMARK    4  A    between atoms: C_21  and  N_22
REMARK    5  A    between atoms: C_23  and  C_25
REMARK    6  A    between atoms: C_25  and  C_26
REMARK                            x       y       z     vdW  Elec       q    Type
REMARK                         _______ _______ _______ _____ _____    ______ ____
ROOT
ATOM     12  N   UNL     1      -2.352   3.801  25.020  0.00  0.00    -0.155 NA
ATOM     13  C   UNL     1      -1.774   4.404  25.015  0.00  0.00    +0.098 C 
ATOM     14  C   UNL     1      -0.959   3.853  25.114  0.00  0.00    +0.041 C 
ATOM     15  C   UNL     1      -0.208   3.549  25.189  0.00  0.00    +0.011 C 
ATOM     16  C   UNL     1      -0.865   3.305  25.161  0.00  0.00    +0.056 C 
ATOM     17  C   UNL     1      -1.643   3.851  25.066  0.00  0.00    +0.102 C 
ATOM     18  C   UNL     1      -1.346   2.522  25.187  0.00  0.00    +0.041 A 
ATOM     19  C   UNL     1      -1.239   1.707  25.256  0.00  0.00    +0.014 A 
ATOM     20  C   UNL     1      -1.893   1.204  25.248  0.00  0.00    +0.023 A 
ATOM     21  C   UNL     1      -2.653   1.516  25.171  0.00  0.00    +0.129 A 
ATOM     32  C   UNL     1      -2.760   2.331  25.102  0.00  0.00    +0.276 A 
ATOM     33  O   UNL     1      -3.520   2.643  25.026  0.00  0.00    -0.266 OA
ATOM     34  N   UNL     1      -2.106   2.834  25.110  0.00  0.00    -0.298 N 
ATOM     35  C   UNL     1      -1.470   3.040  25.139  0.00  0.00    +0.110 C 
ENDROOT
BRANCH  12   9
ATOM      9  S   UNL     1      -3.099   3.450  24.994  0.00  0.00    +0.063 S 
ATOM     10  O   UNL     1      -3.163   3.527  25.814  0.00  0.00    -0.153 OA
ATOM     11  O   UNL     1      -3.035   3.374  24.175  0.00  0.00    -0.153 OA
BRANCH   9   6
ATOM      3  C   UNL     1      -5.338   2.399  24.917  0.00  0.00    +0.139 A 
ATOM      4  C   UNL     1      -5.029   2.659  25.636  0.00  0.00    +0.038 A 
ATOM      5  C   UNL     1      -4.282   3.009  25.662  0.00  0.00    +0.023 A 
ATOM      6  C   UNL     1      -3.846   3.100  24.969  0.00  0.00    +0.122 A 
ATOM      7  C   UNL     1      -4.155   2.840  24.249  0.00  0.00    +0.023 A 
ATOM      8  C   UNL     1      -4.901   2.490  24.223  0.00  0.00    +0.038 A 
BRANCH   3   2
ATOM      1  C   UNL     1      -6.559   2.039  25.566  0.00  0.00    +0.252 C 
ATOM      2  O   UNL     1      -6.085   2.049  24.891  0.00  0.00    -0.471 OA
ENDBRANCH   3   2
ENDBRANCH   9   6
ENDBRANCH  12   9
BRANCH  21  22
ATOM     22  N   UNL     1      -3.306   1.012  25.164  0.00  0.00    -0.174 NA
ATOM     23  C   UNL     1      -3.205   0.203  25.286  0.00  0.00    +0.250 C 
ATOM     24  O   UNL     1      -2.449  -0.103  25.416  0.00  0.00    -0.273 OA
BRANCH  23  25
ATOM     25  C   UNL     1      -3.859  -0.301  25.278  0.00  0.00    +0.113 C 
BRANCH  25  26
ATOM     26  C   UNL     1      -3.810  -1.034  24.903  0.00  0.00    -0.013 A 
ATOM     27  C   UNL     1      -4.083  -1.120  24.129  0.00  0.00    -0.004 A 
ATOM     28  C   UNL     1      -4.034  -1.853  23.754  0.00  0.00    -0.000 A 
ATOM     29  C   UNL     1      -3.713  -2.500  24.153  0.00  0.00    -0.000 A 
ATOM     30  C   UNL     1      -3.440  -2.414  24.927  0.00  0.00    -0.000 A 
ATOM     31  C   UNL     1      -3.489  -1.681  25.302  0.00  0.00    -0.004 A 
ENDBRANCH  25  26
ENDBRANCH  23  25
ENDBRANCH  21  22
TORSDOF 6
ENDMDL
MODEL 3
REMARK VINA RESULT:     -14.4      1.503      4.336
REMARK  Name = 
REMARK  6 active torsions:
REMARK  status: ('A' for Active; 'I' for Inactive)
REMARK    1  A    between atoms: O_2  and  C_3
REMARK    2  A    between atoms: C_6  and  S_9
REMARK    3  A    between atoms: S_9  and  N_12
REMARK    4  A    between atoms: C_21  and  N_22
REMARK    5  A    between atoms: C_23  and  C_25
REMARK    6  A    between atoms: C_25  and  C_26
REMARK                            x       y       z     vdW  Elec       q    Type
REMARK                         _______ _______ _______ _____ _____    ______ ____
ROOT
ATOM     12  N   UNL     1      -1.886  -1.686  24.820  0.00  0.00    -0.155 NA
ATOM     13  C   UNL     1      -1.913  -2.521  24.851  0.00  0.00    +0.098 C 
ATOM     14  C   UNL     1      -2.861  -2.664  24.616  0.00  0.00    +0.041 C 
ATOM     15  C   UNL     1      -3.605  -2.948  24.440  0.00  0.00    +0.011 C 
ATOM     16  C   UNL     1      -3.286  -2.324  24.493  0.00  0.00    +0.056 C 
ATOM     17  C   UNL     1      -2.367  -2.202  24.721  0.00  0.00    +0.102 C 
ATOM     18  C   UNL     1      -3.447  -1.423  24.411  0.00  0.00    +0.041 A 
ATOM     19  C   UNL     1      -4.054  -0.895  24.233  0.00  0.00    +0.014 A 
ATOM     20  C   UNL     1      -3.908  -0.083  24.233  0.00  0.00    +0.023 A 
ATOM     21  C   UNL     1      -3.154   0.200  24.412  0.00  0.00    +0.129 A 
ATOM     32  C   UNL     1      -2.546  -0.328  24.591  0.00  0.00    +0.276 A 
ATOM     33  O   UNL     1      -1.792  -0.045  24.770  0.00  0.00    -0.266 OA
ATOM     34  N   UNL     1      -2.693  -1.140  24.590  0.00  0.00    -0.298 N 
ATOM     35  C   UNL     1      -3.020  -1.721  24.533  0.00  0.00    +0.110 C 
ENDROOT
BRANCH  12   9
ATOM      9  S   UNL     1      -1.572  -0.924  24.866  0.00  0.00    +0.063 S 
ATOM     10  O   UNL     1      -1.793  -0.881  25.660  0.00  0.00    -0.153 OA
ATOM     11  O   UNL     1      -1.351  -0.968  24.071  0.00  0.00    -0.153 OA
BRANCH   9   6
ATOM      3  C   UNL     1      -0.632   1.361  25.002  0.00  0.00    +0.139 A 
ATOM      4  C   UNL     1      -0.960   1.010  25.672  0.00  0.00    +0.038 A 
ATOM      5  C   UNL     1      -1.273   0.248  25.627  0.00  0.00    +0.023 A 
ATOM      6  C   UNL     1      -1.259  -0.162  24.911  0.00  0.00    +0.122 A 
ATOM      7  C   UNL     1      -0.931   0.189  24.241  0.00  0.00    +0.023 A 
ATOM      8  C   UNL     1      -0.617   0.952  24.286  0.00  0.00    +0.038 A 
BRANCH   3   2
ATOM      1  C   UNL     1       0.105   2.356  25.716  0.00  0.00    +0.252 C 
ATOM      2  O   UNL     1      -0.319   2.123  25.047  0.00  0.00    -0.471 OA
ENDBRANCH   3   2
ENDBRANCH   9   6
ENDBRANCH  12   9
BRANCH  21  22
ATOM     22  N   UNL     1      -3.008   1.012  24.413  0.00  0.00    -0.174 NA
ATOM     23  C   UNL     1      -3.618   1.541  24.243  0.00  0.00    +0.250 C 
ATOM     24  O   UNL     1      -4.374   1.258  24.073  0.00  0.00    -0.273 OA
BRANCH  23  25
ATOM     25  C   UNL     1      -3.471   2.354  24.244  0.00  0.00    +0.113 C 
BRANCH  25  26
ATOM     26  C   UNL     1      -3.893   2.848  24.751  0.00  0.00    -0.013 A 
ATOM     27  C   UNL     1      -3.493   3.306  25.308  0.00  0.00    -0.004 A 
ATOM     28  C   UNL     1      -3.915   3.801  25.815  0.00  0.00    -0.000 A 
ATOM     29  C   UNL     1      -4.737   3.838  25.765  0.00  0.00    -0.000 A 
ATOM     30  C   UNL     1      -5.138   3.380  25.208  0.00  0.00    -0.000 A 
ATOM     31  C   UNL     1      -4.716   2.885  24.701  0.00  0.00    -0.004 A 
ENDBRANCH  25  26
ENDBRANCH  23  25
ENDBRANCH  21  22
TORSDOF 6
ENDMDL
