MODEL 1
REMARK VINA RESULT:      -9.3      0.000      0.000
REMARK  Name = 
REMARK  2 active torsions:
REMARK  status: ('A' for Active; 'I' for Inactive)
REMARK    1  A    between atoms: C_2  and  N_4
REMARK    2  A    between atoms: N_15  and  C_16
REMARK                            x       y       z     vdW  Elec       q    Type
REMARK                         _______ _______ _______ _____ _____    ______ ____
ROOT
ATOM      4  N   UNL     1      -4.075  -1.324  24.629  0.00  0.00    -0.190 NA
ATOM      5  C   UNL     1      -3.540  -0.701  24.552  0.00  0.00    +0.323 C 
ATOM      6  O   UNL     1      -2.762  -0.850  24.323  0.00  0.00    -0.251 OA
ATOM      7  N   UNL     1      -3.784   0.073  24.705  0.00  0.00    -0.259 N 
ATOM      8  C   UNL     1      -4.562   0.223  24.933  0.00  0.00    +0.117 C 
ATOM      9  C   UNL     1      -4.806   0.996  25.085  0.00  0.00    +0.117 C 
ATOM     10  N   UNL     1      -4.271   1.620  25.009  0.00  0.00    -0.254 N 
ATOM     11  C   UNL     1      -3.493   1.470  24.780  0.00  0.00    +0.174 C 
ATOM     12  C   UNL     1      -3.249   0.696  24.628  0.00  0.00    +0.124 C 
ATOM     13  C   UNL     1      -3.093   2.191  24.751  0.00  0.00    +0.252 C 
ATOM     14  O   UNL     1      -2.300   2.297  24.546  0.00  0.00    -0.273 OA
ATOM     15  N   UNL     1      -3.623   2.786  24.961  0.00  0.00    -0.214 N 
ATOM     19  C   UNL     1      -4.351   2.433  25.121  0.00  0.00    +0.313 C 
ATOM     20  O   UNL     1      -5.040   2.825  25.352  0.00  0.00    -0.252 OA
ENDROOT
BRANCH   4   2
ATOM      1  C   UNL     1      -4.024  -2.457  23.760  0.00  0.00    +0.023 C 
ATOM      2  C   UNL     1      -3.831  -2.098  24.477  0.00  0.00    +0.097 C 
ATOM      3  C   UNL     1      -3.394  -2.511  25.041  0.00  0.00    +0.023 C 
ENDBRANCH   4   2
BRANCH  15  16
ATOM     16  C   UNL     1      -3.455   3.592  25.005  0.00  0.00    +0.084 C 
ATOM     17  C   UNL     1      -3.143   3.912  25.699  0.00  0.00    +0.022 C 
ATOM     18  C   UNL     1      -3.599   4.080  24.355  0.00  0.00    +0.022 C 
ENDBRANCH  15  16
TORSDOF 2
ENDMDL
MODEL 2
REMARK VINA RESULT:      -8.9      2.288      4.736
REMARK  Name = 
REMARK  2 active torsions:
REMARK  status: ('A' for Active; 'I' for Inactive)
REMARK    1  A    between atoms: C_2  and  N_4
REMARK    2  A    between atoms: N_15  and  C_16
REMARK                            x       y       z     vdW  Elec       q    Type
REMARK                         _______ _______ _______ _____ _____    ______ ____
ROOT
ATOM      4  N   UNL     1      -0.369   1.564  25.216  0.00  0.00    -0.190 NA
ATOM      5  C   UNL     1      -1.153   1.312  25.259  0.00  0.00    +0.323 C 
ATOM      6  O   UNL     1      -1.744   1.838  25.494  0.00  0.00    -0.251 OA
ATOM      7  N   UNL     1      -1.346   0.532  25.067  0.00  0.00    -0.259 N 
ATOM      8  C   UNL     1      -0.756   0.006  24.832  0.00  0.00    +0.117 C 
ATOM      9  C   UNL     1      -0.949  -0.772  24.640  0.00  0.00    +0.117 C 
ATOM     10  N   UNL     1      -1.733  -1.025  24.683  0.00  0.00    -0.254 N 
ATOM     11  C   UNL     1      -2.324  -0.499  24.918  0.00  0.00    +0.174 C 
ATOM     12  C   UNL     1      -2.131   0.280  25.110  0.00  0.00    +0.124 C 
ATOM     13  C   UNL     1      -3.043  -0.902  24.908  0.00  0.00    +0.252 C 
ATOM     14  O   UNL     1      -3.780  -0.586  25.105  0.00  0.00    -0.273 OA
ATOM     15  N   UNL     1      -2.897  -1.678  24.668  0.00  0.00    -0.214 N 
ATOM     19  C   UNL     1      -2.088  -1.753  24.529  0.00  0.00    +0.313 C 
ATOM     20  O   UNL     1      -1.700  -2.437  24.279  0.00  0.00    -0.252 OA
ENDROOT
BRANCH   4   2
ATOM      1  C   UNL     1      -0.214   2.931  24.831  0.00  0.00    +0.023 C 
ATOM      2  C   UNL     1      -0.175   2.343  25.409  0.00  0.00    +0.097 C 
ATOM      3  C   UNL     1       0.056   2.533  26.177  0.00  0.00    +0.023 C 
ENDBRANCH   4   2
BRANCH  15  16
ATOM     16  C   UNL     1      -3.462  -2.273  24.581  0.00  0.00    +0.084 C 
ATOM     17  C   UNL     1      -3.977  -2.264  23.936  0.00  0.00    +0.022 C 
ATOM     18  C   UNL     1      -3.513  -2.878  25.140  0.00  0.00    +0.022 C 
ENDBRANCH  15  16
TORSDOF 2
ENDMDL
MODEL 3
REMARK VINA RESULT:      -8.8      1.601      4.384
REMARK  Name = 
REMARK  2 active torsions:
REMARK  status: ('A' for Active; 'I' for Inactive)
REMARK    1  A    between atoms: C_2  and  N_4
REMARK    2  A    between atoms: N_15  and  C_16
REMARK                            x       y       z     vdW  Elec       q    Type
REMARK                         _______ _______ _______ _____ _____    ______ ____
ROOT
ATOM      4  N   UNL     1      -2.061   3.178  24.830  0.00  0.00    -0.190 NA
ATOM      5  C   UNL     1      -1.842   2.456  25.163  0.00  0.00    +0.323 C 
ATOM      6  O   UNL     1      -1.249   2.428  25.736  0.00  0.00    -0.251 OA
ATOM      7  N   UNL     1      -2.218   1.761  24.923  0.00  0.00    -0.259 N 
ATOM      8  C   UNL     1      -2.811   1.789  24.351  0.00  0.00    +0.117 C 
ATOM      9  C   UNL     1      -3.186   1.094  24.111  0.00  0.00    +0.117 C 
ATOM     10  N   UNL     1      -2.968   0.371  24.443  0.00  0.00    -0.254 N 
ATOM     11  C   UNL     1      -2.374   0.343  25.016  0.00  0.00    +0.174 C 
ATOM     12  C   UNL     1      -1.999   1.038  25.256  0.00  0.00    +0.124 C 
ATOM     13  C   UNL     1      -2.276  -0.443  25.244  0.00  0.00    +0.252 C 
ATOM     14  O   UNL     1      -1.740  -0.723  25.805  0.00  0.00    -0.273 OA
ATOM     15  N   UNL     1      -2.809  -0.901  24.812  0.00  0.00    -0.214 N 
ATOM     19  C   UNL     1      -3.236  -0.398  24.318  0.00  0.00    +0.313 C 
ATOM     20  O   UNL     1      -3.829  -0.624  23.790  0.00  0.00    -0.252 OA
ENDROOT
BRANCH   4   2
ATOM      1  C   UNL     1      -0.935   4.056  24.783  0.00  0.00    +0.023 C 
ATOM      2  C   UNL     1      -1.686   3.873  25.070  0.00  0.00    +0.097 C 
ATOM      3  C   UNL     1      -2.063   4.385  25.597  0.00  0.00    +0.023 C 
ENDBRANCH   4   2
BRANCH  15  16
ATOM     16  C   UNL     1      -2.900  -1.720  24.866  0.00  0.00    +0.084 C 
ATOM     17  C   UNL     1      -2.401  -2.219  24.437  0.00  0.00    +0.022 C 
ATOM     18  C   UNL     1      -3.487  -2.040  25.348  0.00  0.00    +0.022 C 
ENDBRANCH  15  16
TORSDOF 2
ENDMDL
MODEL 4
REMARK VINA RESULT:      -7.7      1.962      2.987
REMARK  Name = 
REMARK  2 active torsions:
REMARK  status: ('A' for Active; 'I' for Inactive)
REMARK    1  A    between atoms: C_2  and  N_4
REMARK    2  A    between atoms: N_15  and  C_16
REMARK                            x       y       z     vdW  Elec       q    Type
REMARK                         _______ _______ _______ _____ _____    ______ ____
ROOT
ATOM      4  N   UNL     1      -0.751   0.748  24.148  0.00  0.00    -0.190 NA
ATOM      5  C   UNL     1      -1.301   1.363  24.131  0.00  0.00    +0.323 C 
ATOM      6  O   UNL     1      -1.082   2.105  23.846  0.00  0.00    -0.251 OA
ATOM      7  N   UNL     1      -2.070   1.235  24.401  0.00  0.00    -0.259 N 
ATOM      8  C   UNL     1      -2.290   0.493  24.687  0.00  0.00    +0.117 C 
ATOM      9  C   UNL     1      -3.058   0.365  24.956  0.00  0.00    +0.117 C 
ATOM     10  N   UNL     1      -3.609   0.980  24.941  0.00  0.00    -0.254 N 
ATOM     11  C   UNL     1      -3.390   1.722  24.655  0.00  0.00    +0.174 C 
ATOM     12  C   UNL     1      -2.620   1.850  24.385  0.00  0.00    +0.124 C 
ATOM     13  C   UNL     1      -4.046   2.219  24.706  0.00  0.00    +0.252 C 
ATOM     14  O   UNL     1      -4.073   3.012  24.479  0.00  0.00    -0.273 OA
ATOM     15  N   UNL     1      -4.671   1.784  25.023  0.00  0.00    -0.214 N 
ATOM     19  C   UNL     1      -4.400   1.018  25.168  0.00  0.00    +0.313 C 
ATOM     20  O   UNL     1      -4.844   0.399  25.485  0.00  0.00    -0.252 OA
ENDROOT
BRANCH   4   2
ATOM      1  C   UNL     1       0.306   0.447  23.234  0.00  0.00    +0.023 C 
ATOM      2  C   UNL     1       0.019   0.876  23.878  0.00  0.00    +0.097 C 
ATOM      3  C   UNL     1       0.500   1.432  24.252  0.00  0.00    +0.023 C 
ENDBRANCH   4   2
BRANCH  15  16
ATOM     16  C   UNL     1      -5.432   2.065  25.169  0.00  0.00    +0.084 C 
ATOM     17  C   UNL     1      -6.056   1.845  24.675  0.00  0.00    +0.022 C 
ATOM     18  C   UNL     1      -5.572   2.566  25.809  0.00  0.00    +0.022 C 
ENDBRANCH  15  16
TORSDOF 2
ENDMDL
MODEL 5
REMARK VINA RESULT:      -7.5     18.170     19.272
REMARK  Name = 
REMARK  2 active torsions:
REMARK  status: ('A' for Active; 'I' for Inactive)
REMARK    1  A    between atoms: C_2  and  N_4
REMARK    2  A    between atoms: N_15  and  C_16
REMARK                            x       y       z     vdW  Elec       q    Type
REMARK                         _______ _______ _______ _____ _____    ______ ____
ROOT
ATOM      4  N   UNL     1      15.891   6.549  19.349  0.00  0.00    -0.190 NA
ATOM      5  C   UNL     1      15.423   6.618  20.024  0.00  0.00    +0.323 C 
ATOM      6  O   UNL     1      15.753   6.496  20.770  0.00  0.00    -0.251 OA
ATOM      7  N   UNL     1      14.623   6.810  19.953  0.00  0.00    -0.259 N 
ATOM      8  C   UNL     1      14.292   6.933  19.207  0.00  0.00    +0.117 C 
ATOM      9  C   UNL     1      13.494   7.124  19.136  0.00  0.00    +0.117 C 
ATOM     10  N   UNL     1      13.024   7.194  19.811  0.00  0.00    -0.254 N 
ATOM     11  C   UNL     1      13.354   7.071  20.557  0.00  0.00    +0.174 C 
ATOM     12  C   UNL     1      14.154   6.879  20.628  0.00  0.00    +0.124 C 
ATOM     13  C   UNL     1      12.760   7.176  21.119  0.00  0.00    +0.252 C 
ATOM     14  O   UNL     1      12.848   7.106  21.937  0.00  0.00    -0.273 OA
ATOM     15  N   UNL     1      12.063   7.364  20.721  0.00  0.00    -0.214 N 
ATOM     19  C   UNL     1      12.226   7.375  19.912  0.00  0.00    +0.313 C 
ATOM     20  O   UNL     1      11.686   7.538  19.310  0.00  0.00    -0.252 OA
ENDROOT
BRANCH   4   2
ATOM      1  C   UNL     1      16.986   5.680  19.052  0.00  0.00    +0.023 C 
ATOM      2  C   UNL     1      16.691   6.357  19.420  0.00  0.00    +0.097 C 
ATOM      3  C   UNL     1      17.194   6.842  19.858  0.00  0.00    +0.023 C 
ENDBRANCH   4   2
BRANCH  15  16
ATOM     16  C   UNL     1      11.331   7.515  21.069  0.00  0.00    +0.084 C 
ATOM     17  C   UNL     1      10.893   6.895  21.396  0.00  0.00    +0.022 C 
ATOM     18  C   UNL     1      11.035   8.284  21.092  0.00  0.00    +0.022 C 
ENDBRANCH  15  16
TORSDOF 2
ENDMDL
MODEL 6
REMARK VINA RESULT:      -7.4     18.311     19.489
REMARK  Name = 
REMARK  2 active torsions:
REMARK  status: ('A' for Active; 'I' for Inactive)
REMARK    1  A    between atoms: C_2  and  N_4
REMARK    2  A    between atoms: N_15  and  C_16
REMARK                            x       y       z     vdW  Elec       q    Type
REMARK                         _______ _______ _______ _____ _____    ______ ____
ROOT
ATOM      4  N   UNL     1      11.747   7.290  20.780  0.00  0.00    -0.190 NA
ATOM      5  C   UNL     1      12.493   7.080  21.063  0.00  0.00    +0.323 C 
ATOM      6  O   UNL     1      12.598   6.908  21.863  0.00  0.00    -0.251 OA
ATOM      7  N   UNL     1      13.135   7.042  20.545  0.00  0.00    -0.259 N 
ATOM      8  C   UNL     1      13.030   7.214  19.745  0.00  0.00    +0.117 C 
ATOM      9  C   UNL     1      13.671   7.176  19.227  0.00  0.00    +0.117 C 
ATOM     10  N   UNL     1      14.417   6.967  19.509  0.00  0.00    -0.254 N 
ATOM     11  C   UNL     1      14.522   6.795  20.309  0.00  0.00    +0.174 C 
ATOM     12  C   UNL     1      13.881   6.833  20.827  0.00  0.00    +0.124 C 
ATOM     13  C   UNL     1      15.316   6.606  20.427  0.00  0.00    +0.252 C 
ATOM     14  O   UNL     1      15.664   6.398  21.146  0.00  0.00    -0.273 OA
ATOM     15  N   UNL     1      15.702   6.661  19.701  0.00  0.00    -0.214 N 
ATOM     19  C   UNL     1      15.146   6.884  19.134  0.00  0.00    +0.313 C 
ATOM     20  O   UNL     1      15.294   7.003  18.330  0.00  0.00    -0.252 OA
ENDROOT
BRANCH   4   2
ATOM      1  C   UNL     1      10.798   8.060  21.521  0.00  0.00    +0.023 C 
ATOM      2  C   UNL     1      11.106   7.327  21.298  0.00  0.00    +0.097 C 
ATOM      3  C   UNL     1      10.772   6.633  21.594  0.00  0.00    +0.023 C 
ENDBRANCH   4   2
BRANCH  15  16
ATOM     16  C   UNL     1      16.503   6.518  19.565  0.00  0.00    +0.084 C 
ATOM     17  C   UNL     1      17.071   7.046  19.849  0.00  0.00    +0.022 C 
ATOM     18  C   UNL     1      16.738   5.848  19.145  0.00  0.00    +0.022 C 
ENDBRANCH  15  16
TORSDOF 2
ENDMDL
MODEL 7
REMARK VINA RESULT:      -6.7     17.702     18.870
REMARK  Name = 
REMARK  2 active torsions:
REMARK  status: ('A' for Active; 'I' for Inactive)
REMARK    1  A    between atoms: C_2  and  N_4
REMARK    2  A    between atoms: N_15  and  C_16
REMARK                            x       y       z     vdW  Elec       q    Type
REMARK                         _______ _______ _______ _____ _____    ______ ____
ROOT
ATOM      4  N   UNL     1      11.915   6.478  21.108  0.00  0.00    -0.190 NA
ATOM      5  C   UNL     1      11.802   6.886  20.400  0.00  0.00    +0.323 C 
ATOM      6  O   UNL     1      11.047   7.136  20.183  0.00  0.00    -0.251 OA
ATOM      7  N   UNL     1      12.447   7.043  19.908  0.00  0.00    -0.259 N 
ATOM      8  C   UNL     1      13.202   6.794  20.126  0.00  0.00    +0.117 C 
ATOM      9  C   UNL     1      13.846   6.951  19.635  0.00  0.00    +0.117 C 
ATOM     10  N   UNL     1      13.734   7.359  18.926  0.00  0.00    -0.254 N 
ATOM     11  C   UNL     1      12.979   7.609  18.708  0.00  0.00    +0.174 C 
ATOM     12  C   UNL     1      12.334   7.451  19.200  0.00  0.00    +0.124 C 
ATOM     13  C   UNL     1      13.037   7.996  17.983  0.00  0.00    +0.252 C 
ATOM     14  O   UNL     1      12.413   8.334  17.562  0.00  0.00    -0.273 OA
ATOM     15  N   UNL     1      13.829   7.986  17.751  0.00  0.00    -0.214 N 
ATOM     19  C   UNL     1      14.259   7.592  18.334  0.00  0.00    +0.313 C 
ATOM     20  O   UNL     1      15.073   7.455  18.327  0.00  0.00    -0.252 OA
ENDROOT
BRANCH   4   2
ATOM      1  C   UNL     1      10.988   5.549  21.674  0.00  0.00    +0.023 C 
ATOM      2  C   UNL     1      11.270   6.321  21.600  0.00  0.00    +0.097 C 
ATOM      3  C   UNL     1      10.909   6.935  22.016  0.00  0.00    +0.023 C 
ENDBRANCH   4   2
BRANCH  15  16
ATOM     16  C   UNL     1      14.136   8.312  17.059  0.00  0.00    +0.084 C 
ATOM     17  C   UNL     1      14.180   7.856  16.372  0.00  0.00    +0.022 C 
ATOM     18  C   UNL     1      14.398   9.094  17.051  0.00  0.00    +0.022 C 
ENDBRANCH  15  16
TORSDOF 2
ENDMDL
