MODEL 1
REMARK VINA RESULT:     -11.4      0.000      0.000
REMARK  Name = 
REMARK  5 active torsions:
REMARK  status: ('A' for Active; 'I' for Inactive)
REMARK    1  A    between atoms: N_2  and  C_4
REMARK    2  A    between atoms: C_7  and  C_10
REMARK    3  A    between atoms: C_13  and  C_15
REMARK    4  A    between atoms: N_19  and  C_20
REMARK    5  A    between atoms: C_20  and  C_21
REMARK                            x       y       z     vdW  Elec       q    Type
REMARK                         _______ _______ _______ _____ _____    ______ ____
ROOT
ATOM     10  C   UNL     1      -3.966   0.526  24.870  0.00  0.00    +0.205 A 
ATOM     11  N   UNL     1      -4.467   0.818  25.458  0.00  0.00    -0.056 NA
ATOM     12  O   UNL     1      -4.563   1.628  25.332  0.00  0.00    -0.336 OA
ATOM     13  C   UNL     1      -4.123   1.836  24.666  0.00  0.00    +0.251 A 
ATOM     14  N   UNL     1      -3.754   1.156  24.381  0.00  0.00    -0.190 NA
ENDROOT
BRANCH  10   7
ATOM      4  C   UNL     1      -3.232  -1.824  24.618  0.00  0.00    +0.132 A 
ATOM      5  C   UNL     1      -3.826  -1.523  24.132  0.00  0.00    +0.034 A 
ATOM      6  C   UNL     1      -4.071  -0.739  24.216  0.00  0.00    +0.008 A 
ATOM      7  C   UNL     1      -3.722  -0.257  24.786  0.00  0.00    +0.058 A 
ATOM      8  C   UNL     1      -3.127  -0.557  25.273  0.00  0.00    +0.103 A 
ATOM      9  N   UNL     1      -2.882  -1.341  25.189  0.00  0.00    -0.229 NA
BRANCH   4   2
ATOM      1  C   UNL     1      -2.187  -2.780  24.432  0.00  0.00    +0.114 C 
ATOM      2  N   UNL     1      -2.988  -2.607  24.535  0.00  0.00    -0.290 N 
ATOM      3  C   UNL     1      -3.543  -3.217  24.553  0.00  0.00    +0.114 C 
ENDBRANCH   4   2
ENDBRANCH  10   7
BRANCH  13  15
ATOM     15  C   UNL     1      -4.062   2.593  24.343  0.00  0.00    +0.138 C 
ATOM     16  C   UNL     1      -4.560   2.916  23.770  0.00  0.00    +0.027 C 
ATOM     17  C   UNL     1      -4.299   3.682  23.608  0.00  0.00    +0.019 C 
ATOM     18  C   UNL     1      -3.639   3.831  24.080  0.00  0.00    +0.073 C 
ATOM     19  N   UNL     1      -3.493   3.158  24.535  0.00  0.00    -0.263 NA
BRANCH  19  20
ATOM     20  C   UNL     1      -2.884   3.067  25.084  0.00  0.00    +0.099 C 
BRANCH  20  21
ATOM     21  C   UNL     1      -2.246   3.589  25.083  0.00  0.00    -0.006 A 
ATOM     22  C   UNL     1      -2.315   4.325  25.448  0.00  0.00    -0.001 A 
ATOM     23  C   UNL     1      -1.676   4.847  25.448  0.00  0.00    +0.029 A 
ATOM     24  C   UNL     1      -0.968   4.633  25.081  0.00  0.00    +0.140 A 
ATOM     25  F   UNL     1      -0.329   5.155  25.081  0.00  0.00    -0.204 F 
ATOM     26  C   UNL     1      -0.900   3.897  24.716  0.00  0.00    +0.029 A 
ATOM     27  C   UNL     1      -1.538   3.375  24.717  0.00  0.00    -0.001 A 
ENDBRANCH  20  21
ENDBRANCH  19  20
ENDBRANCH  13  15
TORSDOF 5
ENDMDL
MODEL 2
REMARK VINA RESULT:     -10.8      2.564      5.785
REMARK  Name = 
REMARK  5 active torsions:
REMARK  status: ('A' for Active; 'I' for Inactive)
REMARK    1  A    between atoms: N_2  and  C_4
REMARK    2  A    between atoms: C_7  and  C_10
REMARK    3  A    between atoms: C_13  and  C_15
REMARK    4  A    between atoms: N_19  and  C_20
REMARK    5  A    between atoms: C_20  and  C_21
REMARK                            x       y       z     vdW  Elec       q    Type
REMARK                         _______ _______ _______ _____ _____    ______ ____
ROOT
ATOM     10  C   UNL     1      -1.064   1.555  25.464  0.00  0.00    +0.205 A 
ATOM     11  N   UNL     1      -0.974   1.153  26.180  0.00  0.00    -0.056 NA
ATOM     12  O   UNL     1      -0.918   0.347  26.014  0.00  0.00    -0.336 OA
ATOM     13  C   UNL     1      -0.973   0.251  25.196  0.00  0.00    +0.251 A 
ATOM     14  N   UNL     1      -1.063   0.998  24.857  0.00  0.00    -0.190 NA
ENDROOT
BRANCH  10   7
ATOM      4  C   UNL     1      -1.294   4.004  25.192  0.00  0.00    +0.132 A 
ATOM      5  C   UNL     1      -1.967   3.530  25.249  0.00  0.00    +0.034 A 
ATOM      6  C   UNL     1      -1.890   2.714  25.340  0.00  0.00    +0.008 A 
ATOM      7  C   UNL     1      -1.140   2.372  25.374  0.00  0.00    +0.058 A 
ATOM      8  C   UNL     1      -0.467   2.845  25.316  0.00  0.00    +0.103 A 
ATOM      9  N   UNL     1      -0.544   3.662  25.225  0.00  0.00    -0.229 NA
BRANCH   4   2
ATOM      1  C   UNL     1      -0.749   5.260  24.782  0.00  0.00    +0.114 C 
ATOM      2  N   UNL     1      -1.371   4.821  25.101  0.00  0.00    -0.290 N 
ATOM      3  C   UNL     1      -2.069   5.197  25.328  0.00  0.00    +0.114 C 
ENDBRANCH   4   2
ENDBRANCH  10   7
BRANCH  13  15
ATOM     15  C   UNL     1      -0.943  -0.466  24.789  0.00  0.00    +0.138 C 
ATOM     16  C   UNL     1      -0.285  -0.775  24.399  0.00  0.00    +0.027 C 
ATOM     17  C   UNL     1      -0.500  -1.499  24.069  0.00  0.00    +0.019 C 
ATOM     18  C   UNL     1      -1.292  -1.639  24.256  0.00  0.00    +0.073 C 
ATOM     19  N   UNL     1      -1.565  -1.000  24.701  0.00  0.00    -0.263 NA
BRANCH  19  20
ATOM     20  C   UNL     1      -2.327  -0.912  25.004  0.00  0.00    +0.099 C 
BRANCH  20  21
ATOM     21  C   UNL     1      -2.950  -1.351  24.691  0.00  0.00    -0.006 A 
ATOM     22  C   UNL     1      -3.064  -2.133  24.929  0.00  0.00    -0.001 A 
ATOM     23  C   UNL     1      -3.688  -2.573  24.615  0.00  0.00    +0.029 A 
ATOM     24  C   UNL     1      -4.197  -2.231  24.063  0.00  0.00    +0.140 A 
ATOM     25  F   UNL     1      -4.820  -2.672  23.749  0.00  0.00    -0.204 F 
ATOM     26  C   UNL     1      -4.082  -1.450  23.825  0.00  0.00    +0.029 A 
ATOM     27  C   UNL     1      -3.459  -1.010  24.138  0.00  0.00    -0.001 A 
ENDBRANCH  20  21
ENDBRANCH  19  20
ENDBRANCH  13  15
TORSDOF 5
ENDMDL
MODEL 3
REMARK VINA RESULT:     -10.7      1.900      2.666
REMARK  Name = 
REMARK  5 active torsions:
REMARK  status: ('A' for Active; 'I' for Inactive)
REMARK    1  A    between atoms: N_2  and  C_4
REMARK    2  A    between atoms: C_7  and  C_10
REMARK    3  A    between atoms: C_13  and  C_15
REMARK    4  A    between atoms: N_19  and  C_20
REMARK    5  A    between atoms: C_20  and  C_21
REMARK                            x       y       z     vdW  Elec       q    Type
REMARK                         _______ _______ _______ _____ _____    ______ ____
ROOT
ATOM     10  C   UNL     1      -1.453   0.136  24.685  0.00  0.00    +0.205 A 
ATOM     11  N   UNL     1      -0.882   0.345  24.127  0.00  0.00    -0.056 NA
ATOM     12  O   UNL     1      -0.446   0.975  24.433  0.00  0.00    -0.336 OA
ATOM     13  C   UNL     1      -0.747   1.156  25.179  0.00  0.00    +0.251 A 
ATOM     14  N   UNL     1      -1.370   0.637  25.335  0.00  0.00    -0.190 NA
ENDROOT
BRANCH  10   7
ATOM      4  C   UNL     1      -3.123  -1.675  24.448  0.00  0.00    +0.132 A 
ATOM      5  C   UNL     1      -3.366  -0.887  24.441  0.00  0.00    +0.034 A 
ATOM      6  C   UNL     1      -2.809  -0.283  24.520  0.00  0.00    +0.008 A 
ATOM      7  C   UNL     1      -2.010  -0.468  24.606  0.00  0.00    +0.058 A 
ATOM      8  C   UNL     1      -1.767  -1.256  24.613  0.00  0.00    +0.103 A 
ATOM      9  N   UNL     1      -2.323  -1.860  24.534  0.00  0.00    -0.229 NA
BRANCH   4   2
ATOM      1  C   UNL     1      -4.333  -2.175  23.876  0.00  0.00    +0.114 C 
ATOM      2  N   UNL     1      -3.680  -2.279  24.369  0.00  0.00    -0.290 N 
ATOM      3  C   UNL     1      -3.583  -2.985  24.783  0.00  0.00    +0.114 C 
ENDBRANCH   4   2
ENDBRANCH  10   7
BRANCH  13  15
ATOM     15  C   UNL     1      -0.475   1.750  25.682  0.00  0.00    +0.138 C 
ATOM     16  C   UNL     1       0.024   1.645  26.331  0.00  0.00    +0.027 C 
ATOM     17  C   UNL     1       0.155   2.383  26.675  0.00  0.00    +0.019 C 
ATOM     18  C   UNL     1      -0.264   2.945  26.238  0.00  0.00    +0.073 C 
ATOM     19  N   UNL     1      -0.652   2.553  25.624  0.00  0.00    -0.263 NA
BRANCH  19  20
ATOM     20  C   UNL     1      -1.134   2.904  25.054  0.00  0.00    +0.099 C 
BRANCH  20  21
ATOM     21  C   UNL     1      -1.282   3.715  25.080  0.00  0.00    -0.006 A 
ATOM     22  C   UNL     1      -0.750   4.243  24.736  0.00  0.00    -0.001 A 
ATOM     23  C   UNL     1      -0.898   5.054  24.763  0.00  0.00    +0.029 A 
ATOM     24  C   UNL     1      -1.578   5.337  25.133  0.00  0.00    +0.140 A 
ATOM     25  F   UNL     1      -1.726   6.149  25.160  0.00  0.00    -0.204 F 
ATOM     26  C   UNL     1      -2.111   4.809  25.477  0.00  0.00    +0.029 A 
ATOM     27  C   UNL     1      -1.963   3.998  25.451  0.00  0.00    -0.001 A 
ENDBRANCH  20  21
ENDBRANCH  19  20
ENDBRANCH  13  15
TORSDOF 5
ENDMDL
MODEL 4
REMARK VINA RESULT:      -9.9      2.092      5.245
REMARK  Name = 
REMARK  5 active torsions:
REMARK  status: ('A' for Active; 'I' for Inactive)
REMARK    1  A    between atoms: N_2  and  C_4
REMARK    2  A    between atoms: C_7  and  C_10
REMARK    3  A    between atoms: C_13  and  C_15
REMARK    4  A    between atoms: N_19  and  C_20
REMARK    5  A    between atoms: C_20  and  C_21
REMARK                            x       y       z     vdW  Elec       q    Type
REMARK                         _______ _______ _______ _____ _____    ______ ____
ROOT
ATOM     10  C   UNL     1      -3.348   2.898  24.404  0.00  0.00    +0.205 A 
ATOM     11  N   UNL     1      -3.826   2.938  23.731  0.00  0.00    -0.056 NA
ATOM     12  O   UNL     1      -4.439   2.393  23.821  0.00  0.00    -0.336 OA
ATOM     13  C   UNL     1      -4.341   2.016  24.549  0.00  0.00    +0.251 A 
ATOM     14  N   UNL     1      -3.667   2.329  24.908  0.00  0.00    -0.190 NA
ENDROOT
BRANCH  10   7
ATOM      4  C   UNL     1      -1.319   4.250  24.829  0.00  0.00    +0.132 A 
ATOM      5  C   UNL     1      -2.044   4.480  25.149  0.00  0.00    +0.034 A 
ATOM      6  C   UNL     1      -2.720   4.029  25.007  0.00  0.00    +0.008 A 
ATOM      7  C   UNL     1      -2.672   3.348  24.545  0.00  0.00    +0.058 A 
ATOM      8  C   UNL     1      -1.948   3.117  24.224  0.00  0.00    +0.103 A 
ATOM      9  N   UNL     1      -1.272   3.567  24.366  0.00  0.00    -0.229 NA
BRANCH   4   2
ATOM      1  C   UNL     1      -0.661   5.517  24.858  0.00  0.00    +0.114 C 
ATOM      2  N   UNL     1      -0.643   4.700  24.971  0.00  0.00    -0.290 N 
ATOM      3  C   UNL     1       0.051   4.334  25.224  0.00  0.00    +0.114 C 
ENDBRANCH   4   2
ENDBRANCH  10   7
BRANCH  13  15
ATOM     15  C   UNL     1      -4.830   1.431  24.862  0.00  0.00    +0.138 C 
ATOM     16  C   UNL     1      -5.554   1.554  25.238  0.00  0.00    +0.027 C 
ATOM     17  C   UNL     1      -5.853   0.819  25.463  0.00  0.00    +0.019 C 
ATOM     18  C   UNL     1      -5.314   0.241  25.225  0.00  0.00    +0.073 C 
ATOM     19  N   UNL     1      -4.681   0.619  24.854  0.00  0.00    -0.263 NA
BRANCH  19  20
ATOM     20  C   UNL     1      -4.018   0.251  24.531  0.00  0.00    +0.099 C 
BRANCH  20  21
ATOM     21  C   UNL     1      -3.943  -0.570  24.568  0.00  0.00    -0.006 A 
ATOM     22  C   UNL     1      -4.222  -1.038  23.949  0.00  0.00    -0.001 A 
ATOM     23  C   UNL     1      -4.147  -1.859  23.986  0.00  0.00    +0.029 A 
ATOM     24  C   UNL     1      -3.792  -2.211  24.642  0.00  0.00    +0.140 A 
ATOM     25  F   UNL     1      -3.717  -3.032  24.679  0.00  0.00    -0.204 F 
ATOM     26  C   UNL     1      -3.513  -1.743  25.261  0.00  0.00    +0.029 A 
ATOM     27  C   UNL     1      -3.588  -0.923  25.224  0.00  0.00    -0.001 A 
ENDBRANCH  20  21
ENDBRANCH  19  20
ENDBRANCH  13  15
TORSDOF 5
ENDMDL
MODEL 5
REMARK VINA RESULT:      -9.6      2.868      3.802
REMARK  Name = 
REMARK  5 active torsions:
REMARK  status: ('A' for Active; 'I' for Inactive)
REMARK    1  A    between atoms: N_2  and  C_4
REMARK    2  A    between atoms: C_7  and  C_10
REMARK    3  A    between atoms: C_13  and  C_15
REMARK    4  A    between atoms: N_19  and  C_20
REMARK    5  A    between atoms: C_20  and  C_21
REMARK                            x       y       z     vdW  Elec       q    Type
REMARK                         _______ _______ _______ _____ _____    ______ ____
ROOT
ATOM     10  C   UNL     1      -1.080   0.153  24.514  0.00  0.00    +0.205 A 
ATOM     11  N   UNL     1      -1.113   0.142  25.339  0.00  0.00    -0.056 NA
ATOM     12  O   UNL     1      -1.907   0.186  25.563  0.00  0.00    -0.336 OA
ATOM     13  C   UNL     1      -2.363   0.225  24.877  0.00  0.00    +0.251 A 
ATOM     14  N   UNL     1      -1.852   0.204  24.229  0.00  0.00    -0.190 NA
ENDROOT
BRANCH  10   7
ATOM      4  C   UNL     1       0.976   0.050  23.140  0.00  0.00    +0.132 A 
ATOM      5  C   UNL     1       0.650   0.781  23.342  0.00  0.00    +0.034 A 
ATOM      6  C   UNL     1      -0.036   0.815  23.800  0.00  0.00    +0.008 A 
ATOM      7  C   UNL     1      -0.395   0.119  24.056  0.00  0.00    +0.058 A 
ATOM      8  C   UNL     1      -0.070  -0.613  23.855  0.00  0.00    +0.103 A 
ATOM      9  N   UNL     1       0.615  -0.647  23.397  0.00  0.00    -0.229 NA
BRANCH   4   2
ATOM      1  C   UNL     1       2.374   0.300  22.985  0.00  0.00    +0.114 C 
ATOM      2  N   UNL     1       1.661   0.016  22.682  0.00  0.00    -0.290 N 
ATOM      3  C   UNL     1       1.633  -0.302  21.922  0.00  0.00    +0.114 C 
ENDBRANCH   4   2
ENDBRANCH  10   7
BRANCH  13  15
ATOM     15  C   UNL     1      -3.186   0.275  24.844  0.00  0.00    +0.138 C 
ATOM     16  C   UNL     1      -3.710  -0.362  24.810  0.00  0.00    +0.027 C 
ATOM     17  C   UNL     1      -4.477  -0.060  24.784  0.00  0.00    +0.019 C 
ATOM     18  C   UNL     1      -4.427   0.764  24.802  0.00  0.00    +0.073 C 
ATOM     19  N   UNL     1      -3.629   0.971  24.839  0.00  0.00    -0.263 NA
BRANCH  19  20
ATOM     20  C   UNL     1      -3.328   1.738  24.866  0.00  0.00    +0.099 C 
BRANCH  20  21
ATOM     21  C   UNL     1      -3.840   2.379  24.949  0.00  0.00    -0.006 A 
ATOM     22  C   UNL     1      -4.104   2.603  25.697  0.00  0.00    -0.001 A 
ATOM     23  C   UNL     1      -4.616   3.245  25.780  0.00  0.00    +0.029 A 
ATOM     24  C   UNL     1      -4.864   3.663  25.113  0.00  0.00    +0.140 A 
ATOM     25  F   UNL     1      -5.376   4.305  25.196  0.00  0.00    -0.204 F 
ATOM     26  C   UNL     1      -4.600   3.439  24.365  0.00  0.00    +0.029 A 
ATOM     27  C   UNL     1      -4.089   2.798  24.282  0.00  0.00    -0.001 A 
ENDBRANCH  20  21
ENDBRANCH  19  20
ENDBRANCH  13  15
TORSDOF 5
ENDMDL
MODEL 6
REMARK VINA RESULT:      -9.3      2.176      3.073
REMARK  Name = 
REMARK  5 active torsions:
REMARK  status: ('A' for Active; 'I' for Inactive)
REMARK    1  A    between atoms: N_2  and  C_4
REMARK    2  A    between atoms: C_7  and  C_10
REMARK    3  A    between atoms: C_13  and  C_15
REMARK    4  A    between atoms: N_19  and  C_20
REMARK    5  A    between atoms: C_20  and  C_21
REMARK                            x       y       z     vdW  Elec       q    Type
REMARK                         _______ _______ _______ _____ _____    ______ ____
ROOT
ATOM     10  C   UNL     1      -1.158   1.267  24.401  0.00  0.00    +0.205 A 
ATOM     11  N   UNL     1      -0.954   1.658  23.704  0.00  0.00    -0.056 NA
ATOM     12  O   UNL     1      -1.129   2.459  23.801  0.00  0.00    -0.336 OA
ATOM     13  C   UNL     1      -1.441   2.562  24.558  0.00  0.00    +0.251 A 
ATOM     14  N   UNL     1      -1.459   1.825  24.929  0.00  0.00    -0.190 NA
ENDROOT
BRANCH  10   7
ATOM      4  C   UNL     1      -0.911  -1.158  24.833  0.00  0.00    +0.132 A 
ATOM      5  C   UNL     1      -1.529  -0.737  25.181  0.00  0.00    +0.034 A 
ATOM      6  C   UNL     1      -1.611   0.071  25.038  0.00  0.00    +0.008 A 
ATOM      7  C   UNL     1      -1.076   0.459  24.545  0.00  0.00    +0.058 A 
ATOM      8  C   UNL     1      -0.457   0.039  24.196  0.00  0.00    +0.103 A 
ATOM      9  N   UNL     1      -0.375  -0.769  24.340  0.00  0.00    -0.229 NA
BRANCH   4   2
ATOM      1  C   UNL     1      -1.409  -2.492  24.718  0.00  0.00    +0.114 C 
ATOM      2  N   UNL     1      -0.829  -1.966  24.977  0.00  0.00    -0.290 N 
ATOM      3  C   UNL     1      -0.167  -2.247  25.379  0.00  0.00    +0.114 C 
ENDBRANCH   4   2
ENDBRANCH  10   7
BRANCH  13  15
ATOM     15  C   UNL     1      -1.690   3.276  24.887  0.00  0.00    +0.138 C 
ATOM     16  C   UNL     1      -1.209   3.834  25.258  0.00  0.00    +0.027 C 
ATOM     17  C   UNL     1      -1.685   4.461  25.503  0.00  0.00    +0.019 C 
ATOM     18  C   UNL     1      -2.463   4.291  25.283  0.00  0.00    +0.073 C 
ATOM     19  N   UNL     1      -2.466   3.558  24.902  0.00  0.00    -0.263 NA
BRANCH  19  20
ATOM     20  C   UNL     1      -3.127   3.176  24.591  0.00  0.00    +0.099 C 
BRANCH  20  21
ATOM     21  C   UNL     1      -3.878   3.344  24.889  0.00  0.00    -0.006 A 
ATOM     22  C   UNL     1      -4.288   4.008  24.623  0.00  0.00    -0.001 A 
ATOM     23  C   UNL     1      -5.040   4.175  24.920  0.00  0.00    +0.029 A 
ATOM     24  C   UNL     1      -5.380   3.678  25.484  0.00  0.00    +0.140 A 
ATOM     25  F   UNL     1      -6.132   3.846  25.781  0.00  0.00    -0.204 F 
ATOM     26  C   UNL     1      -4.969   3.014  25.750  0.00  0.00    +0.029 A 
ATOM     27  C   UNL     1      -4.219   2.847  25.453  0.00  0.00    -0.001 A 
ENDBRANCH  20  21
ENDBRANCH  19  20
ENDBRANCH  13  15
TORSDOF 5
ENDMDL
