MODEL 1
REMARK VINA RESULT:      -9.5      0.000      0.000
REMARK  Name = 
REMARK  5 active torsions:
REMARK  status: ('A' for Active; 'I' for Inactive)
REMARK    1  A    between atoms: C_3  and  C_4
REMARK    2  A    between atoms: C_4  and  N_5
REMARK    3  A    between atoms: C_14  and  C_15
REMARK    4  A    between atoms: C_15  and  C_16
REMARK    5  A    between atoms: C_16  and  C_17
REMARK                            x       y       z     vdW  Elec       q    Type
REMARK                         _______ _______ _______ _____ _____    ______ ____
ROOT
ATOM      5  N   UNL     1      -2.243   1.677  24.797  0.00  0.00    -0.259 NA
ATOM      6  C   UNL     1      -2.483   0.923  25.035  0.00  0.00    +0.074 C 
ATOM      7  C   UNL     1      -1.896   0.387  24.814  0.00  0.00    +0.035 C 
ATOM      8  C   UNL     1      -1.294   0.809  24.440  0.00  0.00    +0.083 C 
ATOM      9  C   UNL     1      -1.509   1.606  24.429  0.00  0.00    +0.152 C 
ATOM     10  C   UNL     1      -1.093   2.246  24.118  0.00  0.00    +0.257 C 
ATOM     11  O   UNL     1      -1.459   2.981  24.194  0.00  0.00    -0.272 OA
ATOM     12  N   UNL     1      -0.359   2.249  23.740  0.00  0.00    -0.203 NA
ATOM     13  C   UNL     1       0.140   1.611  23.580  0.00  0.00    +0.131 C 
ATOM     14  C   UNL     1       0.028   0.813  23.759  0.00  0.00    +0.080 C 
ATOM     24  N   UNL     1      -0.611   0.457  24.142  0.00  0.00    -0.271 NA
ATOM     25  C   UNL     1      -0.557  -0.361  24.239  0.00  0.00    +0.090 C 
ENDROOT
BRANCH   5   4
ATOM      4  C   UNL     1      -2.665   2.377  24.907  0.00  0.00    +0.137 C 
BRANCH   4   3
ATOM      1  C   UNL     1      -3.636   3.553  25.853  0.00  0.00    +0.132 C 
ATOM      2  N   UNL     1      -3.929   2.894  25.453  0.00  0.00    -0.312 N 
ATOM      3  C   UNL     1      -3.483   2.353  25.017  0.00  0.00    +0.137 A 
ATOM     26  N   UNL     1      -3.997   1.786  24.712  0.00  0.00    -0.230 NA
ATOM     27  C   UNL     1      -4.762   1.975  24.958  0.00  0.00    +0.098 A 
ATOM     28  C   UNL     1      -4.720   2.660  25.416  0.00  0.00    +0.079 A 
ATOM     29  C   UNL     1      -5.406   2.983  25.740  0.00  0.00    +0.019 A 
ATOM     30  C   UNL     1      -6.135   2.620  25.606  0.00  0.00    +0.002 A 
ATOM     31  C   UNL     1      -6.177   1.935  25.149  0.00  0.00    +0.002 A 
ATOM     32  C   UNL     1      -5.490   1.612  24.824  0.00  0.00    +0.021 A 
ENDBRANCH   4   3
ENDBRANCH   5   4
BRANCH  14  15
ATOM     15  C   UNL     1       0.634   0.305  23.525  0.00  0.00    +0.027 C 
BRANCH  15  16
ATOM     16  C   UNL     1       1.354   0.615  23.265  0.00  0.00    +0.087 C 
BRANCH  16  17
ATOM     17  C   UNL     1       1.852   0.158  22.791  0.00  0.00    +0.226 C 
ATOM     18  O   UNL     1       1.553  -0.502  22.395  0.00  0.00    -0.275 OA
ATOM     19  N   UNL     1       2.647   0.362  22.712  0.00  0.00    -0.280 N 
ATOM     20  C   UNL     1       3.208  -0.039  22.259  0.00  0.00    +0.093 C 
ATOM     21  C   UNL     1       3.929   0.354  22.339  0.00  0.00    +0.023 C 
ATOM     22  C   UNL     1       3.814   0.998  22.842  0.00  0.00    +0.023 C 
ATOM     23  C   UNL     1       3.021   1.004  23.072  0.00  0.00    +0.093 C 
ENDBRANCH  16  17
ENDBRANCH  15  16
ENDBRANCH  14  15
TORSDOF 5
ENDMDL
MODEL 2
REMARK VINA RESULT:      -8.8      1.490      2.322
REMARK  Name = 
REMARK  5 active torsions:
REMARK  status: ('A' for Active; 'I' for Inactive)
REMARK    1  A    between atoms: C_3  and  C_4
REMARK    2  A    between atoms: C_4  and  N_5
REMARK    3  A    between atoms: C_14  and  C_15
REMARK    4  A    between atoms: C_15  and  C_16
REMARK    5  A    between atoms: C_16  and  C_17
REMARK                            x       y       z     vdW  Elec       q    Type
REMARK                         _______ _______ _______ _____ _____    ______ ____
ROOT
ATOM      5  N   UNL     1      -1.020   0.486  24.400  0.00  0.00    -0.259 NA
ATOM      6  C   UNL     1      -0.991   1.269  24.660  0.00  0.00    +0.074 C 
ATOM      7  C   UNL     1      -0.260   1.583  24.442  0.00  0.00    +0.035 C 
ATOM      8  C   UNL     1       0.162   0.993  24.047  0.00  0.00    +0.083 C 
ATOM      9  C   UNL     1      -0.308   0.316  24.021  0.00  0.00    +0.152 C 
ATOM     10  C   UNL     1      -0.134  -0.418  23.687  0.00  0.00    +0.257 C 
ATOM     11  O   UNL     1      -0.725  -0.989  23.753  0.00  0.00    -0.272 OA
ATOM     12  N   UNL     1       0.552  -0.656  23.296  0.00  0.00    -0.203 NA
ATOM     13  C   UNL     1       1.235  -0.218  23.143  0.00  0.00    +0.131 C 
ATOM     14  C   UNL     1       1.399   0.566  23.343  0.00  0.00    +0.080 C 
ATOM     24  N   UNL     1       0.921   1.104  23.745  0.00  0.00    -0.271 NA
ATOM     25  C   UNL     1       1.247   1.854  23.860  0.00  0.00    +0.090 C 
ENDROOT
BRANCH   5   4
ATOM      4  C   UNL     1      -1.652  -0.035  24.502  0.00  0.00    +0.137 C 
BRANCH   4   3
ATOM      1  C   UNL     1      -2.949  -0.758  25.510  0.00  0.00    +0.132 C 
ATOM      2  N   UNL     1      -3.015  -0.075  25.053  0.00  0.00    -0.312 N 
ATOM      3  C   UNL     1      -2.419   0.258  24.589  0.00  0.00    +0.137 A 
ATOM     26  N   UNL     1      -2.724   0.934  24.228  0.00  0.00    -0.230 NA
ATOM     27  C   UNL     1      -3.509   1.019  24.469  0.00  0.00    +0.098 A 
ATOM     28  C   UNL     1      -3.689   0.396  24.978  0.00  0.00    +0.079 A 
ATOM     29  C   UNL     1      -4.442   0.338  25.308  0.00  0.00    +0.019 A 
ATOM     30  C   UNL     1      -5.016   0.903  25.129  0.00  0.00    +0.002 A 
ATOM     31  C   UNL     1      -4.836   1.526  24.620  0.00  0.00    +0.002 A 
ATOM     32  C   UNL     1      -4.082   1.584  24.289  0.00  0.00    +0.021 A 
ENDBRANCH   4   3
ENDBRANCH   5   4
BRANCH  14  15
ATOM     15  C   UNL     1       2.139   0.847  23.109  0.00  0.00    +0.027 C 
BRANCH  15  16
ATOM     16  C   UNL     1       2.785   0.335  23.082  0.00  0.00    +0.087 C 
BRANCH  16  17
ATOM     17  C   UNL     1       3.532   0.623  22.880  0.00  0.00    +0.226 C 
ATOM     18  O   UNL     1       3.599   1.292  22.401  0.00  0.00    -0.275 OA
ATOM     19  N   UNL     1       4.209   0.242  23.155  0.00  0.00    -0.280 N 
ATOM     20  C   UNL     1       4.988   0.465  22.999  0.00  0.00    +0.093 C 
ATOM     21  C   UNL     1       5.488  -0.068  23.382  0.00  0.00    +0.023 C 
ATOM     22  C   UNL     1       5.018  -0.620  23.775  0.00  0.00    +0.023 C 
ATOM     23  C   UNL     1       4.228  -0.429  23.635  0.00  0.00    +0.093 C 
ENDBRANCH  16  17
ENDBRANCH  15  16
ENDBRANCH  14  15
TORSDOF 5
ENDMDL
MODEL 3
REMARK VINA RESULT:      -8.1      0.990      6.609
REMARK  Name = 
REMARK  5 active torsions:
REMARK  status: ('A' for Active; 'I' for Inactive)
REMARK    1  A    between atoms: C_3  and  C_4
REMARK    2  A    between atoms: C_4  and  N_5
REMARK    3  A    between atoms: C_14  and  C_15
REMARK    4  A    between atoms: C_15  and  C_16
REMARK    5  A    between atoms: C_16  and  C_17
REMARK                            x       y       z     vdW  Elec       q    Type
REMARK                         _______ _______ _______ _____ _____    ______ ____
ROOT
ATOM      5  N   UNL     1       0.249   1.171  23.846  0.00  0.00    -0.259 NA
ATOM      6  C   UNL     1       0.590   1.923  23.860  0.00  0.00    +0.074 C 
ATOM      7  C   UNL     1       0.029   2.452  24.153  0.00  0.00    +0.035 C 
ATOM      8  C   UNL     1      -0.659   2.027  24.320  0.00  0.00    +0.083 C 
ATOM      9  C   UNL     1      -0.523   1.236  24.130  0.00  0.00    +0.152 C 
ATOM     10  C   UNL     1      -1.038   0.595  24.197  0.00  0.00    +0.257 C 
ATOM     11  O   UNL     1      -0.734  -0.134  23.959  0.00  0.00    -0.272 OA
ATOM     12  N   UNL     1      -1.816   0.587  24.470  0.00  0.00    -0.203 NA
ATOM     13  C   UNL     1      -2.272   1.218  24.744  0.00  0.00    +0.131 C 
ATOM     14  C   UNL     1      -2.061   2.013  24.813  0.00  0.00    +0.080 C 
ATOM     24  N   UNL     1      -1.343   2.373  24.624  0.00  0.00    -0.271 NA
ATOM     25  C   UNL     1      -1.305   3.186  24.756  0.00  0.00    +0.090 C 
ENDROOT
BRANCH   5   4
ATOM      4  C   UNL     1       0.616   0.478  23.592  0.00  0.00    +0.137 C 
BRANCH   4   3
ATOM      1  C   UNL     1       1.230  -0.441  22.177  0.00  0.00    +0.132 C 
ATOM      2  N   UNL     1       1.667   0.080  22.644  0.00  0.00    -0.312 N 
ATOM      3  C   UNL     1       1.385   0.502  23.295  0.00  0.00    +0.137 A 
ATOM     26  N   UNL     1       2.007   0.953  23.595  0.00  0.00    -0.230 NA
ATOM     27  C   UNL     1       2.674   0.810  23.131  0.00  0.00    +0.098 A 
ATOM     28  C   UNL     1       2.464   0.270  22.543  0.00  0.00    +0.079 A 
ATOM     29  C   UNL     1       3.025   0.022  21.993  0.00  0.00    +0.019 A 
ATOM     30  C   UNL     1       3.797   0.313  22.029  0.00  0.00    +0.002 A 
ATOM     31  C   UNL     1       4.006   0.852  22.617  0.00  0.00    +0.002 A 
ATOM     32  C   UNL     1       3.445   1.101  23.168  0.00  0.00    +0.021 A 
ENDBRANCH   4   3
ENDBRANCH   5   4
BRANCH  14  15
ATOM     15  C   UNL     1      -2.646   2.514  25.109  0.00  0.00    +0.027 C 
BRANCH  15  16
ATOM     16  C   UNL     1      -3.442   2.306  25.038  0.00  0.00    +0.087 C 
BRANCH  16  17
ATOM     17  C   UNL     1      -4.024   2.785  25.374  0.00  0.00    +0.226 C 
ATOM     18  O   UNL     1      -3.813   3.489  25.751  0.00  0.00    -0.275 OA
ATOM     19  N   UNL     1      -4.817   2.560  25.334  0.00  0.00    -0.280 N 
ATOM     20  C   UNL     1      -5.456   2.979  25.643  0.00  0.00    +0.093 C 
ATOM     21  C   UNL     1      -6.144   2.554  25.478  0.00  0.00    +0.023 C 
ATOM     22  C   UNL     1      -5.929   1.872  25.066  0.00  0.00    +0.023 C 
ATOM     23  C   UNL     1      -5.109   1.875  24.977  0.00  0.00    +0.093 C 
ENDBRANCH  16  17
ENDBRANCH  15  16
ENDBRANCH  14  15
TORSDOF 5
ENDMDL
MODEL 4
REMARK VINA RESULT:      -7.8      2.930      4.714
REMARK  Name = 
REMARK  5 active torsions:
REMARK  status: ('A' for Active; 'I' for Inactive)
REMARK    1  A    between atoms: C_3  and  C_4
REMARK    2  A    between atoms: C_4  and  N_5
REMARK    3  A    between atoms: C_14  and  C_15
REMARK    4  A    between atoms: C_15  and  C_16
REMARK    5  A    between atoms: C_16  and  C_17
REMARK                            x       y       z     vdW  Elec       q    Type
REMARK                         _______ _______ _______ _____ _____    ______ ____
ROOT
ATOM      5  N   UNL     1      -1.087  -0.408  24.563  0.00  0.00    -0.259 NA
ATOM      6  C   UNL     1      -0.958  -0.341  23.750  0.00  0.00    +0.074 C 
ATOM      7  C   UNL     1      -0.723   0.434  23.593  0.00  0.00    +0.035 C 
ATOM      8  C   UNL     1      -0.706   0.846  24.309  0.00  0.00    +0.083 C 
ATOM      9  C   UNL     1      -0.931   0.324  24.908  0.00  0.00    +0.152 C 
ATOM     10  C   UNL     1      -1.001   0.470  25.717  0.00  0.00    +0.257 C 
ATOM     11  O   UNL     1      -1.240  -0.172  26.176  0.00  0.00    -0.272 OA
ATOM     12  N   UNL     1      -0.863   1.172  26.127  0.00  0.00    -0.203 NA
ATOM     13  C   UNL     1      -0.621   1.903  25.829  0.00  0.00    +0.131 C 
ATOM     14  C   UNL     1      -0.457   2.111  25.047  0.00  0.00    +0.080 C 
ATOM     24  N   UNL     1      -0.496   1.640  24.371  0.00  0.00    -0.271 NA
ATOM     25  C   UNL     1      -0.297   2.015  23.663  0.00  0.00    +0.090 C 
ENDROOT
BRANCH   5   4
ATOM      4  C   UNL     1      -1.329  -1.090  24.960  0.00  0.00    +0.137 C 
BRANCH   4   3
ATOM      1  C   UNL     1      -1.528  -2.869  24.827  0.00  0.00    +0.132 C 
ATOM      2  N   UNL     1      -2.104  -2.303  24.662  0.00  0.00    -0.312 N 
ATOM      3  C   UNL     1      -2.013  -1.485  24.723  0.00  0.00    +0.137 A 
ATOM     26  N   UNL     1      -2.726  -1.132  24.505  0.00  0.00    -0.230 NA
ATOM     27  C   UNL     1      -3.258  -1.732  24.309  0.00  0.00    +0.098 A 
ATOM     28  C   UNL     1      -2.874  -2.455  24.406  0.00  0.00    +0.079 A 
ATOM     29  C   UNL     1      -3.274  -3.159  24.250  0.00  0.00    +0.019 A 
ATOM     30  C   UNL     1      -4.059  -3.140  23.996  0.00  0.00    +0.002 A 
ATOM     31  C   UNL     1      -4.444  -2.416  23.899  0.00  0.00    +0.002 A 
ATOM     32  C   UNL     1      -4.043  -1.712  24.056  0.00  0.00    +0.021 A 
ENDBRANCH   4   3
ENDBRANCH   5   4
BRANCH  14  15
ATOM     15  C   UNL     1      -0.225   2.894  24.926  0.00  0.00    +0.027 C 
BRANCH  15  16
ATOM     16  C   UNL     1      -0.645   3.509  25.283  0.00  0.00    +0.087 C 
BRANCH  16  17
ATOM     17  C   UNL     1      -0.559   4.281  25.006  0.00  0.00    +0.226 C 
ATOM     18  O   UNL     1       0.145   4.513  24.641  0.00  0.00    -0.275 OA
ATOM     19  N   UNL     1      -1.175   4.822  25.095  0.00  0.00    -0.280 N 
ATOM     20  C   UNL     1      -1.169   5.609  24.848  0.00  0.00    +0.093 C 
ATOM     21  C   UNL     1      -1.896   5.945  25.047  0.00  0.00    +0.023 C 
ATOM     22  C   UNL     1      -2.351   5.365  25.417  0.00  0.00    +0.023 C 
ATOM     23  C   UNL     1      -1.906   4.671  25.447  0.00  0.00    +0.093 C 
ENDBRANCH  16  17
ENDBRANCH  15  16
ENDBRANCH  14  15
TORSDOF 5
ENDMDL
MODEL 5
REMARK VINA RESULT:      -7.8     14.095     15.948
REMARK  Name = 
REMARK  5 active torsions:
REMARK  status: ('A' for Active; 'I' for Inactive)
REMARK    1  A    between atoms: C_3  and  C_4
REMARK    2  A    between atoms: C_4  and  N_5
REMARK    3  A    between atoms: C_14  and  C_15
REMARK    4  A    between atoms: C_15  and  C_16
REMARK    5  A    between atoms: C_16  and  C_17
REMARK                            x       y       z     vdW  Elec       q    Type
REMARK                         _______ _______ _______ _____ _____    ______ ____
ROOT
ATOM      5  N   UNL     1      -5.008 -10.377  15.937  0.00  0.00    -0.259 NA
ATOM      6  C   UNL     1      -4.716 -10.194  16.687  0.00  0.00    +0.074 C 
ATOM      7  C   UNL     1      -5.348  -9.936  17.150  0.00  0.00    +0.035 C 
ATOM      8  C   UNL     1      -6.031  -9.961  16.687  0.00  0.00    +0.083 C 
ATOM      9  C   UNL     1      -5.820 -10.233  15.937  0.00  0.00    +0.152 C 
ATOM     10  C   UNL     1      -6.304 -10.354  15.279  0.00  0.00    +0.257 C 
ATOM     11  O   UNL     1      -5.923 -10.633  14.603  0.00  0.00    -0.272 OA
ATOM     12  N   UNL     1      -7.116 -10.232  15.209  0.00  0.00    -0.203 NA
ATOM     13  C   UNL     1      -7.647  -9.959  15.779  0.00  0.00    +0.131 C 
ATOM     14  C   UNL     1      -7.496  -9.741  16.561  0.00  0.00    +0.080 C 
ATOM     24  N   UNL     1      -6.776  -9.742  16.964  0.00  0.00    -0.271 NA
ATOM     25  C   UNL     1      -6.806  -9.490  17.749  0.00  0.00    +0.090 C 
ENDROOT
BRANCH   5   4
ATOM      4  C   UNL     1      -4.565 -10.655  15.299  0.00  0.00    +0.137 C 
BRANCH   4   3
ATOM      1  C   UNL     1      -3.427 -10.602  13.912  0.00  0.00    +0.132 C 
ATOM      2  N   UNL     1      -3.219 -10.651  14.708  0.00  0.00    -0.312 N 
ATOM      3  C   UNL     1      -3.742 -10.676  15.346  0.00  0.00    +0.137 A 
ATOM     26  N   UNL     1      -3.297 -10.724  16.039  0.00  0.00    -0.230 NA
ATOM     27  C   UNL     1      -2.498 -10.730  15.830  0.00  0.00    +0.098 A 
ATOM     28  C   UNL     1      -2.450 -10.684  15.007  0.00  0.00    +0.079 A 
ATOM     29  C   UNL     1      -1.713 -10.680  14.637  0.00  0.00    +0.019 A 
ATOM     30  C   UNL     1      -1.024 -10.720  15.089  0.00  0.00    +0.002 A 
ATOM     31  C   UNL     1      -1.072 -10.765  15.911  0.00  0.00    +0.002 A 
ATOM     32  C   UNL     1      -1.810 -10.770  16.282  0.00  0.00    +0.021 A 
ENDBRANCH   4   3
ENDBRANCH   5   4
BRANCH  14  15
ATOM     15  C   UNL     1      -8.150  -9.489  16.995  0.00  0.00    +0.027 C 
BRANCH  15  16
ATOM     16  C   UNL     1      -8.723  -9.013  16.640  0.00  0.00    +0.087 C 
BRANCH  16  17
ATOM     17  C   UNL     1      -9.373  -8.754  17.077  0.00  0.00    +0.226 C 
ATOM     18  O   UNL     1      -9.593  -9.154  17.765  0.00  0.00    -0.275 OA
ATOM     19  N   UNL     1      -9.804  -8.097  16.826  0.00  0.00    -0.280 N 
ATOM     20  C   UNL     1     -10.463  -7.776  17.204  0.00  0.00    +0.093 C 
ATOM     21  C   UNL     1     -10.717  -7.125  16.765  0.00  0.00    +0.023 C 
ATOM     22  C   UNL     1     -10.215  -7.044  16.116  0.00  0.00    +0.023 C 
ATOM     23  C   UNL     1      -9.650  -7.644  16.153  0.00  0.00    +0.093 C 
ENDBRANCH  16  17
ENDBRANCH  15  16
ENDBRANCH  14  15
TORSDOF 5
ENDMDL
MODEL 6
REMARK VINA RESULT:      -7.6     14.923     15.917
REMARK  Name = 
REMARK  5 active torsions:
REMARK  status: ('A' for Active; 'I' for Inactive)
REMARK    1  A    between atoms: C_3  and  C_4
REMARK    2  A    between atoms: C_4  and  N_5
REMARK    3  A    between atoms: C_14  and  C_15
REMARK    4  A    between atoms: C_15  and  C_16
REMARK    5  A    between atoms: C_16  and  C_17
REMARK                            x       y       z     vdW  Elec       q    Type
REMARK                         _______ _______ _______ _____ _____    ______ ____
ROOT
ATOM      5  N   UNL     1      -5.506 -10.267  15.617  0.00  0.00    -0.259 NA
ATOM      6  C   UNL     1      -4.753 -10.454  15.898  0.00  0.00    +0.074 C 
ATOM      7  C   UNL     1      -4.253 -10.543  15.248  0.00  0.00    +0.035 C 
ATOM      8  C   UNL     1      -4.698 -10.412  14.564  0.00  0.00    +0.083 C 
ATOM      9  C   UNL     1      -5.472 -10.241  14.793  0.00  0.00    +0.152 C 
ATOM     10  C   UNL     1      -6.123 -10.070  14.316  0.00  0.00    +0.257 C 
ATOM     11  O   UNL     1      -6.829  -9.922  14.715  0.00  0.00    -0.272 OA
ATOM     12  N   UNL     1      -6.161 -10.027  13.493  0.00  0.00    -0.203 NA
ATOM     13  C   UNL     1      -5.556 -10.145  12.943  0.00  0.00    +0.131 C 
ATOM     14  C   UNL     1      -4.765 -10.335  13.082  0.00  0.00    +0.080 C 
ATOM     24  N   UNL     1      -4.384 -10.453  13.804  0.00  0.00    -0.271 NA
ATOM     25  C   UNL     1      -3.581 -10.638  13.757  0.00  0.00    +0.090 C 
ENDROOT
BRANCH   5   4
ATOM      4  C   UNL     1      -6.176 -10.131  16.079  0.00  0.00    +0.137 C 
BRANCH   4   3
ATOM      1  C   UNL     1      -7.535  -9.905  17.229  0.00  0.00    +0.132 C 
ATOM      2  N   UNL     1      -6.773 -10.153  17.422  0.00  0.00    -0.312 N 
ATOM      3  C   UNL     1      -6.148 -10.257  16.894  0.00  0.00    +0.137 A 
ATOM     26  N   UNL     1      -5.490 -10.509  17.323  0.00  0.00    -0.230 NA
ATOM     27  C   UNL     1      -5.709 -10.562  18.117  0.00  0.00    +0.098 A 
ATOM     28  C   UNL     1      -6.501 -10.342  18.179  0.00  0.00    +0.079 A 
ATOM     29  C   UNL     1      -6.873 -10.341  18.915  0.00  0.00    +0.019 A 
ATOM     30  C   UNL     1      -6.453 -10.561  19.590  0.00  0.00    +0.002 A 
ATOM     31  C   UNL     1      -5.660 -10.781  19.529  0.00  0.00    +0.002 A 
ATOM     32  C   UNL     1      -5.287 -10.781  18.792  0.00  0.00    +0.021 A 
ENDBRANCH   4   3
ENDBRANCH   5   4
BRANCH  14  15
ATOM     15  C   UNL     1      -4.294 -10.416  12.410  0.00  0.00    +0.027 C 
BRANCH  15  16
ATOM     16  C   UNL     1      -4.447  -9.957  11.740  0.00  0.00    +0.087 C 
BRANCH  16  17
ATOM     17  C   UNL     1      -4.017 -10.084  11.047  0.00  0.00    +0.226 C 
ATOM     18  O   UNL     1      -3.506 -10.730  10.990  0.00  0.00    -0.275 OA
ATOM     19  N   UNL     1      -4.099  -9.565  10.411  0.00  0.00    -0.280 N 
ATOM     20  C   UNL     1      -3.709  -9.620   9.687  0.00  0.00    +0.093 C 
ATOM     21  C   UNL     1      -3.954  -8.989   9.215  0.00  0.00    +0.023 C 
ATOM     22  C   UNL     1      -4.496  -8.544   9.648  0.00  0.00    +0.023 C 
ATOM     23  C   UNL     1      -4.587  -8.899  10.388  0.00  0.00    +0.093 C 
ENDBRANCH  16  17
ENDBRANCH  15  16
ENDBRANCH  14  15
TORSDOF 5
ENDMDL
MODEL 7
REMARK VINA RESULT:      -7.5     15.183     16.790
REMARK  Name = 
REMARK  5 active torsions:
REMARK  status: ('A' for Active; 'I' for Inactive)
REMARK    1  A    between atoms: C_3  and  C_4
REMARK    2  A    between atoms: C_4  and  N_5
REMARK    3  A    between atoms: C_14  and  C_15
REMARK    4  A    between atoms: C_15  and  C_16
REMARK    5  A    between atoms: C_16  and  C_17
REMARK                            x       y       z     vdW  Elec       q    Type
REMARK                         _______ _______ _______ _____ _____    ______ ____
ROOT
ATOM      5  N   UNL     1      -5.012 -10.449  13.063  0.00  0.00    -0.259 NA
ATOM      6  C   UNL     1      -5.768 -10.462  12.732  0.00  0.00    +0.074 C 
ATOM      7  C   UNL     1      -6.315 -10.462  13.349  0.00  0.00    +0.035 C 
ATOM      8  C   UNL     1      -5.897 -10.450  14.061  0.00  0.00    +0.083 C 
ATOM      9  C   UNL     1      -5.092 -10.442  13.883  0.00  0.00    +0.152 C 
ATOM     10  C   UNL     1      -4.451 -10.429  14.402  0.00  0.00    +0.257 C 
ATOM     11  O   UNL     1      -3.705 -10.424  14.050  0.00  0.00    -0.272 OA
ATOM     12  N   UNL     1      -4.457 -10.421  15.228  0.00  0.00    -0.203 NA
ATOM     13  C   UNL     1      -5.106 -10.424  15.737  0.00  0.00    +0.131 C 
ATOM     14  C   UNL     1      -5.910 -10.435  15.547  0.00  0.00    +0.080 C 
ATOM     24  N   UNL     1      -6.261 -10.447  14.801  0.00  0.00    -0.271 NA
ATOM     25  C   UNL     1      -7.086 -10.457  14.795  0.00  0.00    +0.090 C 
ENDROOT
BRANCH   5   4
ATOM      4  C   UNL     1      -4.301 -10.445  12.644  0.00  0.00    +0.137 C 
BRANCH   4   3
ATOM      1  C   UNL     1      -3.092 -10.781  11.361  0.00  0.00    +0.132 C 
ATOM      2  N   UNL     1      -3.699 -10.225  11.321  0.00  0.00    -0.312 N 
ATOM      3  C   UNL     1      -4.255 -10.070  11.911  0.00  0.00    +0.137 A 
ATOM     26  N   UNL     1      -4.757  -9.475  11.639  0.00  0.00    -0.230 NA
ATOM     27  C   UNL     1      -4.511  -9.261  10.880  0.00  0.00    +0.098 A 
ATOM     28  C   UNL     1      -3.857  -9.725  10.684  0.00  0.00    +0.079 A 
ATOM     29  C   UNL     1      -3.492  -9.632   9.951  0.00  0.00    +0.019 A 
ATOM     30  C   UNL     1      -3.778  -9.075   9.413  0.00  0.00    +0.002 A 
ATOM     31  C   UNL     1      -4.432  -8.612   9.610  0.00  0.00    +0.002 A 
ATOM     32  C   UNL     1      -4.799  -8.705  10.344  0.00  0.00    +0.021 A 
ENDBRANCH   4   3
ENDBRANCH   5   4
BRANCH  14  15
ATOM     15  C   UNL     1      -6.429 -10.435  16.188  0.00  0.00    +0.027 C 
BRANCH  15  16
ATOM     16  C   UNL     1      -6.134 -10.465  16.958  0.00  0.00    +0.087 C 
BRANCH  16  17
ATOM     17  C   UNL     1      -6.649 -10.406  17.600  0.00  0.00    +0.226 C 
ATOM     18  O   UNL     1      -7.445 -10.227  17.475  0.00  0.00    -0.275 OA
ATOM     19  N   UNL     1      -6.369 -10.527  18.366  0.00  0.00    -0.280 N 
ATOM     20  C   UNL     1      -6.816 -10.486  19.058  0.00  0.00    +0.093 C 
ATOM     21  C   UNL     1      -6.316 -10.644  19.695  0.00  0.00    +0.023 C 
ATOM     22  C   UNL     1      -5.559 -10.781  19.397  0.00  0.00    +0.023 C 
ATOM     23  C   UNL     1      -5.592 -10.709  18.576  0.00  0.00    +0.093 C 
ENDBRANCH  16  17
ENDBRANCH  15  16
ENDBRANCH  14  15
TORSDOF 5
ENDMDL
MODEL 8
REMARK VINA RESULT:      -7.4     14.582     15.227
REMARK  Name = 
REMARK  5 active torsions:
REMARK  status: ('A' for Active; 'I' for Inactive)
REMARK    1  A    between atoms: C_3  and  C_4
REMARK    2  A    between atoms: C_4  and  N_5
REMARK    3  A    between atoms: C_14  and  C_15
REMARK    4  A    between atoms: C_15  and  C_16
REMARK    5  A    between atoms: C_16  and  C_17
REMARK                            x       y       z     vdW  Elec       q    Type
REMARK                         _______ _______ _______ _____ _____    ______ ____
ROOT
ATOM      5  N   UNL     1      -7.159  -9.769  16.377  0.00  0.00    -0.259 NA
ATOM      6  C   UNL     1      -6.784  -9.753  17.112  0.00  0.00    +0.074 C 
ATOM      7  C   UNL     1      -5.989  -9.942  16.997  0.00  0.00    +0.035 C 
ATOM      8  C   UNL     1      -5.873 -10.073  16.190  0.00  0.00    +0.083 C 
ATOM      9  C   UNL     1      -6.596  -9.966  15.808  0.00  0.00    +0.152 C 
ATOM     10  C   UNL     1      -6.767 -10.035  15.004  0.00  0.00    +0.257 C 
ATOM     11  O   UNL     1      -7.551  -9.892  14.792  0.00  0.00    -0.272 OA
ATOM     12  N   UNL     1      -6.258 -10.228  14.383  0.00  0.00    -0.203 NA
ATOM     13  C   UNL     1      -5.451 -10.399  14.414  0.00  0.00    +0.131 C 
ATOM     14  C   UNL     1      -4.955 -10.420  15.074  0.00  0.00    +0.080 C 
ATOM     24  N   UNL     1      -5.143 -10.275  15.864  0.00  0.00    -0.271 NA
ATOM     25  C   UNL     1      -4.518 -10.341  16.398  0.00  0.00    +0.090 C 
ENDROOT
BRANCH   5   4
ATOM      4  C   UNL     1      -7.957  -9.613  16.237  0.00  0.00    +0.137 C 
BRANCH   4   3
ATOM      1  C   UNL     1      -9.260  -8.461  16.680  0.00  0.00    +0.132 C 
ATOM      2  N   UNL     1      -9.109  -9.185  17.044  0.00  0.00    -0.312 N 
ATOM      3  C   UNL     1      -8.509  -9.715  16.841  0.00  0.00    +0.137 A 
ATOM     26  N   UNL     1      -8.560 -10.364  17.347  0.00  0.00    -0.230 NA
ATOM     27  C   UNL     1      -9.191 -10.236  17.864  0.00  0.00    +0.098 A 
ATOM     28  C   UNL     1      -9.530  -9.507  17.677  0.00  0.00    +0.079 A 
ATOM     29  C   UNL     1     -10.177  -9.231  18.106  0.00  0.00    +0.019 A 
ATOM     30  C   UNL     1     -10.487  -9.683  18.723  0.00  0.00    +0.002 A 
ATOM     31  C   UNL     1     -10.148 -10.412  18.910  0.00  0.00    +0.002 A 
ATOM     32  C   UNL     1      -9.500 -10.688  18.481  0.00  0.00    +0.021 A 
ENDBRANCH   4   3
ENDBRANCH   5   4
BRANCH  14  15
ATOM     15  C   UNL     1      -4.167 -10.612  14.922  0.00  0.00    +0.027 C 
BRANCH  15  16
ATOM     16  C   UNL     1      -3.877 -10.584  14.150  0.00  0.00    +0.087 C 
BRANCH  16  17
ATOM     17  C   UNL     1      -3.066 -10.651  14.012  0.00  0.00    +0.226 C 
ATOM     18  O   UNL     1      -2.549 -10.781  14.642  0.00  0.00    -0.275 OA
ATOM     19  N   UNL     1      -2.772 -10.587  13.244  0.00  0.00    -0.280 N 
ATOM     20  C   UNL     1      -1.979 -10.642  13.021  0.00  0.00    +0.093 C 
ATOM     21  C   UNL     1      -1.937 -10.546  12.203  0.00  0.00    +0.023 C 
ATOM     22  C   UNL     1      -2.703 -10.433  11.919  0.00  0.00    +0.023 C 
ATOM     23  C   UNL     1      -3.219 -10.458  12.562  0.00  0.00    +0.093 C 
ENDBRANCH  16  17
ENDBRANCH  15  16
ENDBRANCH  14  15
TORSDOF 5
ENDMDL
MODEL 9
REMARK VINA RESULT:      -7.3      2.804      4.331
REMARK  Name = 
REMARK  5 active torsions:
REMARK  status: ('A' for Active; 'I' for Inactive)
REMARK    1  A    between atoms: C_3  and  C_4
REMARK    2  A    between atoms: C_4  and  N_5
REMARK    3  A    between atoms: C_14  and  C_15
REMARK    4  A    between atoms: C_15  and  C_16
REMARK    5  A    between atoms: C_16  and  C_17
REMARK                            x       y       z     vdW  Elec       q    Type
REMARK                         _______ _______ _______ _____ _____    ______ ____
ROOT
ATOM      5  N   UNL     1      -0.505   1.988  25.107  0.00  0.00    -0.259 NA
ATOM      6  C   UNL     1      -0.593   1.910  25.924  0.00  0.00    +0.074 C 
ATOM      7  C   UNL     1      -0.768   1.121  26.088  0.00  0.00    +0.035 C 
ATOM      8  C   UNL     1      -0.788   0.710  25.371  0.00  0.00    +0.083 C 
ATOM      9  C   UNL     1      -0.625   1.247  24.766  0.00  0.00    +0.152 C 
ATOM     10  C   UNL     1      -0.582   1.108  23.954  0.00  0.00    +0.257 C 
ATOM     11  O   UNL     1      -0.407   1.765  23.488  0.00  0.00    -0.272 OA
ATOM     12  N   UNL     1      -0.690   0.398  23.547  0.00  0.00    -0.203 NA
ATOM     13  C   UNL     1      -0.868  -0.348  23.852  0.00  0.00    +0.131 C 
ATOM     14  C   UNL     1      -0.982  -0.568  24.639  0.00  0.00    +0.080 C 
ATOM     24  N   UNL     1      -0.947  -0.097  25.315  0.00  0.00    -0.271 NA
ATOM     25  C   UNL     1      -1.089  -0.485  26.029  0.00  0.00    +0.090 C 
ENDROOT
BRANCH   5   4
ATOM      4  C   UNL     1      -0.328   2.685  24.703  0.00  0.00    +0.137 C 
BRANCH   4   3
ATOM      1  C   UNL     1       0.197   4.361  24.334  0.00  0.00    +0.132 C 
ATOM      2  N   UNL     1      -0.514   4.143  24.689  0.00  0.00    -0.312 N 
ATOM      3  C   UNL     1      -0.756   3.373  24.859  0.00  0.00    +0.137 A 
ATOM     26  N   UNL     1      -1.501   3.411  25.212  0.00  0.00    -0.230 NA
ATOM     27  C   UNL     1      -1.720   4.206  25.260  0.00  0.00    +0.098 A 
ATOM     28  C   UNL     1      -1.110   4.658  24.937  0.00  0.00    +0.079 A 
ATOM     29  C   UNL     1      -1.176   5.479  24.911  0.00  0.00    +0.019 A 
ATOM     30  C   UNL     1      -1.851   5.849  25.208  0.00  0.00    +0.002 A 
ATOM     31  C   UNL     1      -2.461   5.397  25.530  0.00  0.00    +0.002 A 
ATOM     32  C   UNL     1      -2.395   4.574  25.557  0.00  0.00    +0.021 A 
ENDBRANCH   4   3
ENDBRANCH   5   4
BRANCH  14  15
ATOM     15  C   UNL     1      -1.155  -1.365  24.766  0.00  0.00    +0.027 C 
BRANCH  15  16
ATOM     16  C   UNL     1      -1.713  -1.747  24.293  0.00  0.00    +0.087 C 
BRANCH  16  17
ATOM     17  C   UNL     1      -2.051  -2.456  24.545  0.00  0.00    +0.226 C 
ATOM     18  O   UNL     1      -1.591  -3.014  24.942  0.00  0.00    -0.275 OA
ATOM     19  N   UNL     1      -2.849  -2.607  24.399  0.00  0.00    -0.280 N 
ATOM     20  C   UNL     1      -3.262  -3.287  24.617  0.00  0.00    +0.093 C 
ATOM     21  C   UNL     1      -4.042  -3.204  24.363  0.00  0.00    +0.023 C 
ATOM     22  C   UNL     1      -4.112  -2.472  23.988  0.00  0.00    +0.023 C 
ATOM     23  C   UNL     1      -3.375  -2.103  24.010  0.00  0.00    +0.093 C 
ENDBRANCH  16  17
ENDBRANCH  15  16
ENDBRANCH  14  15
TORSDOF 5
ENDMDL
MODEL 10
REMARK VINA RESULT:      -7.1     14.504     16.494
REMARK  Name = 
REMARK  5 active torsions:
REMARK  status: ('A' for Active; 'I' for Inactive)
REMARK    1  A    between atoms: C_3  and  C_4
REMARK    2  A    between atoms: C_4  and  N_5
REMARK    3  A    between atoms: C_14  and  C_15
REMARK    4  A    between atoms: C_15  and  C_16
REMARK    5  A    between atoms: C_16  and  C_17
REMARK                            x       y       z     vdW  Elec       q    Type
REMARK                         _______ _______ _______ _____ _____    ______ ____
ROOT
ATOM      5  N   UNL     1      -4.902 -10.532  14.825  0.00  0.00    -0.259 NA
ATOM      6  C   UNL     1      -5.323 -10.781  14.160  0.00  0.00    +0.074 C 
ATOM      7  C   UNL     1      -6.126 -10.769  14.349  0.00  0.00    +0.035 C 
ATOM      8  C   UNL     1      -6.201 -10.513  15.130  0.00  0.00    +0.083 C 
ATOM      9  C   UNL     1      -5.444 -10.366  15.424  0.00  0.00    +0.152 C 
ATOM     10  C   UNL     1      -5.225 -10.102  16.174  0.00  0.00    +0.257 C 
ATOM     11  O   UNL     1      -4.416 -10.009  16.298  0.00  0.00    -0.272 OA
ATOM     12  N   UNL     1      -5.710  -9.918  16.816  0.00  0.00    -0.203 NA
ATOM     13  C   UNL     1      -6.533  -9.953  16.866  0.00  0.00    +0.131 C 
ATOM     14  C   UNL     1      -7.075 -10.181  16.286  0.00  0.00    +0.080 C 
ATOM     24  N   UNL     1      -6.926 -10.430  15.513  0.00  0.00    -0.271 NA
ATOM     25  C   UNL     1      -7.592 -10.622  15.066  0.00  0.00    +0.090 C 
ENDROOT
BRANCH   5   4
ATOM      4  C   UNL     1      -4.081 -10.462  14.880  0.00  0.00    +0.137 C 
BRANCH   4   3
ATOM      1  C   UNL     1      -2.315 -10.777  14.823  0.00  0.00    +0.132 C 
ATOM      2  N   UNL     1      -2.805 -10.645  14.173  0.00  0.00    -0.312 N 
ATOM      3  C   UNL     1      -3.617 -10.500  14.199  0.00  0.00    +0.137 A 
ATOM     26  N   UNL     1      -3.883 -10.400  13.424  0.00  0.00    -0.230 NA
ATOM     27  C   UNL     1      -3.235 -10.483  12.919  0.00  0.00    +0.098 A 
ATOM     28  C   UNL     1      -2.569 -10.634  13.382  0.00  0.00    +0.079 A 
ATOM     29  C   UNL     1      -1.835 -10.743  13.023  0.00  0.00    +0.019 A 
ATOM     30  C   UNL     1      -1.765 -10.700  12.202  0.00  0.00    +0.002 A 
ATOM     31  C   UNL     1      -2.432 -10.549  11.740  0.00  0.00    +0.002 A 
ATOM     32  C   UNL     1      -3.167 -10.441  12.098  0.00  0.00    +0.021 A 
ENDBRANCH   4   3
ENDBRANCH   5   4
BRANCH  14  15
ATOM     15  C   UNL     1      -7.869 -10.157  16.508  0.00  0.00    +0.027 C 
BRANCH  15  16
ATOM     16  C   UNL     1      -8.166  -9.498  16.906  0.00  0.00    +0.087 C 
BRANCH  16  17
ATOM     17  C   UNL     1      -8.886  -9.548  17.306  0.00  0.00    +0.226 C 
ATOM     18  O   UNL     1      -9.097 -10.248  17.690  0.00  0.00    -0.275 OA
ATOM     19  N   UNL     1      -9.394  -8.899  17.323  0.00  0.00    -0.280 N 
ATOM     20  C   UNL     1     -10.128  -8.866  17.698  0.00  0.00    +0.093 C 
ATOM     21  C   UNL     1     -10.445  -8.115  17.574  0.00  0.00    +0.023 C 
ATOM     22  C   UNL     1      -9.908  -7.683  17.122  0.00  0.00    +0.023 C 
ATOM     23  C   UNL     1      -9.258  -8.166  16.966  0.00  0.00    +0.093 C 
ENDBRANCH  16  17
ENDBRANCH  15  16
ENDBRANCH  14  15
TORSDOF 5
ENDMDL
