MODEL 1
REMARK VINA RESULT:      -9.8      0.000      0.000
REMARK  Name = 
REMARK  7 active torsions:
REMARK  status: ('A' for Active; 'I' for Inactive)
REMARK    1  A    between atoms: C_2  and  C_4
REMARK    2  A    between atoms: C_6  and  C_7
REMARK    3  A    between atoms: C_7  and  C_8
REMARK    4  A    between atoms: C_11  and  C_13
REMARK    5  A    between atoms: C_16  and  N_19
REMARK    6  A    between atoms: C_25  and  C_26
REMARK    7  A    between atoms: C_26  and  N_27
REMARK                            x       y       z     vdW  Elec       q    Type
REMARK                         _______ _______ _______ _____ _____    ______ ____
ROOT
ATOM      4  C   UNL     1      -3.248  -0.321  24.519  0.00  0.00    +0.006 C 
ATOM      5  C   UNL     1      -2.490  -0.545  24.755  0.00  0.00    +0.005 C 
ATOM      6  C   UNL     1      -1.981   0.012  25.091  0.00  0.00    +0.027 C 
ATOM     22  C   UNL     1      -2.231   0.792  25.191  0.00  0.00    -0.048 C 
ATOM     23  C   UNL     1      -1.723   1.347  25.527  0.00  0.00    +0.026 C 
ATOM     24  C   UNL     1      -2.990   1.014  24.955  0.00  0.00    -0.034 C 
ATOM     25  C   UNL     1      -3.498   0.459  24.619  0.00  0.00    +0.037 C 
ENDROOT
BRANCH   4   2
ATOM      1  C   UNL     1      -4.168  -1.405  24.668  0.00  0.00    +0.000 C 
ATOM      2  C   UNL     1      -3.756  -0.878  24.184  0.00  0.00    +0.000 C 
ATOM      3  C   UNL     1      -3.852  -0.909  23.366  0.00  0.00    +0.000 C 
ENDBRANCH   4   2
BRANCH   6   7
ATOM      7  C   UNL     1      -1.223  -0.212  25.327  0.00  0.00    +0.091 C 
BRANCH   7   8
ATOM      8  C   UNL     1      -0.684  -0.492  24.770  0.00  0.00    +0.227 A 
ATOM      9  N   UNL     1      -0.630  -1.269  24.495  0.00  0.00    -0.111 NA
ATOM     10  N   UNL     1      -0.016  -1.302  23.944  0.00  0.00    -0.107 NA
ATOM     11  C   UNL     1       0.310  -0.547  23.880  0.00  0.00    +0.250 A 
ATOM     12  O   UNL     1      -0.104  -0.046  24.390  0.00  0.00    -0.420 OA
BRANCH  11  13
ATOM     13  C   UNL     1       0.937  -0.329  23.391  0.00  0.00    +0.055 A 
ATOM     14  C   UNL     1       0.911  -0.500  22.584  0.00  0.00    +0.006 A 
ATOM     15  C   UNL     1       1.538  -0.283  22.094  0.00  0.00    +0.024 A 
ATOM     16  C   UNL     1       2.193   0.106  22.413  0.00  0.00    +0.143 A 
ATOM     17  C   UNL     1       2.221   0.277  23.219  0.00  0.00    +0.024 A 
ATOM     18  C   UNL     1       1.592   0.059  23.708  0.00  0.00    +0.006 A 
BRANCH  16  19
ATOM     19  N   UNL     1       2.821   0.323  21.923  0.00  0.00    +0.058 N 
ATOM     20  O   UNL     1       2.846   0.058  21.142  0.00  0.00    -0.126 OA
ATOM     21  O   UNL     1       3.423   0.805  22.215  0.00  0.00    -0.126 OA
ENDBRANCH  16  19
ENDBRANCH  11  13
ENDBRANCH   7   8
ENDBRANCH   6   7
BRANCH  25  26
ATOM     26  C   UNL     1      -4.256   0.682  24.384  0.00  0.00    +0.076 C 
BRANCH  26  27
ATOM     27  N   UNL     1      -4.589   1.380  24.672  0.00  0.00    -0.269 NA
ATOM     28  C   UNL     1      -4.405   2.102  24.317  0.00  0.00    +0.094 C 
ATOM     29  C   UNL     1      -4.738   2.799  24.606  0.00  0.00    +0.111 C 
ATOM     30  N   UNL     1      -5.255   2.775  25.249  0.00  0.00    -0.277 N 
ATOM     31  C   UNL     1      -5.438   2.053  25.603  0.00  0.00    +0.111 C 
ATOM     32  C   UNL     1      -5.105   1.355  25.315  0.00  0.00    +0.094 C 
ATOM     33  C   UNL     1      -5.587   3.472  25.537  0.00  0.00    +0.226 C 
ATOM     34  C   UNL     1      -5.404   4.195  25.183  0.00  0.00    +0.095 C 
ATOM     35  O   UNL     1      -6.104   3.448  26.180  0.00  0.00    -0.275 OA
ENDBRANCH  26  27
ENDBRANCH  25  26
TORSDOF 7
ENDMDL
MODEL 2
REMARK VINA RESULT:      -9.8      2.139      4.075
REMARK  Name = 
REMARK  7 active torsions:
REMARK  status: ('A' for Active; 'I' for Inactive)
REMARK    1  A    between atoms: C_2  and  C_4
REMARK    2  A    between atoms: C_6  and  C_7
REMARK    3  A    between atoms: C_7  and  C_8
REMARK    4  A    between atoms: C_11  and  C_13
REMARK    5  A    between atoms: C_16  and  N_19
REMARK    6  A    between atoms: C_25  and  C_26
REMARK    7  A    between atoms: C_26  and  N_27
REMARK                            x       y       z     vdW  Elec       q    Type
REMARK                         _______ _______ _______ _____ _____    ______ ____
ROOT
ATOM      4  C   UNL     1      -0.640   2.518  25.233  0.00  0.00    +0.006 C 
ATOM      5  C   UNL     1      -0.296   1.892  24.820  0.00  0.00    +0.005 C 
ATOM      6  C   UNL     1      -0.603   1.661  24.090  0.00  0.00    +0.027 C 
ATOM     22  C   UNL     1      -1.255   2.057  23.773  0.00  0.00    -0.048 C 
ATOM     23  C   UNL     1      -1.562   1.826  23.043  0.00  0.00    +0.026 C 
ATOM     24  C   UNL     1      -1.598   2.683  24.187  0.00  0.00    -0.034 C 
ATOM     25  C   UNL     1      -1.291   2.913  24.916  0.00  0.00    +0.037 C 
ENDROOT
BRANCH   4   2
ATOM      1  C   UNL     1       0.140   3.423  26.016  0.00  0.00    +0.000 C 
ATOM      2  C   UNL     1      -0.332   2.748  25.963  0.00  0.00    +0.000 C 
ATOM      3  C   UNL     1      -0.496   2.305  26.638  0.00  0.00    +0.000 C 
ENDBRANCH   4   2
BRANCH   6   7
ATOM      7  C   UNL     1      -0.259   1.036  23.677  0.00  0.00    +0.091 C 
BRANCH   7   8
ATOM      8  C   UNL     1      -0.398   0.259  23.915  0.00  0.00    +0.227 A 
ATOM      9  N   UNL     1       0.179  -0.305  24.089  0.00  0.00    -0.111 NA
ATOM     10  N   UNL     1      -0.204  -1.004  24.302  0.00  0.00    -0.107 NA
ATOM     11  C   UNL     1      -1.018  -0.872  24.260  0.00  0.00    +0.250 A 
ATOM     12  O   UNL     1      -1.137  -0.091  24.021  0.00  0.00    -0.420 OA
BRANCH  11  13
ATOM     13  C   UNL     1      -1.608  -1.423  24.427  0.00  0.00    +0.055 A 
ATOM     14  C   UNL     1      -2.275  -1.196  24.857  0.00  0.00    +0.006 A 
ATOM     15  C   UNL     1      -2.866  -1.746  25.025  0.00  0.00    +0.024 A 
ATOM     16  C   UNL     1      -2.789  -2.525  24.763  0.00  0.00    +0.143 A 
ATOM     17  C   UNL     1      -2.123  -2.754  24.334  0.00  0.00    +0.024 A 
ATOM     18  C   UNL     1      -1.532  -2.201  24.166  0.00  0.00    +0.006 A 
BRANCH  16  19
ATOM     19  N   UNL     1      -3.381  -3.076  24.931  0.00  0.00    +0.058 N 
ATOM     20  O   UNL     1      -3.500  -3.329  25.707  0.00  0.00    -0.126 OA
ATOM     21  O   UNL     1      -3.851  -3.374  24.323  0.00  0.00    -0.126 OA
ENDBRANCH  16  19
ENDBRANCH  11  13
ENDBRANCH   7   8
ENDBRANCH   6   7
BRANCH  25  26
ATOM     26  C   UNL     1      -1.635   3.539  25.329  0.00  0.00    +0.076 C 
BRANCH  26  27
ATOM     27  N   UNL     1      -2.456   3.622  25.344  0.00  0.00    -0.269 NA
ATOM     28  C   UNL     1      -2.918   3.076  25.756  0.00  0.00    +0.094 C 
ATOM     29  C   UNL     1      -3.739   3.158  25.771  0.00  0.00    +0.111 C 
ATOM     30  N   UNL     1      -4.098   3.787  25.374  0.00  0.00    -0.277 N 
ATOM     31  C   UNL     1      -3.635   4.332  24.963  0.00  0.00    +0.111 C 
ATOM     32  C   UNL     1      -2.814   4.249  24.948  0.00  0.00    +0.094 C 
ATOM     33  C   UNL     1      -4.917   3.870  25.389  0.00  0.00    +0.226 C 
ATOM     34  C   UNL     1      -5.380   3.324  25.801  0.00  0.00    +0.095 C 
ATOM     35  O   UNL     1      -5.276   4.498  24.993  0.00  0.00    -0.275 OA
ENDBRANCH  26  27
ENDBRANCH  25  26
TORSDOF 7
ENDMDL
MODEL 3
REMARK VINA RESULT:      -9.7      1.463      6.545
REMARK  Name = 
REMARK  7 active torsions:
REMARK  status: ('A' for Active; 'I' for Inactive)
REMARK    1  A    between atoms: C_2  and  C_4
REMARK    2  A    between atoms: C_6  and  C_7
REMARK    3  A    between atoms: C_7  and  C_8
REMARK    4  A    between atoms: C_11  and  C_13
REMARK    5  A    between atoms: C_16  and  N_19
REMARK    6  A    between atoms: C_25  and  C_26
REMARK    7  A    between atoms: C_26  and  N_27
REMARK                            x       y       z     vdW  Elec       q    Type
REMARK                         _______ _______ _______ _____ _____    ______ ____
ROOT
ATOM      4  C   UNL     1      -0.880   0.502  24.758  0.00  0.00    +0.006 C 
ATOM      5  C   UNL     1      -1.224   1.182  25.073  0.00  0.00    +0.005 C 
ATOM      6  C   UNL     1      -0.914   1.925  24.888  0.00  0.00    +0.027 C 
ATOM     22  C   UNL     1      -0.259   1.986  24.389  0.00  0.00    -0.048 C 
ATOM     23  C   UNL     1       0.050   2.728  24.205  0.00  0.00    +0.026 C 
ATOM     24  C   UNL     1       0.084   1.305  24.075  0.00  0.00    -0.034 C 
ATOM     25  C   UNL     1      -0.225   0.564  24.259  0.00  0.00    +0.037 C 
ENDROOT
BRANCH   4   2
ATOM      1  C   UNL     1      -0.958  -0.622  25.636  0.00  0.00    +0.000 C 
ATOM      2  C   UNL     1      -1.190  -0.239  24.942  0.00  0.00    +0.000 C 
ATOM      3  C   UNL     1      -1.731  -0.598  24.435  0.00  0.00    +0.000 C 
ENDBRANCH   4   2
BRANCH   6   7
ATOM      7  C   UNL     1      -1.258   2.605  25.203  0.00  0.00    +0.091 C 
BRANCH   7   8
ATOM      8  C   UNL     1      -2.036   2.799  25.014  0.00  0.00    +0.227 A 
ATOM      9  N   UNL     1      -2.277   3.431  24.541  0.00  0.00    -0.111 NA
ATOM     10  N   UNL     1      -3.102   3.418  24.499  0.00  0.00    -0.107 NA
ATOM     11  C   UNL     1      -3.370   2.778  24.946  0.00  0.00    +0.250 A 
ATOM     12  O   UNL     1      -2.711   2.396  25.264  0.00  0.00    -0.420 OA
BRANCH  11  13
ATOM     13  C   UNL     1      -4.157   2.559  25.055  0.00  0.00    +0.055 A 
ATOM     14  C   UNL     1      -4.646   3.008  25.544  0.00  0.00    +0.006 A 
ATOM     15  C   UNL     1      -5.434   2.790  25.655  0.00  0.00    +0.024 A 
ATOM     16  C   UNL     1      -5.733   2.121  25.275  0.00  0.00    +0.143 A 
ATOM     17  C   UNL     1      -5.244   1.670  24.786  0.00  0.00    +0.024 A 
ATOM     18  C   UNL     1      -4.456   1.890  24.677  0.00  0.00    +0.006 A 
BRANCH  16  19
ATOM     19  N   UNL     1      -6.521   1.902  25.385  0.00  0.00    +0.058 N 
ATOM     20  O   UNL     1      -7.024   1.834  24.736  0.00  0.00    -0.126 OA
ATOM     21  O   UNL     1      -6.804   1.751  26.145  0.00  0.00    -0.126 OA
ENDBRANCH  16  19
ENDBRANCH  11  13
ENDBRANCH   7   8
ENDBRANCH   6   7
BRANCH  25  26
ATOM     26  C   UNL     1       0.118  -0.116  23.944  0.00  0.00    +0.076 C 
BRANCH  26  27
ATOM     27  N   UNL     1       0.789  -0.057  23.466  0.00  0.00    -0.269 NA
ATOM     28  C   UNL     1       1.523   0.106  23.804  0.00  0.00    +0.094 C 
ATOM     29  C   UNL     1       2.193   0.166  23.326  0.00  0.00    +0.111 C 
ATOM     30  N   UNL     1       2.128   0.062  22.510  0.00  0.00    -0.277 N 
ATOM     31  C   UNL     1       1.393  -0.100  22.172  0.00  0.00    +0.111 C 
ATOM     32  C   UNL     1       0.724  -0.160  22.650  0.00  0.00    +0.094 C 
ATOM     33  C   UNL     1       2.797   0.122  22.032  0.00  0.00    +0.226 C 
ATOM     34  C   UNL     1       3.533   0.285  22.370  0.00  0.00    +0.095 C 
ATOM     35  O   UNL     1       2.733   0.019  21.216  0.00  0.00    -0.275 OA
ENDBRANCH  26  27
ENDBRANCH  25  26
TORSDOF 7
ENDMDL
MODEL 4
REMARK VINA RESULT:      -9.7      1.558      2.614
REMARK  Name = 
REMARK  7 active torsions:
REMARK  status: ('A' for Active; 'I' for Inactive)
REMARK    1  A    between atoms: C_2  and  C_4
REMARK    2  A    between atoms: C_6  and  C_7
REMARK    3  A    between atoms: C_7  and  C_8
REMARK    4  A    between atoms: C_11  and  C_13
REMARK    5  A    between atoms: C_16  and  N_19
REMARK    6  A    between atoms: C_25  and  C_26
REMARK    7  A    between atoms: C_26  and  N_27
REMARK                            x       y       z     vdW  Elec       q    Type
REMARK                         _______ _______ _______ _____ _____    ______ ____
ROOT
ATOM      4  C   UNL     1      -0.780   1.907  24.423  0.00  0.00    +0.006 C 
ATOM      5  C   UNL     1      -0.320   1.239  24.272  0.00  0.00    +0.005 C 
ATOM      6  C   UNL     1      -0.684   0.521  24.089  0.00  0.00    +0.027 C 
ATOM     22  C   UNL     1      -1.506   0.471  24.058  0.00  0.00    -0.048 C 
ATOM     23  C   UNL     1      -1.869  -0.247  23.876  0.00  0.00    +0.026 C 
ATOM     24  C   UNL     1      -1.966   1.140  24.210  0.00  0.00    -0.034 C 
ATOM     25  C   UNL     1      -1.603   1.857  24.392  0.00  0.00    +0.037 C 
ENDROOT
BRANCH   4   2
ATOM      1  C   UNL     1      -0.303   3.191  24.015  0.00  0.00    +0.000 C 
ATOM      2  C   UNL     1      -0.416   2.625  24.605  0.00  0.00    +0.000 C 
ATOM      3  C   UNL     1      -0.166   2.776  25.375  0.00  0.00    +0.000 C 
ENDBRANCH   4   2
BRANCH   6   7
ATOM      7  C   UNL     1      -0.223  -0.147  23.938  0.00  0.00    +0.091 C 
BRANCH   7   8
ATOM      8  C   UNL     1       0.445  -0.088  23.460  0.00  0.00    +0.227 A 
ATOM      9  N   UNL     1       0.454  -0.109  22.635  0.00  0.00    -0.111 NA
ATOM     10  N   UNL     1       1.237  -0.031  22.386  0.00  0.00    -0.107 NA
ATOM     11  C   UNL     1       1.712   0.038  23.058  0.00  0.00    +0.250 A 
ATOM     12  O   UNL     1       1.222   0.004  23.721  0.00  0.00    -0.420 OA
BRANCH  11  13
ATOM     13  C   UNL     1       2.532   0.127  23.065  0.00  0.00    +0.055 A 
ATOM     14  C   UNL     1       2.871   0.848  22.848  0.00  0.00    +0.006 A 
ATOM     15  C   UNL     1       3.691   0.938  22.855  0.00  0.00    +0.024 A 
ATOM     16  C   UNL     1       4.172   0.306  23.079  0.00  0.00    +0.143 A 
ATOM     17  C   UNL     1       3.834  -0.414  23.296  0.00  0.00    +0.024 A 
ATOM     18  C   UNL     1       3.013  -0.503  23.289  0.00  0.00    +0.006 A 
BRANCH  16  19
ATOM     19  N   UNL     1       4.993   0.396  23.087  0.00  0.00    +0.058 N 
ATOM     20  O   UNL     1       5.360   0.773  23.720  0.00  0.00    -0.126 OA
ATOM     21  O   UNL     1       5.444   0.107  22.460  0.00  0.00    -0.126 OA
ENDBRANCH  16  19
ENDBRANCH  11  13
ENDBRANCH   7   8
ENDBRANCH   6   7
BRANCH  25  26
ATOM     26  C   UNL     1      -2.062   2.525  24.543  0.00  0.00    +0.076 C 
BRANCH  26  27
ATOM     27  N   UNL     1      -2.876   2.448  24.662  0.00  0.00    -0.269 NA
ATOM     28  C   UNL     1      -3.171   2.322  25.423  0.00  0.00    +0.094 C 
ATOM     29  C   UNL     1      -3.984   2.245  25.542  0.00  0.00    +0.111 C 
ATOM     30  N   UNL     1      -4.501   2.294  24.900  0.00  0.00    -0.277 N 
ATOM     31  C   UNL     1      -4.205   2.420  24.141  0.00  0.00    +0.111 C 
ATOM     32  C   UNL     1      -3.393   2.496  24.022  0.00  0.00    +0.094 C 
ATOM     33  C   UNL     1      -5.313   2.217  25.019  0.00  0.00    +0.226 C 
ATOM     34  C   UNL     1      -5.609   2.092  25.780  0.00  0.00    +0.095 C 
ATOM     35  O   UNL     1      -5.831   2.266  24.379  0.00  0.00    -0.275 OA
ENDBRANCH  26  27
ENDBRANCH  25  26
TORSDOF 7
ENDMDL
MODEL 5
REMARK VINA RESULT:      -9.4      3.216      4.582
REMARK  Name = 
REMARK  7 active torsions:
REMARK  status: ('A' for Active; 'I' for Inactive)
REMARK    1  A    between atoms: C_2  and  C_4
REMARK    2  A    between atoms: C_6  and  C_7
REMARK    3  A    between atoms: C_7  and  C_8
REMARK    4  A    between atoms: C_11  and  C_13
REMARK    5  A    between atoms: C_16  and  N_19
REMARK    6  A    between atoms: C_25  and  C_26
REMARK    7  A    between atoms: C_26  and  N_27
REMARK                            x       y       z     vdW  Elec       q    Type
REMARK                         _______ _______ _______ _____ _____    ______ ____
ROOT
ATOM      4  C   UNL     1      -4.685   1.646  24.640  0.00  0.00    +0.006 C 
ATOM      5  C   UNL     1      -4.256   2.319  24.431  0.00  0.00    +0.005 C 
ATOM      6  C   UNL     1      -3.614   2.256  23.916  0.00  0.00    +0.027 C 
ATOM     22  C   UNL     1      -3.401   1.520  23.611  0.00  0.00    -0.048 C 
ATOM     23  C   UNL     1      -2.760   1.457  23.096  0.00  0.00    +0.026 C 
ATOM     24  C   UNL     1      -3.830   0.847  23.820  0.00  0.00    -0.034 C 
ATOM     25  C   UNL     1      -4.472   0.910  24.335  0.00  0.00    +0.037 C 
ENDROOT
BRANCH   4   2
ATOM      1  C   UNL     1      -5.198   1.748  25.970  0.00  0.00    +0.000 C 
ATOM      2  C   UNL     1      -5.326   1.710  25.155  0.00  0.00    +0.000 C 
ATOM      3  C   UNL     1      -6.094   1.736  24.856  0.00  0.00    +0.000 C 
ENDBRANCH   4   2
BRANCH   6   7
ATOM      7  C   UNL     1      -3.186   2.929  23.707  0.00  0.00    +0.091 C 
BRANCH   7   8
ATOM      8  C   UNL     1      -2.637   3.248  24.232  0.00  0.00    +0.227 A 
ATOM      9  N   UNL     1      -2.526   4.051  24.390  0.00  0.00    -0.111 NA
ATOM     10  N   UNL     1      -1.922   4.120  24.947  0.00  0.00    -0.107 NA
ATOM     11  C   UNL     1      -1.658   3.360  25.133  0.00  0.00    +0.250 A 
ATOM     12  O   UNL     1      -2.100   2.822  24.691  0.00  0.00    -0.420 OA
BRANCH  11  13
ATOM     13  C   UNL     1      -1.059   3.172  25.667  0.00  0.00    +0.055 A 
ATOM     14  C   UNL     1      -1.242   3.024  26.458  0.00  0.00    +0.006 A 
ATOM     15  C   UNL     1      -0.643   2.835  26.993  0.00  0.00    +0.024 A 
ATOM     16  C   UNL     1       0.140   2.795  26.736  0.00  0.00    +0.143 A 
ATOM     17  C   UNL     1       0.325   2.944  25.946  0.00  0.00    +0.024 A 
ATOM     18  C   UNL     1      -0.276   3.132  25.412  0.00  0.00    +0.006 A 
BRANCH  16  19
ATOM     19  N   UNL     1       0.740   2.607  27.271  0.00  0.00    +0.058 N 
ATOM     20  O   UNL     1       0.557   2.224  27.978  0.00  0.00    -0.126 OA
ATOM     21  O   UNL     1       1.523   2.801  27.098  0.00  0.00    -0.126 OA
ENDBRANCH  16  19
ENDBRANCH  11  13
ENDBRANCH   7   8
ENDBRANCH   6   7
BRANCH  25  26
ATOM     26  C   UNL     1      -4.900   0.237  24.544  0.00  0.00    +0.076 C 
BRANCH  26  27
ATOM     27  N   UNL     1      -4.530  -0.501  24.557  0.00  0.00    -0.269 NA
ATOM     28  C   UNL     1      -4.059  -0.715  25.200  0.00  0.00    +0.094 C 
ATOM     29  C   UNL     1      -3.689  -1.453  25.212  0.00  0.00    +0.111 C 
ATOM     30  N   UNL     1      -3.790  -1.976  24.581  0.00  0.00    -0.277 N 
ATOM     31  C   UNL     1      -4.260  -1.760  23.939  0.00  0.00    +0.111 C 
ATOM     32  C   UNL     1      -4.630  -1.023  23.926  0.00  0.00    +0.094 C 
ATOM     33  C   UNL     1      -3.420  -2.712  24.594  0.00  0.00    +0.226 C 
ATOM     34  C   UNL     1      -2.950  -2.927  25.237  0.00  0.00    +0.095 C 
ATOM     35  O   UNL     1      -3.520  -3.235  23.963  0.00  0.00    -0.275 OA
ENDBRANCH  26  27
ENDBRANCH  25  26
TORSDOF 7
ENDMDL
MODEL 6
REMARK VINA RESULT:      -9.4      2.381      5.695
REMARK  Name = 
REMARK  7 active torsions:
REMARK  status: ('A' for Active; 'I' for Inactive)
REMARK    1  A    between atoms: C_2  and  C_4
REMARK    2  A    between atoms: C_6  and  C_7
REMARK    3  A    between atoms: C_7  and  C_8
REMARK    4  A    between atoms: C_11  and  C_13
REMARK    5  A    between atoms: C_16  and  N_19
REMARK    6  A    between atoms: C_25  and  C_26
REMARK    7  A    between atoms: C_26  and  N_27
REMARK                            x       y       z     vdW  Elec       q    Type
REMARK                         _______ _______ _______ _____ _____    ______ ____
ROOT
ATOM      4  C   UNL     1      -0.269   0.689  24.206  0.00  0.00    +0.006 C 
ATOM      5  C   UNL     1      -0.219   1.422  24.579  0.00  0.00    +0.005 C 
ATOM      6  C   UNL     1      -0.443   1.498  25.371  0.00  0.00    +0.027 C 
ATOM     22  C   UNL     1      -0.716   0.840  25.787  0.00  0.00    -0.048 C 
ATOM     23  C   UNL     1      -0.939   0.916  26.577  0.00  0.00    +0.026 C 
ATOM     24  C   UNL     1      -0.765   0.107  25.412  0.00  0.00    -0.034 C 
ATOM     25  C   UNL     1      -0.542   0.031  24.622  0.00  0.00    +0.037 C 
ENDROOT
BRANCH   4   2
ATOM      1  C   UNL     1       0.676   0.260  23.223  0.00  0.00    +0.000 C 
ATOM      2  C   UNL     1      -0.045   0.613  23.416  0.00  0.00    +0.000 C 
ATOM      3  C   UNL     1      -0.541   0.890  22.818  0.00  0.00    +0.000 C 
ENDBRANCH   4   2
BRANCH   6   7
ATOM      7  C   UNL     1      -0.393   2.232  25.744  0.00  0.00    +0.091 C 
BRANCH   7   8
ATOM      8  C   UNL     1      -0.969   2.805  25.605  0.00  0.00    +0.227 A 
ATOM      9  N   UNL     1      -0.830   3.587  25.381  0.00  0.00    -0.111 NA
ATOM     10  N   UNL     1      -1.561   3.964  25.303  0.00  0.00    -0.107 NA
ATOM     11  C   UNL     1      -2.150   3.414  25.480  0.00  0.00    +0.250 A 
ATOM     12  O   UNL     1      -1.784   2.699  25.667  0.00  0.00    -0.420 OA
BRANCH  11  13
ATOM     13  C   UNL     1      -2.963   3.556  25.472  0.00  0.00    +0.055 A 
ATOM     14  C   UNL     1      -3.401   3.406  24.788  0.00  0.00    +0.006 A 
ATOM     15  C   UNL     1      -4.214   3.547  24.779  0.00  0.00    +0.024 A 
ATOM     16  C   UNL     1      -4.589   3.838  25.454  0.00  0.00    +0.143 A 
ATOM     17  C   UNL     1      -4.152   3.987  26.138  0.00  0.00    +0.024 A 
ATOM     18  C   UNL     1      -3.338   3.846  26.146  0.00  0.00    +0.006 A 
BRANCH  16  19
ATOM     19  N   UNL     1      -5.402   3.979  25.445  0.00  0.00    +0.058 N 
ATOM     20  O   UNL     1      -5.930   3.347  25.484  0.00  0.00    -0.126 OA
ATOM     21  O   UNL     1      -5.686   4.752  25.397  0.00  0.00    -0.126 OA
ENDBRANCH  16  19
ENDBRANCH  11  13
ENDBRANCH   7   8
ENDBRANCH   6   7
BRANCH  25  26
ATOM     26  C   UNL     1      -0.591  -0.702  24.249  0.00  0.00    +0.076 C 
BRANCH  26  27
ATOM     27  N   UNL     1      -1.249  -1.186  24.373  0.00  0.00    -0.269 NA
ATOM     28  C   UNL     1      -1.981  -0.975  24.056  0.00  0.00    +0.094 C 
ATOM     29  C   UNL     1      -2.639  -1.458  24.180  0.00  0.00    +0.111 C 
ATOM     30  N   UNL     1      -2.564  -2.151  24.621  0.00  0.00    -0.277 N 
ATOM     31  C   UNL     1      -1.832  -2.361  24.938  0.00  0.00    +0.111 C 
ATOM     32  C   UNL     1      -1.174  -1.878  24.814  0.00  0.00    +0.094 C 
ATOM     33  C   UNL     1      -3.220  -2.634  24.745  0.00  0.00    +0.226 C 
ATOM     34  C   UNL     1      -3.953  -2.423  24.428  0.00  0.00    +0.095 C 
ATOM     35  O   UNL     1      -3.146  -3.327  25.186  0.00  0.00    -0.275 OA
ENDBRANCH  26  27
ENDBRANCH  25  26
TORSDOF 7
ENDMDL
MODEL 7
REMARK VINA RESULT:      -9.4      2.215      3.701
REMARK  Name = 
REMARK  7 active torsions:
REMARK  status: ('A' for Active; 'I' for Inactive)
REMARK    1  A    between atoms: C_2  and  C_4
REMARK    2  A    between atoms: C_6  and  C_7
REMARK    3  A    between atoms: C_7  and  C_8
REMARK    4  A    between atoms: C_11  and  C_13
REMARK    5  A    between atoms: C_16  and  N_19
REMARK    6  A    between atoms: C_25  and  C_26
REMARK    7  A    between atoms: C_26  and  N_27
REMARK                            x       y       z     vdW  Elec       q    Type
REMARK                         _______ _______ _______ _____ _____    ______ ____
ROOT
ATOM      4  C   UNL     1      -2.114   2.064  23.332  0.00  0.00    +0.006 C 
ATOM      5  C   UNL     1      -1.488   1.576  23.554  0.00  0.00    +0.005 C 
ATOM      6  C   UNL     1      -1.166   1.638  24.312  0.00  0.00    +0.027 C 
ATOM     22  C   UNL     1      -1.471   2.187  24.847  0.00  0.00    -0.048 C 
ATOM     23  C   UNL     1      -1.149   2.249  25.603  0.00  0.00    +0.026 C 
ATOM     24  C   UNL     1      -2.098   2.675  24.623  0.00  0.00    -0.034 C 
ATOM     25  C   UNL     1      -2.420   2.613  23.867  0.00  0.00    +0.037 C 
ENDROOT
BRANCH   4   2
ATOM      1  C   UNL     1      -2.232   2.552  21.994  0.00  0.00    +0.000 C 
ATOM      2  C   UNL     1      -2.436   2.002  22.575  0.00  0.00    +0.000 C 
ATOM      3  C   UNL     1      -2.959   1.391  22.398  0.00  0.00    +0.000 C 
ENDBRANCH   4   2
BRANCH   6   7
ATOM      7  C   UNL     1      -0.539   1.150  24.534  0.00  0.00    +0.091 C 
BRANCH   7   8
ATOM      8  C   UNL     1      -0.645   0.334  24.572  0.00  0.00    +0.227 A 
ATOM      9  N   UNL     1      -0.045  -0.233  24.581  0.00  0.00    -0.111 NA
ATOM     10  N   UNL     1      -0.398  -0.978  24.622  0.00  0.00    -0.107 NA
ATOM     11  C   UNL     1      -1.216  -0.871  24.640  0.00  0.00    +0.250 A 
ATOM     12  O   UNL     1      -1.368  -0.060  24.609  0.00  0.00    -0.420 OA
BRANCH  11  13
ATOM     13  C   UNL     1      -1.783  -1.469  24.680  0.00  0.00    +0.055 A 
ATOM     14  C   UNL     1      -2.474  -1.354  25.116  0.00  0.00    +0.006 A 
ATOM     15  C   UNL     1      -3.041  -1.951  25.158  0.00  0.00    +0.024 A 
ATOM     16  C   UNL     1      -2.917  -2.665  24.762  0.00  0.00    +0.143 A 
ATOM     17  C   UNL     1      -2.226  -2.781  24.327  0.00  0.00    +0.024 A 
ATOM     18  C   UNL     1      -1.659  -2.182  24.286  0.00  0.00    +0.006 A 
BRANCH  16  19
ATOM     19  N   UNL     1      -3.484  -3.263  24.803  0.00  0.00    +0.058 N 
ATOM     20  O   UNL     1      -3.555  -3.718  25.487  0.00  0.00    -0.126 OA
ATOM     21  O   UNL     1      -3.980  -3.405  24.160  0.00  0.00    -0.126 OA
ENDBRANCH  16  19
ENDBRANCH  11  13
ENDBRANCH   7   8
ENDBRANCH   6   7
BRANCH  25  26
ATOM     26  C   UNL     1      -3.046   3.101  23.644  0.00  0.00    +0.076 C 
BRANCH  26  27
ATOM     27  N   UNL     1      -3.688   3.206  24.153  0.00  0.00    -0.269 NA
ATOM     28  C   UNL     1      -4.221   2.589  24.277  0.00  0.00    +0.094 C 
ATOM     29  C   UNL     1      -4.863   2.694  24.785  0.00  0.00    +0.111 C 
ATOM     30  N   UNL     1      -4.971   3.418  25.169  0.00  0.00    -0.277 N 
ATOM     31  C   UNL     1      -4.437   4.034  25.044  0.00  0.00    +0.111 C 
ATOM     32  C   UNL     1      -3.796   3.928  24.536  0.00  0.00    +0.094 C 
ATOM     33  C   UNL     1      -5.611   3.523  25.677  0.00  0.00    +0.226 C 
ATOM     34  C   UNL     1      -6.145   2.906  25.802  0.00  0.00    +0.095 C 
ATOM     35  O   UNL     1      -5.719   4.245  26.061  0.00  0.00    -0.275 OA
ENDBRANCH  26  27
ENDBRANCH  25  26
TORSDOF 7
ENDMDL
MODEL 8
REMARK VINA RESULT:      -9.3      2.241      3.182
REMARK  Name = 
REMARK  7 active torsions:
REMARK  status: ('A' for Active; 'I' for Inactive)
REMARK    1  A    between atoms: C_2  and  C_4
REMARK    2  A    between atoms: C_6  and  C_7
REMARK    3  A    between atoms: C_7  and  C_8
REMARK    4  A    between atoms: C_11  and  C_13
REMARK    5  A    between atoms: C_16  and  N_19
REMARK    6  A    between atoms: C_25  and  C_26
REMARK    7  A    between atoms: C_26  and  N_27
REMARK                            x       y       z     vdW  Elec       q    Type
REMARK                         _______ _______ _______ _____ _____    ______ ____
ROOT
ATOM      4  C   UNL     1      -2.821   2.906  23.654  0.00  0.00    +0.006 C 
ATOM      5  C   UNL     1      -2.010   2.835  23.782  0.00  0.00    +0.005 C 
ATOM      6  C   UNL     1      -1.690   3.029  24.519  0.00  0.00    +0.027 C 
ATOM     22  C   UNL     1      -2.182   3.294  25.125  0.00  0.00    -0.048 C 
ATOM     23  C   UNL     1      -1.863   3.488  25.860  0.00  0.00    +0.026 C 
ATOM     24  C   UNL     1      -2.994   3.366  24.995  0.00  0.00    -0.034 C 
ATOM     25  C   UNL     1      -3.314   3.172  24.261  0.00  0.00    +0.037 C 
ENDROOT
BRANCH   4   2
ATOM      1  C   UNL     1      -3.150   1.925  22.668  0.00  0.00    +0.000 C 
ATOM      2  C   UNL     1      -3.140   2.712  22.919  0.00  0.00    +0.000 C 
ATOM      3  C   UNL     1      -3.449   3.302  22.434  0.00  0.00    +0.000 C 
ENDBRANCH   4   2
BRANCH   6   7
ATOM      7  C   UNL     1      -0.878   2.957  24.647  0.00  0.00    +0.091 C 
BRANCH   7   8
ATOM      8  C   UNL     1      -0.517   2.218  24.602  0.00  0.00    +0.227 A 
ATOM      9  N   UNL     1       0.266   2.073  24.386  0.00  0.00    -0.111 NA
ATOM     10  N   UNL     1       0.392   1.258  24.415  0.00  0.00    -0.107 NA
ATOM     11  C   UNL     1      -0.313   0.899  24.649  0.00  0.00    +0.250 A 
ATOM     12  O   UNL     1      -0.875   1.493  24.765  0.00  0.00    -0.420 OA
BRANCH  11  13
ATOM     13  C   UNL     1      -0.435   0.090  24.751  0.00  0.00    +0.055 A 
ATOM     14  C   UNL     1      -0.803  -0.190  25.434  0.00  0.00    +0.006 A 
ATOM     15  C   UNL     1      -0.926  -0.999  25.537  0.00  0.00    +0.024 A 
ATOM     16  C   UNL     1      -0.679  -1.529  24.954  0.00  0.00    +0.143 A 
ATOM     17  C   UNL     1      -0.311  -1.251  24.270  0.00  0.00    +0.024 A 
ATOM     18  C   UNL     1      -0.189  -0.440  24.169  0.00  0.00    +0.006 A 
BRANCH  16  19
ATOM     19  N   UNL     1      -0.802  -2.339  25.055  0.00  0.00    +0.058 N 
ATOM     20  O   UNL     1      -1.501  -2.687  24.790  0.00  0.00    -0.126 OA
ATOM     21  O   UNL     1      -0.225  -2.800  25.423  0.00  0.00    -0.126 OA
ENDBRANCH  16  19
ENDBRANCH  11  13
ENDBRANCH   7   8
ENDBRANCH   6   7
BRANCH  25  26
ATOM     26  C   UNL     1      -4.125   3.243  24.132  0.00  0.00    +0.076 C 
BRANCH  26  27
ATOM     27  N   UNL     1      -4.659   2.959  24.694  0.00  0.00    -0.269 NA
ATOM     28  C   UNL     1      -4.857   2.158  24.707  0.00  0.00    +0.094 C 
ATOM     29  C   UNL     1      -5.390   1.874  25.268  0.00  0.00    +0.111 C 
ATOM     30  N   UNL     1      -5.725   2.392  25.818  0.00  0.00    -0.277 N 
ATOM     31  C   UNL     1      -5.527   3.192  25.804  0.00  0.00    +0.111 C 
ATOM     32  C   UNL     1      -4.993   3.476  25.242  0.00  0.00    +0.094 C 
ATOM     33  C   UNL     1      -6.258   2.108  26.379  0.00  0.00    +0.226 C 
ATOM     34  C   UNL     1      -6.457   1.307  26.392  0.00  0.00    +0.095 C 
ATOM     35  O   UNL     1      -6.593   2.625  26.928  0.00  0.00    -0.275 OA
ENDBRANCH  26  27
ENDBRANCH  25  26
TORSDOF 7
ENDMDL
MODEL 9
REMARK VINA RESULT:      -9.1      2.376      6.364
REMARK  Name = 
REMARK  7 active torsions:
REMARK  status: ('A' for Active; 'I' for Inactive)
REMARK    1  A    between atoms: C_2  and  C_4
REMARK    2  A    between atoms: C_6  and  C_7
REMARK    3  A    between atoms: C_7  and  C_8
REMARK    4  A    between atoms: C_11  and  C_13
REMARK    5  A    between atoms: C_16  and  N_19
REMARK    6  A    between atoms: C_25  and  C_26
REMARK    7  A    between atoms: C_26  and  N_27
REMARK                            x       y       z     vdW  Elec       q    Type
REMARK                         _______ _______ _______ _____ _____    ______ ____
ROOT
ATOM      4  C   UNL     1      -0.775   2.076  24.822  0.00  0.00    +0.006 C 
ATOM      5  C   UNL     1      -1.240   2.694  24.537  0.00  0.00    +0.005 C 
ATOM      6  C   UNL     1      -1.683   2.593  23.848  0.00  0.00    +0.027 C 
ATOM     22  C   UNL     1      -1.661   1.873  23.445  0.00  0.00    -0.048 C 
ATOM     23  C   UNL     1      -2.104   1.772  22.757  0.00  0.00    +0.026 C 
ATOM     24  C   UNL     1      -1.196   1.255  23.732  0.00  0.00    -0.034 C 
ATOM     25  C   UNL     1      -0.753   1.356  24.419  0.00  0.00    +0.037 C 
ENDROOT
BRANCH   4   2
ATOM      1  C   UNL     1       0.480   2.321  25.460  0.00  0.00    +0.000 C 
ATOM      2  C   UNL     1      -0.332   2.178  25.510  0.00  0.00    +0.000 C 
ATOM      3  C   UNL     1      -0.698   2.137  26.247  0.00  0.00    +0.000 C 
ENDBRANCH   4   2
BRANCH   6   7
ATOM      7  C   UNL     1      -2.148   3.212  23.563  0.00  0.00    +0.091 C 
BRANCH   7   8
ATOM      8  C   UNL     1      -2.858   3.400  23.936  0.00  0.00    +0.227 A 
ATOM      9  N   UNL     1      -3.187   4.155  24.000  0.00  0.00    -0.111 NA
ATOM     10  N   UNL     1      -3.897   4.089  24.415  0.00  0.00    -0.107 NA
ATOM     11  C   UNL     1      -4.007   3.294  24.608  0.00  0.00    +0.250 A 
ATOM     12  O   UNL     1      -3.365   2.869  24.311  0.00  0.00    -0.420 OA
BRANCH  11  13
ATOM     13  C   UNL     1      -4.646   2.979  25.023  0.00  0.00    +0.055 A 
ATOM     14  C   UNL     1      -5.069   2.343  24.711  0.00  0.00    +0.006 A 
ATOM     15  C   UNL     1      -5.708   2.028  25.126  0.00  0.00    +0.024 A 
ATOM     16  C   UNL     1      -5.926   2.350  25.854  0.00  0.00    +0.143 A 
ATOM     17  C   UNL     1      -5.504   2.986  26.167  0.00  0.00    +0.024 A 
ATOM     18  C   UNL     1      -4.864   3.301  25.751  0.00  0.00    +0.006 A 
BRANCH  16  19
ATOM     19  N   UNL     1      -6.566   2.035  26.269  0.00  0.00    +0.058 N 
ATOM     20  O   UNL     1      -6.613   2.129  27.087  0.00  0.00    -0.126 OA
ATOM     21  O   UNL     1      -7.157   1.625  25.866  0.00  0.00    -0.126 OA
ENDBRANCH  16  19
ENDBRANCH  11  13
ENDBRANCH   7   8
ENDBRANCH   6   7
BRANCH  25  26
ATOM     26  C   UNL     1      -0.288   0.738  24.705  0.00  0.00    +0.076 C 
BRANCH  26  27
ATOM     27  N   UNL     1      -0.560  -0.040  24.657  0.00  0.00    -0.269 NA
ATOM     28  C   UNL     1      -1.140  -0.306  25.180  0.00  0.00    +0.094 C 
ATOM     29  C   UNL     1      -1.413  -1.083  25.133  0.00  0.00    +0.111 C 
ATOM     30  N   UNL     1      -1.105  -1.595  24.562  0.00  0.00    -0.277 N 
ATOM     31  C   UNL     1      -0.525  -1.327  24.039  0.00  0.00    +0.111 C 
ATOM     32  C   UNL     1      -0.253  -0.550  24.087  0.00  0.00    +0.094 C 
ATOM     33  C   UNL     1      -1.377  -2.371  24.514  0.00  0.00    +0.226 C 
ATOM     34  C   UNL     1      -1.958  -2.638  25.037  0.00  0.00    +0.095 C 
ATOM     35  O   UNL     1      -1.070  -2.882  23.944  0.00  0.00    -0.275 OA
ENDBRANCH  26  27
ENDBRANCH  25  26
TORSDOF 7
ENDMDL
MODEL 10
REMARK VINA RESULT:      -8.9      2.053      5.813
REMARK  Name = 
REMARK  7 active torsions:
REMARK  status: ('A' for Active; 'I' for Inactive)
REMARK    1  A    between atoms: C_2  and  C_4
REMARK    2  A    between atoms: C_6  and  C_7
REMARK    3  A    between atoms: C_7  and  C_8
REMARK    4  A    between atoms: C_11  and  C_13
REMARK    5  A    between atoms: C_16  and  N_19
REMARK    6  A    between atoms: C_25  and  C_26
REMARK    7  A    between atoms: C_26  and  N_27
REMARK                            x       y       z     vdW  Elec       q    Type
REMARK                         _______ _______ _______ _____ _____    ______ ____
ROOT
ATOM      4  C   UNL     1      -1.212   2.275  25.021  0.00  0.00    +0.006 C 
ATOM      5  C   UNL     1      -2.030   2.265  24.920  0.00  0.00    +0.005 C 
ATOM      6  C   UNL     1      -2.351   2.189  24.163  0.00  0.00    +0.027 C 
ATOM     22  C   UNL     1      -1.853   2.123  23.508  0.00  0.00    -0.048 C 
ATOM     23  C   UNL     1      -2.173   2.046  22.753  0.00  0.00    +0.026 C 
ATOM     24  C   UNL     1      -1.034   2.133  23.611  0.00  0.00    -0.034 C 
ATOM     25  C   UNL     1      -0.713   2.209  24.367  0.00  0.00    +0.037 C 
ENDROOT
BRANCH   4   2
ATOM      1  C   UNL     1      -0.784   1.683  26.249  0.00  0.00    +0.000 C 
ATOM      2  C   UNL     1      -0.892   2.352  25.778  0.00  0.00    +0.000 C 
ATOM      3  C   UNL     1      -0.680   3.095  26.063  0.00  0.00    +0.000 C 
ENDBRANCH   4   2
BRANCH   6   7
ATOM      7  C   UNL     1      -3.169   2.179  24.061  0.00  0.00    +0.091 C 
BRANCH   7   8
ATOM      8  C   UNL     1      -3.602   1.508  24.266  0.00  0.00    +0.227 A 
ATOM      9  N   UNL     1      -4.363   1.501  24.586  0.00  0.00    -0.111 NA
ATOM     10  N   UNL     1      -4.582   0.714  24.705  0.00  0.00    -0.107 NA
ATOM     11  C   UNL     1      -3.957   0.235  24.459  0.00  0.00    +0.250 A 
ATOM     12  O   UNL     1      -3.351   0.726  24.188  0.00  0.00    -0.420 OA
BRANCH  11  13
ATOM     13  C   UNL     1      -3.939  -0.589  24.480  0.00  0.00    +0.055 A 
ATOM     14  C   UNL     1      -3.615  -0.978  25.131  0.00  0.00    +0.006 A 
ATOM     15  C   UNL     1      -3.597  -1.803  25.154  0.00  0.00    +0.024 A 
ATOM     16  C   UNL     1      -3.905  -2.238  24.524  0.00  0.00    +0.143 A 
ATOM     17  C   UNL     1      -4.229  -1.850  23.872  0.00  0.00    +0.024 A 
ATOM     18  C   UNL     1      -4.246  -1.024  23.851  0.00  0.00    +0.006 A 
BRANCH  16  19
ATOM     19  N   UNL     1      -3.887  -3.063  24.545  0.00  0.00    +0.058 N 
ATOM     20  O   UNL     1      -3.566  -3.451  25.198  0.00  0.00    -0.126 OA
ATOM     21  O   UNL     1      -4.190  -3.498  23.914  0.00  0.00    -0.126 OA
ENDBRANCH  16  19
ENDBRANCH  11  13
ENDBRANCH   7   8
ENDBRANCH   6   7
BRANCH  25  26
ATOM     26  C   UNL     1       0.104   2.220  24.469  0.00  0.00    +0.076 C 
BRANCH  26  27
ATOM     27  N   UNL     1       0.580   1.695  24.044  0.00  0.00    -0.269 NA
ATOM     28  C   UNL     1       1.275   1.964  23.689  0.00  0.00    +0.094 C 
ATOM     29  C   UNL     1       1.750   1.441  23.264  0.00  0.00    +0.111 C 
ATOM     30  N   UNL     1       1.531   0.648  23.194  0.00  0.00    -0.277 N 
ATOM     31  C   UNL     1       0.836   0.380  23.549  0.00  0.00    +0.111 C 
ATOM     32  C   UNL     1       0.361   0.904  23.973  0.00  0.00    +0.094 C 
ATOM     33  C   UNL     1       2.005   0.125  22.770  0.00  0.00    +0.226 C 
ATOM     34  C   UNL     1       2.701   0.393  22.415  0.00  0.00    +0.095 C 
ATOM     35  O   UNL     1       1.786  -0.667  22.699  0.00  0.00    -0.275 OA
ENDBRANCH  26  27
ENDBRANCH  25  26
TORSDOF 7
ENDMDL
