MODEL 1
REMARK VINA RESULT:     -10.5      0.000      0.000
REMARK  Name = 
REMARK  5 active torsions:
REMARK  status: ('A' for Active; 'I' for Inactive)
REMARK    1  A    between atoms: C_4  and  C_15
REMARK    2  A    between atoms: C_6  and  C_8
REMARK    3  A    between atoms: C_22  and  C_23
REMARK    4  A    between atoms: C_23  and  N_24
REMARK    5  A    between atoms: N_27  and  C_28
REMARK                            x       y       z     vdW  Elec       q    Type
REMARK                         _______ _______ _______ _____ _____    ______ ____
ROOT
ATOM     15  C   UNL     1      -1.561   0.735  24.284  0.00  0.00    +0.056 C 
ATOM     16  C   UNL     1      -0.995   0.461  24.743  0.00  0.00    +0.078 C 
ATOM     17  N   UNL     1      -0.894   0.933  24.073  0.00  0.00    -0.272 NA
ATOM     18  C   UNL     1      -1.849   1.128  23.685  0.00  0.00    +0.072 C 
ATOM     19  C   UNL     1      -2.234   1.408  23.238  0.00  0.00    +0.018 C 
ATOM     20  C   UNL     1      -1.455   1.198  23.629  0.00  0.00    +0.010 C 
ATOM     21  C   UNL     1      -0.733   1.519  23.246  0.00  0.00    +0.018 C 
ATOM     22  C   UNL     1      -0.148   1.271  23.670  0.00  0.00    +0.079 C 
ENDROOT
BRANCH  15   4
ATOM      1  C   UNL     1      -4.125   1.488  25.300  0.00  0.00    +0.074 C 
ATOM      2  C   UNL     1      -3.619   0.913  24.991  0.00  0.00    +0.139 A 
ATOM      3  N   UNL     1      -2.844   1.111  24.792  0.00  0.00    -0.235 NA
ATOM      4  C   UNL     1      -2.338   0.537  24.484  0.00  0.00    +0.063 A 
ATOM      5  C   UNL     1      -2.607  -0.234  24.374  0.00  0.00    +0.034 A 
ATOM      6  C   UNL     1      -3.382  -0.432  24.574  0.00  0.00    +0.084 A 
ATOM      7  N   UNL     1      -3.889   0.141  24.882  0.00  0.00    -0.231 NA
BRANCH   6   8
ATOM      8  C   UNL     1      -3.653  -1.204  24.464  0.00  0.00    +0.024 A 
ATOM      9  C   UNL     1      -3.557  -1.763  25.064  0.00  0.00    +0.036 A 
ATOM     10 BR   UNL     1      -3.190  -1.550  25.771  0.00  0.00    -0.049 Br
ATOM     11  C   UNL     1      -3.827  -2.535  24.956  0.00  0.00    +0.007 A 
ATOM     12  C   UNL     1      -4.193  -2.748  24.247  0.00  0.00    +0.001 A 
ATOM     13  C   UNL     1      -4.290  -2.189  23.649  0.00  0.00    +0.000 A 
ATOM     14  C   UNL     1      -4.019  -1.417  23.757  0.00  0.00    +0.002 A 
ENDBRANCH   6   8
ENDBRANCH  15   4
BRANCH  22  23
ATOM     23  C   UNL     1       0.674   1.294  23.728  0.00  0.00    +0.133 C 
BRANCH  23  24
ATOM     24  N   UNL     1       1.135   0.822  23.233  0.00  0.00    -0.185 NA
ATOM     25  C   UNL     1       1.957   0.822  23.311  0.00  0.00    +0.344 C 
ATOM     26  O   UNL     1       2.316   1.293  23.885  0.00  0.00    -0.249 OA
ATOM     27  N   UNL     1       2.418   0.350  22.816  0.00  0.00    -0.161 NA
BRANCH  27  28
ATOM     28  C   UNL     1       3.240   0.350  22.894  0.00  0.00    +0.075 A 
ATOM     29  C   UNL     1       3.618  -0.279  23.271  0.00  0.00    +0.017 A 
ATOM     30  C   UNL     1       4.439  -0.279  23.349  0.00  0.00    +0.001 A 
ATOM     31  C   UNL     1       4.883   0.350  23.052  0.00  0.00    +0.000 A 
ATOM     32  C   UNL     1       4.504   0.979  22.675  0.00  0.00    +0.001 A 
ATOM     33  C   UNL     1       3.683   0.979  22.597  0.00  0.00    +0.017 A 
ENDBRANCH  27  28
ENDBRANCH  23  24
ENDBRANCH  22  23
TORSDOF 5
ENDMDL
MODEL 2
REMARK VINA RESULT:      -9.6      1.217      2.534
REMARK  Name = 
REMARK  5 active torsions:
REMARK  status: ('A' for Active; 'I' for Inactive)
REMARK    1  A    between atoms: C_4  and  C_15
REMARK    2  A    between atoms: C_6  and  C_8
REMARK    3  A    between atoms: C_22  and  C_23
REMARK    4  A    between atoms: C_23  and  N_24
REMARK    5  A    between atoms: N_27  and  C_28
REMARK                            x       y       z     vdW  Elec       q    Type
REMARK                         _______ _______ _______ _____ _____    ______ ____
ROOT
ATOM     15  C   UNL     1      -1.845   0.861  24.106  0.00  0.00    +0.056 C 
ATOM     16  C   UNL     1      -1.589   1.303  23.518  0.00  0.00    +0.078 C 
ATOM     17  N   UNL     1      -1.120   0.880  24.050  0.00  0.00    -0.272 NA
ATOM     18  C   UNL     1      -1.768   0.393  24.715  0.00  0.00    +0.072 C 
ATOM     19  C   UNL     1      -1.866   0.002  25.229  0.00  0.00    +0.018 C 
ATOM     20  C   UNL     1      -1.378   0.450  24.624  0.00  0.00    +0.010 C 
ATOM     21  C   UNL     1      -0.507   0.367  24.694  0.00  0.00    +0.018 C 
ATOM     22  C   UNL     1      -0.215   0.790  24.129  0.00  0.00    +0.079 C 
ENDROOT
BRANCH  15   4
ATOM      1  C   UNL     1      -4.266  -0.652  23.961  0.00  0.00    +0.074 C 
ATOM      2  C   UNL     1      -3.872   0.052  24.138  0.00  0.00    +0.139 A 
ATOM      3  N   UNL     1      -3.056   0.105  24.034  0.00  0.00    -0.235 NA
ATOM      4  C   UNL     1      -2.662   0.808  24.210  0.00  0.00    +0.063 A 
ATOM      5  C   UNL     1      -3.085   1.458  24.492  0.00  0.00    +0.034 A 
ATOM      6  C   UNL     1      -3.901   1.405  24.596  0.00  0.00    +0.084 A 
ATOM      7  N   UNL     1      -4.295   0.702  24.419  0.00  0.00    -0.231 NA
BRANCH   6   8
ATOM      8  C   UNL     1      -4.325   2.055  24.877  0.00  0.00    +0.024 A 
ATOM      9  C   UNL     1      -4.492   2.687  24.374  0.00  0.00    +0.036 A 
ATOM     10 BR   UNL     1      -4.236   2.669  23.591  0.00  0.00    -0.049 Br
ATOM     11  C   UNL     1      -4.916   3.337  24.655  0.00  0.00    +0.007 A 
ATOM     12  C   UNL     1      -5.172   3.354  25.439  0.00  0.00    +0.001 A 
ATOM     13  C   UNL     1      -5.005   2.723  25.942  0.00  0.00    +0.000 A 
ATOM     14  C   UNL     1      -4.581   2.072  25.661  0.00  0.00    +0.002 A 
ENDBRANCH   6   8
ENDBRANCH  15   4
BRANCH  22  23
ATOM     23  C   UNL     1       0.498   1.026  23.789  0.00  0.00    +0.133 C 
BRANCH  23  24
ATOM     24  N   UNL     1       0.980   0.471  23.416  0.00  0.00    -0.185 NA
ATOM     25  C   UNL     1       1.791   0.607  23.347  0.00  0.00    +0.344 C 
ATOM     26  O   UNL     1       2.119   1.301  23.651  0.00  0.00    -0.249 OA
ATOM     27  N   UNL     1       2.273   0.052  22.974  0.00  0.00    -0.161 NA
BRANCH  27  28
ATOM     28  C   UNL     1       3.084   0.190  22.906  0.00  0.00    +0.075 A 
ATOM     29  C   UNL     1       3.617  -0.247  23.359  0.00  0.00    +0.017 A 
ATOM     30  C   UNL     1       4.427  -0.110  23.290  0.00  0.00    +0.001 A 
ATOM     31  C   UNL     1       4.706   0.465  22.768  0.00  0.00    +0.000 A 
ATOM     32  C   UNL     1       4.173   0.902  22.314  0.00  0.00    +0.001 A 
ATOM     33  C   UNL     1       3.362   0.765  22.383  0.00  0.00    +0.017 A 
ENDBRANCH  27  28
ENDBRANCH  23  24
ENDBRANCH  22  23
TORSDOF 5
ENDMDL
MODEL 3
REMARK VINA RESULT:      -9.1      1.963      2.727
REMARK  Name = 
REMARK  5 active torsions:
REMARK  status: ('A' for Active; 'I' for Inactive)
REMARK    1  A    between atoms: C_4  and  C_15
REMARK    2  A    between atoms: C_6  and  C_8
REMARK    3  A    between atoms: C_22  and  C_23
REMARK    4  A    between atoms: C_23  and  N_24
REMARK    5  A    between atoms: N_27  and  C_28
REMARK                            x       y       z     vdW  Elec       q    Type
REMARK                         _______ _______ _______ _____ _____    ______ ____
ROOT
ATOM     15  C   UNL     1      -2.040   1.915  23.728  0.00  0.00    +0.056 C 
ATOM     16  C   UNL     1      -1.454   2.351  23.998  0.00  0.00    +0.078 C 
ATOM     17  N   UNL     1      -1.404   1.564  23.756  0.00  0.00    -0.272 NA
ATOM     18  C   UNL     1      -2.363   1.272  23.450  0.00  0.00    +0.072 C 
ATOM     19  C   UNL     1      -2.771   0.820  23.214  0.00  0.00    +0.018 C 
ATOM     20  C   UNL     1      -1.982   1.143  23.492  0.00  0.00    +0.010 C 
ATOM     21  C   UNL     1      -1.305   0.586  23.463  0.00  0.00    +0.018 C 
ATOM     22  C   UNL     1      -0.704   0.979  23.723  0.00  0.00    +0.079 C 
ENDROOT
BRANCH  15   4
ATOM      1  C   UNL     1      -3.936   3.495  22.286  0.00  0.00    +0.074 C 
ATOM      2  C   UNL     1      -3.731   3.060  22.957  0.00  0.00    +0.139 A 
ATOM      3  N   UNL     1      -2.988   2.705  23.007  0.00  0.00    -0.235 NA
ATOM      4  C   UNL     1      -2.784   2.271  23.678  0.00  0.00    +0.063 A 
ATOM      5  C   UNL     1      -3.321   2.191  24.298  0.00  0.00    +0.034 A 
ATOM      6  C   UNL     1      -4.064   2.546  24.247  0.00  0.00    +0.084 A 
ATOM      7  N   UNL     1      -4.269   2.981  23.577  0.00  0.00    -0.231 NA
BRANCH   6   8
ATOM      8  C   UNL     1      -4.602   2.467  24.867  0.00  0.00    +0.024 A 
ATOM      9  C   UNL     1      -4.662   3.058  25.439  0.00  0.00    +0.036 A 
ATOM     10 BR   UNL     1      -4.184   3.728  25.391  0.00  0.00    -0.049 Br
ATOM     11  C   UNL     1      -5.201   2.980  26.060  0.00  0.00    +0.007 A 
ATOM     12  C   UNL     1      -5.680   2.309  26.108  0.00  0.00    +0.001 A 
ATOM     13  C   UNL     1      -5.619   1.718  25.536  0.00  0.00    +0.000 A 
ATOM     14  C   UNL     1      -5.081   1.797  24.916  0.00  0.00    +0.002 A 
ENDBRANCH   6   8
ENDBRANCH  15   4
BRANCH  22  23
ATOM     23  C   UNL     1       0.102   0.913  23.880  0.00  0.00    +0.133 C 
BRANCH  23  24
ATOM     24  N   UNL     1       0.585   0.469  23.380  0.00  0.00    -0.185 NA
ATOM     25  C   UNL     1       1.402   0.583  23.386  0.00  0.00    +0.344 C 
ATOM     26  O   UNL     1       1.736   1.141  23.893  0.00  0.00    -0.249 OA
ATOM     27  N   UNL     1       1.884   0.139  22.886  0.00  0.00    -0.161 NA
BRANCH  27  28
ATOM     28  C   UNL     1       2.702   0.253  22.892  0.00  0.00    +0.075 A 
ATOM     29  C   UNL     1       3.022   0.955  22.602  0.00  0.00    +0.017 A 
ATOM     30  C   UNL     1       3.840   1.069  22.608  0.00  0.00    +0.001 A 
ATOM     31  C   UNL     1       4.336   0.481  22.906  0.00  0.00    +0.000 A 
ATOM     32  C   UNL     1       4.015  -0.221  23.196  0.00  0.00    +0.001 A 
ATOM     33  C   UNL     1       3.198  -0.335  23.190  0.00  0.00    +0.017 A 
ENDBRANCH  27  28
ENDBRANCH  23  24
ENDBRANCH  22  23
TORSDOF 5
ENDMDL
MODEL 4
REMARK VINA RESULT:      -8.6      2.915      5.075
REMARK  Name = 
REMARK  5 active torsions:
REMARK  status: ('A' for Active; 'I' for Inactive)
REMARK    1  A    between atoms: C_4  and  C_15
REMARK    2  A    between atoms: C_6  and  C_8
REMARK    3  A    between atoms: C_22  and  C_23
REMARK    4  A    between atoms: C_23  and  N_24
REMARK    5  A    between atoms: N_27  and  C_28
REMARK                            x       y       z     vdW  Elec       q    Type
REMARK                         _______ _______ _______ _____ _____    ______ ____
ROOT
ATOM     15  C   UNL     1      -1.299   2.130  24.908  0.00  0.00    +0.056 C 
ATOM     16  C   UNL     1      -1.532   1.709  24.296  0.00  0.00    +0.078 C 
ATOM     17  N   UNL     1      -1.003   1.466  24.881  0.00  0.00    -0.272 NA
ATOM     18  C   UNL     1      -0.902   2.261  25.557  0.00  0.00    +0.072 C 
ATOM     19  C   UNL     1      -0.641   2.516  26.099  0.00  0.00    +0.018 C 
ATOM     20  C   UNL     1      -0.779   1.884  25.478  0.00  0.00    +0.010 C 
ATOM     21  C   UNL     1      -0.342   1.131  25.590  0.00  0.00    +0.018 C 
ATOM     22  C   UNL     1      -0.545   0.687  25.004  0.00  0.00    +0.079 C 
ENDROOT
BRANCH  15   4
ATOM      1  C   UNL     1      -0.928   4.964  24.893  0.00  0.00    +0.074 C 
ATOM      2  C   UNL     1      -1.423   4.309  24.976  0.00  0.00    +0.139 A 
ATOM      3  N   UNL     1      -1.114   3.547  24.901  0.00  0.00    -0.235 NA
ATOM      4  C   UNL     1      -1.608   2.892  24.983  0.00  0.00    +0.063 A 
ATOM      5  C   UNL     1      -2.410   2.997  25.141  0.00  0.00    +0.034 A 
ATOM      6  C   UNL     1      -2.719   3.758  25.216  0.00  0.00    +0.084 A 
ATOM      7  N   UNL     1      -2.226   4.414  25.134  0.00  0.00    -0.231 NA
BRANCH   6   8
ATOM      8  C   UNL     1      -3.522   3.865  25.374  0.00  0.00    +0.024 A 
ATOM      9  C   UNL     1      -4.062   3.907  24.752  0.00  0.00    +0.036 A 
ATOM     10 BR   UNL     1      -3.800   3.844  23.973  0.00  0.00    -0.049 Br
ATOM     11  C   UNL     1      -4.866   4.014  24.909  0.00  0.00    +0.007 A 
ATOM     12  C   UNL     1      -5.128   4.077  25.689  0.00  0.00    +0.001 A 
ATOM     13  C   UNL     1      -4.588   4.035  26.310  0.00  0.00    +0.000 A 
ATOM     14  C   UNL     1      -3.785   3.928  26.153  0.00  0.00    +0.002 A 
ENDBRANCH   6   8
ENDBRANCH  15   4
BRANCH  22  23
ATOM     23  C   UNL     1      -0.422  -0.059  24.675  0.00  0.00    +0.133 C 
BRANCH  23  24
ATOM     24  N   UNL     1      -0.692  -0.732  25.069  0.00  0.00    -0.185 NA
ATOM     25  C   UNL     1      -1.310  -1.176  24.752  0.00  0.00    +0.344 C 
ATOM     26  O   UNL     1      -1.659  -0.947  24.040  0.00  0.00    -0.249 OA
ATOM     27  N   UNL     1      -1.580  -1.849  25.145  0.00  0.00    -0.161 NA
BRANCH  27  28
ATOM     28  C   UNL     1      -2.199  -2.293  24.827  0.00  0.00    +0.075 A 
ATOM     29  C   UNL     1      -2.977  -2.136  25.052  0.00  0.00    +0.017 A 
ATOM     30  C   UNL     1      -3.596  -2.580  24.734  0.00  0.00    +0.001 A 
ATOM     31  C   UNL     1      -3.437  -3.181  24.191  0.00  0.00    +0.000 A 
ATOM     32  C   UNL     1      -2.659  -3.337  23.966  0.00  0.00    +0.001 A 
ATOM     33  C   UNL     1      -2.040  -2.894  24.284  0.00  0.00    +0.017 A 
ENDBRANCH  27  28
ENDBRANCH  23  24
ENDBRANCH  22  23
TORSDOF 5
ENDMDL
MODEL 5
REMARK VINA RESULT:      -8.6      3.375      4.594
REMARK  Name = 
REMARK  5 active torsions:
REMARK  status: ('A' for Active; 'I' for Inactive)
REMARK    1  A    between atoms: C_4  and  C_15
REMARK    2  A    between atoms: C_6  and  C_8
REMARK    3  A    between atoms: C_22  and  C_23
REMARK    4  A    between atoms: C_23  and  N_24
REMARK    5  A    between atoms: N_27  and  C_28
REMARK                            x       y       z     vdW  Elec       q    Type
REMARK                         _______ _______ _______ _____ _____    ______ ____
ROOT
ATOM     15  C   UNL     1      -3.866   0.503  24.410  0.00  0.00    +0.056 C 
ATOM     16  C   UNL     1      -3.450   0.994  23.972  0.00  0.00    +0.078 C 
ATOM     17  N   UNL     1      -4.003   1.204  24.547  0.00  0.00    -0.272 NA
ATOM     18  C   UNL     1      -4.383   0.313  24.950  0.00  0.00    +0.072 C 
ATOM     19  C   UNL     1      -4.779   0.002  25.366  0.00  0.00    +0.018 C 
ATOM     20  C   UNL     1      -4.407   0.717  24.972  0.00  0.00    +0.010 C 
ATOM     21  C   UNL     1      -4.684   1.500  25.255  0.00  0.00    +0.018 C 
ATOM     22  C   UNL     1      -4.296   2.015  24.846  0.00  0.00    +0.079 C 
ENDROOT
BRANCH  15   4
ATOM      1  C   UNL     1      -4.825  -2.039  23.520  0.00  0.00    +0.074 C 
ATOM      2  C   UNL     1      -4.224  -1.575  23.845  0.00  0.00    +0.139 A 
ATOM      3  N   UNL     1      -4.345  -0.768  23.965  0.00  0.00    -0.235 NA
ATOM      4  C   UNL     1      -3.744  -0.305  24.290  0.00  0.00    +0.063 A 
ATOM      5  C   UNL     1      -3.024  -0.649  24.497  0.00  0.00    +0.034 A 
ATOM      6  C   UNL     1      -2.903  -1.456  24.377  0.00  0.00    +0.084 A 
ATOM      7  N   UNL     1      -3.503  -1.919  24.052  0.00  0.00    -0.231 NA
BRANCH   6   8
ATOM      8  C   UNL     1      -2.183  -1.801  24.584  0.00  0.00    +0.024 A 
ATOM      9  C   UNL     1      -2.166  -2.445  25.099  0.00  0.00    +0.036 A 
ATOM     10 BR   UNL     1      -2.870  -2.743  25.408  0.00  0.00    -0.049 Br
ATOM     11  C   UNL     1      -1.446  -2.790  25.306  0.00  0.00    +0.007 A 
ATOM     12  C   UNL     1      -0.742  -2.491  24.996  0.00  0.00    +0.001 A 
ATOM     13  C   UNL     1      -0.758  -1.848  24.481  0.00  0.00    +0.000 A 
ATOM     14  C   UNL     1      -1.479  -1.502  24.275  0.00  0.00    +0.002 A 
ENDBRANCH   6   8
ENDBRANCH  15   4
BRANCH  22  23
ATOM     23  C   UNL     1      -4.199   2.826  24.738  0.00  0.00    +0.133 C 
BRANCH  23  24
ATOM     24  N   UNL     1      -3.762   3.265  25.283  0.00  0.00    -0.185 NA
ATOM     25  C   UNL     1      -3.116   3.711  25.031  0.00  0.00    +0.344 C 
ATOM     26  O   UNL     1      -2.906   3.718  24.233  0.00  0.00    -0.249 OA
ATOM     27  N   UNL     1      -2.679   4.150  25.575  0.00  0.00    -0.161 NA
BRANCH  27  28
ATOM     28  C   UNL     1      -2.032   4.595  25.323  0.00  0.00    +0.075 A 
ATOM     29  C   UNL     1      -1.306   4.228  25.186  0.00  0.00    +0.017 A 
ATOM     30  C   UNL     1      -0.659   4.674  24.933  0.00  0.00    +0.001 A 
ATOM     31  C   UNL     1      -0.738   5.487  24.817  0.00  0.00    +0.000 A 
ATOM     32  C   UNL     1      -1.464   5.854  24.953  0.00  0.00    +0.001 A 
ATOM     33  C   UNL     1      -2.111   5.408  25.206  0.00  0.00    +0.017 A 
ENDBRANCH  27  28
ENDBRANCH  23  24
ENDBRANCH  22  23
TORSDOF 5
ENDMDL
MODEL 6
REMARK VINA RESULT:      -8.5      2.474      4.073
REMARK  Name = 
REMARK  5 active torsions:
REMARK  status: ('A' for Active; 'I' for Inactive)
REMARK    1  A    between atoms: C_4  and  C_15
REMARK    2  A    between atoms: C_6  and  C_8
REMARK    3  A    between atoms: C_22  and  C_23
REMARK    4  A    between atoms: C_23  and  N_24
REMARK    5  A    between atoms: N_27  and  C_28
REMARK                            x       y       z     vdW  Elec       q    Type
REMARK                         _______ _______ _______ _____ _____    ______ ____
ROOT
ATOM     15  C   UNL     1      -0.617  -0.182  24.805  0.00  0.00    +0.056 C 
ATOM     16  C   UNL     1      -0.815   0.327  25.360  0.00  0.00    +0.078 C 
ATOM     17  N   UNL     1      -0.357   0.488  24.691  0.00  0.00    -0.272 NA
ATOM     18  C   UNL     1      -0.276  -0.406  24.150  0.00  0.00    +0.072 C 
ATOM     19  C   UNL     1      -0.053  -0.740  23.634  0.00  0.00    +0.018 C 
ATOM     20  C   UNL     1      -0.168  -0.017  24.152  0.00  0.00    +0.010 C 
ATOM     21  C   UNL     1       0.214   0.722  23.872  0.00  0.00    +0.018 C 
ATOM     22  C   UNL     1       0.042   1.252  24.394  0.00  0.00    +0.079 C 
ENDROOT
BRANCH  15   4
ATOM      1  C   UNL     1      -0.145  -2.903  25.543  0.00  0.00    +0.074 C 
ATOM      2  C   UNL     1      -0.653  -2.317  25.259  0.00  0.00    +0.139 A 
ATOM      3  N   UNL     1      -0.381  -1.543  25.174  0.00  0.00    -0.235 NA
ATOM      4  C   UNL     1      -0.889  -0.957  24.890  0.00  0.00    +0.063 A 
ATOM      5  C   UNL     1      -1.666  -1.145  24.690  0.00  0.00    +0.034 A 
ATOM      6  C   UNL     1      -1.937  -1.920  24.775  0.00  0.00    +0.084 A 
ATOM      7  N   UNL     1      -1.431  -2.506  25.059  0.00  0.00    -0.231 NA
BRANCH   6   8
ATOM      8  C   UNL     1      -2.715  -2.109  24.575  0.00  0.00    +0.024 A 
ATOM      9  C   UNL     1      -3.326  -1.956  25.108  0.00  0.00    +0.036 A 
ATOM     10 BR   UNL     1      -3.159  -1.614  25.840  0.00  0.00    -0.049 Br
ATOM     11  C   UNL     1      -4.104  -2.145  24.909  0.00  0.00    +0.007 A 
ATOM     12  C   UNL     1      -4.271  -2.488  24.177  0.00  0.00    +0.001 A 
ATOM     13  C   UNL     1      -3.660  -2.641  23.645  0.00  0.00    +0.000 A 
ATOM     14  C   UNL     1      -2.882  -2.452  23.844  0.00  0.00    +0.002 A 
ENDBRANCH   6   8
ENDBRANCH  15   4
BRANCH  22  23
ATOM     23  C   UNL     1       0.153   2.048  24.580  0.00  0.00    +0.133 C 
BRANCH  23  24
ATOM     24  N   UNL     1      -0.279   2.628  24.182  0.00  0.00    -0.185 NA
ATOM     25  C   UNL     1      -0.593   3.267  24.598  0.00  0.00    +0.344 C 
ATOM     26  O   UNL     1      -0.475   3.326  25.413  0.00  0.00    -0.249 OA
ATOM     27  N   UNL     1      -1.024   3.847  24.201  0.00  0.00    -0.161 NA
BRANCH  27  28
ATOM     28  C   UNL     1      -1.338   4.486  24.618  0.00  0.00    +0.075 A 
ATOM     29  C   UNL     1      -2.037   4.396  25.047  0.00  0.00    +0.017 A 
ATOM     30  C   UNL     1      -2.351   5.035  25.464  0.00  0.00    +0.001 A 
ATOM     31  C   UNL     1      -1.966   5.765  25.451  0.00  0.00    +0.000 A 
ATOM     32  C   UNL     1      -1.267   5.855  25.022  0.00  0.00    +0.001 A 
ATOM     33  C   UNL     1      -0.953   5.216  24.605  0.00  0.00    +0.017 A 
ENDBRANCH  27  28
ENDBRANCH  23  24
ENDBRANCH  22  23
TORSDOF 5
ENDMDL
MODEL 7
REMARK VINA RESULT:      -8.4      3.927      5.977
REMARK  Name = 
REMARK  5 active torsions:
REMARK  status: ('A' for Active; 'I' for Inactive)
REMARK    1  A    between atoms: C_4  and  C_15
REMARK    2  A    between atoms: C_6  and  C_8
REMARK    3  A    between atoms: C_22  and  C_23
REMARK    4  A    between atoms: C_23  and  N_24
REMARK    5  A    between atoms: N_27  and  C_28
REMARK                            x       y       z     vdW  Elec       q    Type
REMARK                         _______ _______ _______ _____ _____    ______ ____
ROOT
ATOM     15  C   UNL     1      -3.652   2.525  25.196  0.00  0.00    +0.056 C 
ATOM     16  C   UNL     1      -3.227   1.873  25.169  0.00  0.00    +0.078 C 
ATOM     17  N   UNL     1      -3.994   1.968  24.878  0.00  0.00    -0.272 NA
ATOM     18  C   UNL     1      -4.278   2.958  25.070  0.00  0.00    +0.072 C 
ATOM     19  C   UNL     1      -4.719   3.439  25.037  0.00  0.00    +0.018 C 
ATOM     20  C   UNL     1      -4.404   2.609  24.908  0.00  0.00    +0.010 C 
ATOM     21  C   UNL     1      -4.946   2.049  24.506  0.00  0.00    +0.018 C 
ATOM     22  C   UNL     1      -4.563   1.390  24.460  0.00  0.00    +0.079 C 
ENDROOT
BRANCH  15   4
ATOM      1  C   UNL     1      -3.554   4.428  27.327  0.00  0.00    +0.074 C 
ATOM      2  C   UNL     1      -3.258   4.138  26.614  0.00  0.00    +0.139 A 
ATOM      3  N   UNL     1      -3.603   3.477  26.262  0.00  0.00    -0.235 NA
ATOM      4  C   UNL     1      -3.306   3.187  25.548  0.00  0.00    +0.063 A 
ATOM      5  C   UNL     1      -2.665   3.558  25.187  0.00  0.00    +0.034 A 
ATOM      6  C   UNL     1      -2.320   4.220  25.539  0.00  0.00    +0.084 A 
ATOM      7  N   UNL     1      -2.616   4.510  26.252  0.00  0.00    -0.231 NA
BRANCH   6   8
ATOM      8  C   UNL     1      -1.678   4.592  25.178  0.00  0.00    +0.024 A 
ATOM      9  C   UNL     1      -0.932   4.239  25.197  0.00  0.00    +0.036 A 
ATOM     10 BR   UNL     1      -0.829   3.515  25.577  0.00  0.00    -0.049 Br
ATOM     11  C   UNL     1      -0.290   4.611  24.836  0.00  0.00    +0.007 A 
ATOM     12  C   UNL     1      -0.394   5.336  24.456  0.00  0.00    +0.001 A 
ATOM     13  C   UNL     1      -1.139   5.688  24.437  0.00  0.00    +0.000 A 
ATOM     14  C   UNL     1      -1.782   5.317  24.798  0.00  0.00    +0.002 A 
ENDBRANCH   6   8
ENDBRANCH  15   4
BRANCH  22  23
ATOM     23  C   UNL     1      -4.627   0.614  24.189  0.00  0.00    +0.133 C 
BRANCH  23  24
ATOM     24  N   UNL     1      -4.494  -0.015  24.707  0.00  0.00    -0.185 NA
ATOM     25  C   UNL     1      -4.125  -0.701  24.437  0.00  0.00    +0.344 C 
ATOM     26  O   UNL     1      -3.890  -0.760  23.648  0.00  0.00    -0.249 OA
ATOM     27  N   UNL     1      -3.992  -1.330  24.954  0.00  0.00    -0.161 NA
BRANCH  27  28
ATOM     28  C   UNL     1      -3.624  -2.017  24.683  0.00  0.00    +0.075 A 
ATOM     29  C   UNL     1      -4.065  -2.595  24.292  0.00  0.00    +0.017 A 
ATOM     30  C   UNL     1      -3.696  -3.281  24.021  0.00  0.00    +0.001 A 
ATOM     31  C   UNL     1      -2.887  -3.390  24.140  0.00  0.00    +0.000 A 
ATOM     32  C   UNL     1      -2.446  -2.812  24.531  0.00  0.00    +0.001 A 
ATOM     33  C   UNL     1      -2.815  -2.126  24.802  0.00  0.00    +0.017 A 
ENDBRANCH  27  28
ENDBRANCH  23  24
ENDBRANCH  22  23
TORSDOF 5
ENDMDL
