MODEL 1
REMARK VINA RESULT:      -9.7      0.000      0.000
REMARK  Name = 
REMARK  9 active torsions:
REMARK  status: ('A' for Active; 'I' for Inactive)
REMARK    1  A    between atoms: C_2  and  C_4
REMARK    2  A    between atoms: C_6  and  C_7
REMARK    3  A    between atoms: C_7  and  C_8
REMARK    4  A    between atoms: N_10  and  C_11
REMARK    5  A    between atoms: C_11  and  C_12
REMARK    6  A    between atoms: C_15  and  C_18
REMARK    7  A    between atoms: C_23  and  C_24
REMARK    8  A    between atoms: C_24  and  N_25
REMARK    9  A    between atoms: C_26  and  C_28
REMARK                            x       y       z     vdW  Elec       q    Type
REMARK                         _______ _______ _______ _____ _____    ______ ____
ROOT
ATOM      4  C   UNL     1      -0.755   1.891  24.592  0.00  0.00    +0.006 C 
ATOM      5  C   UNL     1      -0.220   1.302  24.376  0.00  0.00    +0.005 C 
ATOM      6  C   UNL     1      -0.490   0.536  24.224  0.00  0.00    +0.027 C 
ATOM     20  C   UNL     1      -1.294   0.362  24.288  0.00  0.00    -0.048 C 
ATOM     21  C   UNL     1      -1.564  -0.402  24.136  0.00  0.00    +0.026 C 
ATOM     22  C   UNL     1      -1.829   0.953  24.504  0.00  0.00    -0.033 C 
ATOM     23  C   UNL     1      -1.559   1.717  24.656  0.00  0.00    +0.043 C 
ENDROOT
BRANCH   4   2
ATOM      1  C   UNL     1      -0.239   2.862  25.505  0.00  0.00    +0.000 C 
ATOM      2  C   UNL     1      -0.485   2.656  24.744  0.00  0.00    +0.000 C 
ATOM      3  C   UNL     1      -0.460   3.214  24.137  0.00  0.00    +0.000 C 
ENDBRANCH   4   2
BRANCH   6   7
ATOM      7  C   UNL     1       0.045  -0.053  24.008  0.00  0.00    +0.091 C 
BRANCH   7   8
ATOM      8  C   UNL     1       0.537   0.056  23.354  0.00  0.00    +0.242 C 
ATOM      9  O   UNL     1       0.210   0.166  22.605  0.00  0.00    -0.273 OA
ATOM     10  N   UNL     1       1.356   0.056  23.451  0.00  0.00    -0.201 NA
BRANCH  10  11
ATOM     11  C   UNL     1       1.849   0.166  22.797  0.00  0.00    +0.141 C 
BRANCH  11  12
ATOM     12  C   UNL     1       2.668   0.170  22.894  0.00  0.00    -0.001 A 
ATOM     13  C   UNL     1       3.063  -0.524  23.100  0.00  0.00    -0.002 A 
ATOM     14  C   UNL     1       3.882  -0.519  23.197  0.00  0.00    +0.010 A 
ATOM     15  C   UNL     1       4.306   0.180  23.089  0.00  0.00    +0.068 A 
ATOM     16  C   UNL     1       3.911   0.874  22.883  0.00  0.00    +0.010 A 
ATOM     17  C   UNL     1       3.092   0.870  22.786  0.00  0.00    -0.002 A 
BRANCH  15  18
ATOM     18  C   UNL     1       5.126   0.185  23.186  0.00  0.00    +0.100 C 
ATOM     19  N   UNL     1       5.944   0.191  23.284  0.00  0.00    -0.191 NA
ENDBRANCH  15  18
ENDBRANCH  11  12
ENDBRANCH  10  11
ENDBRANCH   7   8
ENDBRANCH   6   7
BRANCH  23  24
ATOM     24  C   UNL     1      -2.093   2.307  24.872  0.00  0.00    +0.120 C 
BRANCH  24  25
ATOM     25  N   UNL     1      -2.895   2.126  24.955  0.00  0.00    -0.201 NA
ATOM     26  C   UNL     1      -3.450   2.734  25.018  0.00  0.00    +0.265 C 
ATOM     27  O   UNL     1      -3.205   3.521  24.997  0.00  0.00    -0.268 OA
BRANCH  26  28
ATOM     28  C   UNL     1      -4.251   2.553  25.100  0.00  0.00    +0.055 A 
ATOM     29  C   UNL     1      -4.676   2.853  25.740  0.00  0.00    +0.007 A 
ATOM     30  C   UNL     1      -5.478   2.672  25.823  0.00  0.00    +0.030 A 
ATOM     31  C   UNL     1      -5.852   2.191  25.267  0.00  0.00    +0.140 A 
ATOM     32  F   UNL     1      -6.653   2.010  25.350  0.00  0.00    -0.204 F 
ATOM     33  C   UNL     1      -5.426   1.891  24.627  0.00  0.00    +0.030 A 
ATOM     34  C   UNL     1      -4.625   2.072  24.544  0.00  0.00    +0.007 A 
ENDBRANCH  26  28
ENDBRANCH  24  25
ENDBRANCH  23  24
TORSDOF 9
ENDMDL
MODEL 2
REMARK VINA RESULT:      -9.4      3.733      5.244
REMARK  Name = 
REMARK  9 active torsions:
REMARK  status: ('A' for Active; 'I' for Inactive)
REMARK    1  A    between atoms: C_2  and  C_4
REMARK    2  A    between atoms: C_6  and  C_7
REMARK    3  A    between atoms: C_7  and  C_8
REMARK    4  A    between atoms: N_10  and  C_11
REMARK    5  A    between atoms: C_11  and  C_12
REMARK    6  A    between atoms: C_15  and  C_18
REMARK    7  A    between atoms: C_23  and  C_24
REMARK    8  A    between atoms: C_24  and  N_25
REMARK    9  A    between atoms: C_26  and  C_28
REMARK                            x       y       z     vdW  Elec       q    Type
REMARK                         _______ _______ _______ _____ _____    ______ ____
ROOT
ATOM      4  C   UNL     1      -4.804   1.747  24.606  0.00  0.00    +0.006 C 
ATOM      5  C   UNL     1      -4.582   2.520  24.423  0.00  0.00    +0.005 C 
ATOM      6  C   UNL     1      -4.019   2.659  23.835  0.00  0.00    +0.027 C 
ATOM     20  C   UNL     1      -3.678   2.024  23.432  0.00  0.00    -0.048 C 
ATOM     21  C   UNL     1      -3.115   2.162  22.845  0.00  0.00    +0.026 C 
ATOM     22  C   UNL     1      -3.901   1.251  23.616  0.00  0.00    -0.033 C 
ATOM     23  C   UNL     1      -4.464   1.113  24.203  0.00  0.00    +0.043 C 
ENDROOT
BRANCH   4   2
ATOM      1  C   UNL     1      -6.169   1.584  24.997  0.00  0.00    +0.000 C 
ATOM      2  C   UNL     1      -5.367   1.610  25.193  0.00  0.00    +0.000 C 
ATOM      3  C   UNL     1      -5.130   1.498  25.975  0.00  0.00    +0.000 C 
ENDBRANCH   4   2
BRANCH   6   7
ATOM      7  C   UNL     1      -3.796   3.432  23.652  0.00  0.00    +0.091 C 
BRANCH   7   8
ATOM      8  C   UNL     1      -3.383   3.884  24.205  0.00  0.00    +0.242 C 
ATOM      9  O   UNL     1      -3.744   4.537  24.557  0.00  0.00    -0.273 OA
ATOM     10  N   UNL     1      -2.609   3.682  24.407  0.00  0.00    -0.201 NA
BRANCH  10  11
ATOM     11  C   UNL     1      -2.196   4.134  24.961  0.00  0.00    +0.141 C 
BRANCH  11  12
ATOM     12  C   UNL     1      -1.554   3.807  25.362  0.00  0.00    -0.001 A 
ATOM     13  C   UNL     1      -0.795   3.867  25.045  0.00  0.00    -0.002 A 
ATOM     14  C   UNL     1      -0.153   3.539  25.448  0.00  0.00    +0.010 A 
ATOM     15  C   UNL     1      -0.270   3.154  26.167  0.00  0.00    +0.068 A 
ATOM     16  C   UNL     1      -1.030   3.094  26.484  0.00  0.00    +0.010 A 
ATOM     17  C   UNL     1      -1.672   3.421  26.082  0.00  0.00    -0.002 A 
BRANCH  15  18
ATOM     18  C   UNL     1       0.371   2.826  26.570  0.00  0.00    +0.100 C 
ATOM     19  N   UNL     1       1.012   2.499  26.972  0.00  0.00    -0.191 NA
ENDBRANCH  15  18
ENDBRANCH  11  12
ENDBRANCH  10  11
ENDBRANCH   7   8
ENDBRANCH   6   7
BRANCH  23  24
ATOM     24  C   UNL     1      -4.687   0.340  24.386  0.00  0.00    +0.120 C 
BRANCH  24  25
ATOM     25  N   UNL     1      -4.110  -0.244  24.475  0.00  0.00    -0.201 NA
ATOM     26  C   UNL     1      -4.301  -1.036  24.338  0.00  0.00    +0.265 C 
ATOM     27  O   UNL     1      -5.067  -1.243  24.113  0.00  0.00    -0.268 OA
BRANCH  26  28
ATOM     28  C   UNL     1      -3.725  -1.620  24.427  0.00  0.00    +0.055 A 
ATOM     29  C   UNL     1      -3.843  -2.367  24.099  0.00  0.00    +0.007 A 
ATOM     30  C   UNL     1      -3.266  -2.952  24.188  0.00  0.00    +0.030 A 
ATOM     31  C   UNL     1      -2.573  -2.788  24.605  0.00  0.00    +0.140 A 
ATOM     32  F   UNL     1      -1.997  -3.372  24.694  0.00  0.00    -0.204 F 
ATOM     33  C   UNL     1      -2.456  -2.039  24.933  0.00  0.00    +0.030 A 
ATOM     34  C   UNL     1      -3.032  -1.456  24.844  0.00  0.00    +0.007 A 
ENDBRANCH  26  28
ENDBRANCH  24  25
ENDBRANCH  23  24
TORSDOF 9
ENDMDL
MODEL 3
REMARK VINA RESULT:      -9.3      2.633      5.878
REMARK  Name = 
REMARK  9 active torsions:
REMARK  status: ('A' for Active; 'I' for Inactive)
REMARK    1  A    between atoms: C_2  and  C_4
REMARK    2  A    between atoms: C_6  and  C_7
REMARK    3  A    between atoms: C_7  and  C_8
REMARK    4  A    between atoms: N_10  and  C_11
REMARK    5  A    between atoms: C_11  and  C_12
REMARK    6  A    between atoms: C_15  and  C_18
REMARK    7  A    between atoms: C_23  and  C_24
REMARK    8  A    between atoms: C_24  and  N_25
REMARK    9  A    between atoms: C_26  and  C_28
REMARK                            x       y       z     vdW  Elec       q    Type
REMARK                         _______ _______ _______ _____ _____    ______ ____
ROOT
ATOM      4  C   UNL     1      -0.411   1.485  24.286  0.00  0.00    +0.006 C 
ATOM      5  C   UNL     1      -0.378   2.289  24.469  0.00  0.00    +0.005 C 
ATOM      6  C   UNL     1      -0.339   2.531  25.258  0.00  0.00    +0.027 C 
ATOM     20  C   UNL     1      -0.333   1.969  25.862  0.00  0.00    -0.048 C 
ATOM     21  C   UNL     1      -0.293   2.211  26.650  0.00  0.00    +0.026 C 
ATOM     22  C   UNL     1      -0.366   1.165  25.678  0.00  0.00    -0.033 C 
ATOM     23  C   UNL     1      -0.405   0.924  24.891  0.00  0.00    +0.043 C 
ENDROOT
BRANCH   4   2
ATOM      1  C   UNL     1      -1.163   1.300  23.086  0.00  0.00    +0.000 C 
ATOM      2  C   UNL     1      -0.451   1.244  23.499  0.00  0.00    +0.000 C 
ATOM      3  C   UNL     1       0.222   0.948  23.123  0.00  0.00    +0.000 C 
ENDBRANCH   4   2
BRANCH   6   7
ATOM      7  C   UNL     1      -0.306   3.335  25.440  0.00  0.00    +0.091 C 
BRANCH   7   8
ATOM      8  C   UNL     1      -0.905   3.841  25.183  0.00  0.00    +0.242 C 
ATOM      9  O   UNL     1      -0.740   4.425  24.624  0.00  0.00    -0.273 OA
ATOM     10  N   UNL     1      -1.668   3.762  25.486  0.00  0.00    -0.201 NA
BRANCH  10  11
ATOM     11  C   UNL     1      -2.268   4.269  25.229  0.00  0.00    +0.141 C 
BRANCH  11  12
ATOM     12  C   UNL     1      -3.058   4.056  25.332  0.00  0.00    -0.001 A 
ATOM     13  C   UNL     1      -3.517   3.844  24.680  0.00  0.00    -0.002 A 
ATOM     14  C   UNL     1      -4.308   3.632  24.784  0.00  0.00    +0.010 A 
ATOM     15  C   UNL     1      -4.639   3.632  25.539  0.00  0.00    +0.068 A 
ATOM     16  C   UNL     1      -4.180   3.845  26.191  0.00  0.00    +0.010 A 
ATOM     17  C   UNL     1      -3.390   4.057  26.088  0.00  0.00    -0.002 A 
BRANCH  15  18
ATOM     18  C   UNL     1      -5.430   3.420  25.643  0.00  0.00    +0.100 C 
ATOM     19  N   UNL     1      -6.220   3.208  25.748  0.00  0.00    -0.191 NA
ENDBRANCH  15  18
ENDBRANCH  11  12
ENDBRANCH  10  11
ENDBRANCH   7   8
ENDBRANCH   6   7
BRANCH  23  24
ATOM     24  C   UNL     1      -0.439   0.120  24.708  0.00  0.00    +0.120 C 
BRANCH  24  25
ATOM     25  N   UNL     1      -1.148  -0.294  24.796  0.00  0.00    -0.201 NA
ATOM     26  C   UNL     1      -1.136  -1.107  24.940  0.00  0.00    +0.265 C 
ATOM     27  O   UNL     1      -0.415  -1.506  24.995  0.00  0.00    -0.268 OA
BRANCH  26  28
ATOM     28  C   UNL     1      -1.844  -1.520  25.028  0.00  0.00    +0.055 A 
ATOM     29  C   UNL     1      -2.011  -2.160  24.536  0.00  0.00    +0.007 A 
ATOM     30  C   UNL     1      -2.720  -2.574  24.624  0.00  0.00    +0.030 A 
ATOM     31  C   UNL     1      -3.261  -2.347  25.204  0.00  0.00    +0.140 A 
ATOM     32  F   UNL     1      -3.970  -2.760  25.292  0.00  0.00    -0.204 F 
ATOM     33  C   UNL     1      -3.093  -1.706  25.697  0.00  0.00    +0.030 A 
ATOM     34  C   UNL     1      -2.385  -1.293  25.609  0.00  0.00    +0.007 A 
ENDBRANCH  26  28
ENDBRANCH  24  25
ENDBRANCH  23  24
TORSDOF 9
ENDMDL
MODEL 4
REMARK VINA RESULT:      -8.9      1.532      2.451
REMARK  Name = 
REMARK  9 active torsions:
REMARK  status: ('A' for Active; 'I' for Inactive)
REMARK    1  A    between atoms: C_2  and  C_4
REMARK    2  A    between atoms: C_6  and  C_7
REMARK    3  A    between atoms: C_7  and  C_8
REMARK    4  A    between atoms: N_10  and  C_11
REMARK    5  A    between atoms: C_11  and  C_12
REMARK    6  A    between atoms: C_15  and  C_18
REMARK    7  A    between atoms: C_23  and  C_24
REMARK    8  A    between atoms: C_24  and  N_25
REMARK    9  A    between atoms: C_26  and  C_28
REMARK                            x       y       z     vdW  Elec       q    Type
REMARK                         _______ _______ _______ _____ _____    ______ ____
ROOT
ATOM      4  C   UNL     1      -2.898  -0.713  24.638  0.00  0.00    +0.006 C 
ATOM      5  C   UNL     1      -2.106  -0.940  24.616  0.00  0.00    +0.005 C 
ATOM      6  C   UNL     1      -1.525  -0.437  24.919  0.00  0.00    +0.027 C 
ATOM     20  C   UNL     1      -1.737   0.291  25.244  0.00  0.00    -0.048 C 
ATOM     21  C   UNL     1      -1.157   0.793  25.547  0.00  0.00    +0.026 C 
ATOM     22  C   UNL     1      -2.531   0.517  25.266  0.00  0.00    -0.033 C 
ATOM     23  C   UNL     1      -3.111   0.015  24.963  0.00  0.00    +0.043 C 
ENDROOT
BRANCH   4   2
ATOM      1  C   UNL     1      -3.772  -1.832  24.798  0.00  0.00    +0.000 C 
ATOM      2  C   UNL     1      -3.478  -1.215  24.335  0.00  0.00    +0.000 C 
ATOM      3  C   UNL     1      -3.765  -1.101  23.570  0.00  0.00    +0.000 C 
ENDBRANCH   4   2
BRANCH   6   7
ATOM      7  C   UNL     1      -0.732  -0.664  24.897  0.00  0.00    +0.091 C 
BRANCH   7   8
ATOM      8  C   UNL     1      -0.361  -0.795  24.171  0.00  0.00    +0.242 C 
ATOM      9  O   UNL     1      -0.546  -1.466  23.728  0.00  0.00    -0.273 OA
ATOM     10  N   UNL     1       0.195  -0.255  23.890  0.00  0.00    -0.201 NA
BRANCH  10  11
ATOM     11  C   UNL     1       0.567  -0.386  23.164  0.00  0.00    +0.141 C 
BRANCH  11  12
ATOM     12  C   UNL     1       1.318  -0.075  23.024  0.00  0.00    -0.001 A 
ATOM     13  C   UNL     1       1.543   0.636  23.377  0.00  0.00    -0.002 A 
ATOM     14  C   UNL     1       2.295   0.945  23.236  0.00  0.00    +0.010 A 
ATOM     15  C   UNL     1       2.821   0.545  22.743  0.00  0.00    +0.068 A 
ATOM     16  C   UNL     1       2.595  -0.165  22.389  0.00  0.00    +0.010 A 
ATOM     17  C   UNL     1       1.844  -0.476  22.530  0.00  0.00    -0.002 A 
BRANCH  15  18
ATOM     18  C   UNL     1       3.572   0.855  22.601  0.00  0.00    +0.100 C 
ATOM     19  N   UNL     1       4.323   1.165  22.460  0.00  0.00    -0.191 NA
ENDBRANCH  15  18
ENDBRANCH  11  12
ENDBRANCH  10  11
ENDBRANCH   7   8
ENDBRANCH   6   7
BRANCH  23  24
ATOM     24  C   UNL     1      -3.904   0.242  24.985  0.00  0.00    +0.120 C 
BRANCH  24  25
ATOM     25  N   UNL     1      -4.102   1.037  25.088  0.00  0.00    -0.201 NA
ATOM     26  C   UNL     1      -4.895   1.259  25.153  0.00  0.00    +0.265 C 
ATOM     27  O   UNL     1      -5.488   0.687  25.114  0.00  0.00    -0.268 OA
BRANCH  26  28
ATOM     28  C   UNL     1      -5.093   2.053  25.256  0.00  0.00    +0.055 A 
ATOM     29  C   UNL     1      -5.657   2.266  25.819  0.00  0.00    +0.007 A 
ATOM     30  C   UNL     1      -5.855   3.061  25.922  0.00  0.00    +0.030 A 
ATOM     31  C   UNL     1      -5.490   3.641  25.463  0.00  0.00    +0.140 A 
ATOM     32  F   UNL     1      -5.688   4.435  25.567  0.00  0.00    -0.204 F 
ATOM     33  C   UNL     1      -4.925   3.427  24.900  0.00  0.00    +0.030 A 
ATOM     34  C   UNL     1      -4.727   2.633  24.797  0.00  0.00    +0.007 A 
ENDBRANCH  26  28
ENDBRANCH  24  25
ENDBRANCH  23  24
TORSDOF 9
ENDMDL
MODEL 5
REMARK VINA RESULT:      -8.7      2.323      3.764
REMARK  Name = 
REMARK  9 active torsions:
REMARK  status: ('A' for Active; 'I' for Inactive)
REMARK    1  A    between atoms: C_2  and  C_4
REMARK    2  A    between atoms: C_6  and  C_7
REMARK    3  A    between atoms: C_7  and  C_8
REMARK    4  A    between atoms: N_10  and  C_11
REMARK    5  A    between atoms: C_11  and  C_12
REMARK    6  A    between atoms: C_15  and  C_18
REMARK    7  A    between atoms: C_23  and  C_24
REMARK    8  A    between atoms: C_24  and  N_25
REMARK    9  A    between atoms: C_26  and  C_28
REMARK                            x       y       z     vdW  Elec       q    Type
REMARK                         _______ _______ _______ _____ _____    ______ ____
ROOT
ATOM      4  C   UNL     1      -2.009   1.993  23.418  0.00  0.00    +0.006 C 
ATOM      5  C   UNL     1      -1.269   1.638  23.494  0.00  0.00    +0.005 C 
ATOM      6  C   UNL     1      -0.830   1.743  24.185  0.00  0.00    +0.027 C 
ATOM     20  C   UNL     1      -1.133   2.203  24.800  0.00  0.00    -0.048 C 
ATOM     21  C   UNL     1      -0.695   2.309  25.491  0.00  0.00    +0.026 C 
ATOM     22  C   UNL     1      -1.874   2.558  24.723  0.00  0.00    -0.033 C 
ATOM     23  C   UNL     1      -2.312   2.452  24.032  0.00  0.00    +0.043 C 
ENDROOT
BRANCH   4   2
ATOM      1  C   UNL     1      -2.910   1.210  22.631  0.00  0.00    +0.000 C 
ATOM      2  C   UNL     1      -2.447   1.887  22.727  0.00  0.00    +0.000 C 
ATOM      3  C   UNL     1      -2.423   2.457  22.131  0.00  0.00    +0.000 C 
ENDBRANCH   4   2
BRANCH   6   7
ATOM      7  C   UNL     1      -0.089   1.389  24.261  0.00  0.00    +0.091 C 
BRANCH   7   8
ATOM      8  C   UNL     1      -0.003   0.580  24.121  0.00  0.00    +0.242 C 
ATOM      9  O   UNL     1       0.468   0.317  23.497  0.00  0.00    -0.273 OA
ATOM     10  N   UNL     1      -0.389   0.034  24.605  0.00  0.00    -0.201 NA
BRANCH  10  11
ATOM     11  C   UNL     1      -0.303  -0.775  24.464  0.00  0.00    +0.141 C 
BRANCH  11  12
ATOM     12  C   UNL     1      -0.945  -1.282  24.571  0.00  0.00    -0.001 A 
ATOM     13  C   UNL     1      -1.388  -1.246  25.267  0.00  0.00    -0.002 A 
ATOM     14  C   UNL     1      -2.029  -1.754  25.373  0.00  0.00    +0.010 A 
ATOM     15  C   UNL     1      -2.228  -2.296  24.785  0.00  0.00    +0.068 A 
ATOM     16  C   UNL     1      -1.786  -2.332  24.090  0.00  0.00    +0.010 A 
ATOM     17  C   UNL     1      -1.144  -1.825  23.983  0.00  0.00    -0.002 A 
BRANCH  15  18
ATOM     18  C   UNL     1      -2.870  -2.804  24.891  0.00  0.00    +0.100 C 
ATOM     19  N   UNL     1      -3.511  -3.312  24.997  0.00  0.00    -0.191 NA
ENDBRANCH  15  18
ENDBRANCH  11  12
ENDBRANCH  10  11
ENDBRANCH   7   8
ENDBRANCH   6   7
BRANCH  23  24
ATOM     24  C   UNL     1      -3.053   2.807  23.956  0.00  0.00    +0.120 C 
BRANCH  24  25
ATOM     25  N   UNL     1      -3.681   2.554  24.429  0.00  0.00    -0.201 NA
ATOM     26  C   UNL     1      -4.315   3.062  24.579  0.00  0.00    +0.265 C 
ATOM     27  O   UNL     1      -4.321   3.821  24.256  0.00  0.00    -0.268 OA
BRANCH  26  28
ATOM     28  C   UNL     1      -4.942   2.810  25.052  0.00  0.00    +0.055 A 
ATOM     29  C   UNL     1      -5.432   2.199  24.792  0.00  0.00    +0.007 A 
ATOM     30  C   UNL     1      -6.060   1.946  25.265  0.00  0.00    +0.030 A 
ATOM     31  C   UNL     1      -6.197   2.303  25.996  0.00  0.00    +0.140 A 
ATOM     32  F   UNL     1      -6.824   2.051  26.468  0.00  0.00    -0.204 F 
ATOM     33  C   UNL     1      -5.706   2.915  26.255  0.00  0.00    +0.030 A 
ATOM     34  C   UNL     1      -5.079   3.167  25.782  0.00  0.00    +0.007 A 
ENDBRANCH  26  28
ENDBRANCH  24  25
ENDBRANCH  23  24
TORSDOF 9
ENDMDL
MODEL 6
REMARK VINA RESULT:      -8.5      2.318      7.013
REMARK  Name = 
REMARK  9 active torsions:
REMARK  status: ('A' for Active; 'I' for Inactive)
REMARK    1  A    between atoms: C_2  and  C_4
REMARK    2  A    between atoms: C_6  and  C_7
REMARK    3  A    between atoms: C_7  and  C_8
REMARK    4  A    between atoms: N_10  and  C_11
REMARK    5  A    between atoms: C_11  and  C_12
REMARK    6  A    between atoms: C_15  and  C_18
REMARK    7  A    between atoms: C_23  and  C_24
REMARK    8  A    between atoms: C_24  and  N_25
REMARK    9  A    between atoms: C_26  and  C_28
REMARK                            x       y       z     vdW  Elec       q    Type
REMARK                         _______ _______ _______ _____ _____    ______ ____
ROOT
ATOM      4  C   UNL     1      -0.954   1.261  24.878  0.00  0.00    +0.006 C 
ATOM      5  C   UNL     1      -1.300   1.891  25.281  0.00  0.00    +0.005 C 
ATOM      6  C   UNL     1      -0.949   2.638  25.259  0.00  0.00    +0.027 C 
ATOM     20  C   UNL     1      -0.252   2.753  24.833  0.00  0.00    -0.048 C 
ATOM     21  C   UNL     1       0.100   3.499  24.810  0.00  0.00    +0.026 C 
ATOM     22  C   UNL     1       0.095   2.122  24.430  0.00  0.00    -0.033 C 
ATOM     23  C   UNL     1      -0.257   1.376  24.453  0.00  0.00    +0.043 C 
ENDROOT
BRANCH   4   2
ATOM      1  C   UNL     1      -1.827   0.286  24.303  0.00  0.00    +0.000 C 
ATOM      2  C   UNL     1      -1.305   0.515  24.901  0.00  0.00    +0.000 C 
ATOM      3  C   UNL     1      -1.136  -0.003  25.521  0.00  0.00    +0.000 C 
ENDBRANCH   4   2
BRANCH   6   7
ATOM      7  C   UNL     1      -1.296   3.269  25.662  0.00  0.00    +0.091 C 
BRANCH   7   8
ATOM      8  C   UNL     1      -1.972   3.631  25.357  0.00  0.00    +0.242 C 
ATOM      9  O   UNL     1      -1.901   4.292  24.868  0.00  0.00    -0.273 OA
ATOM     10  N   UNL     1      -2.718   3.332  25.542  0.00  0.00    -0.201 NA
BRANCH  10  11
ATOM     11  C   UNL     1      -3.394   3.694  25.237  0.00  0.00    +0.141 C 
BRANCH  11  12
ATOM     12  C   UNL     1      -4.102   3.273  25.192  0.00  0.00    -0.001 A 
ATOM     13  C   UNL     1      -4.603   3.238  25.847  0.00  0.00    -0.002 A 
ATOM     14  C   UNL     1      -5.312   2.816  25.801  0.00  0.00    +0.010 A 
ATOM     15  C   UNL     1      -5.519   2.431  25.102  0.00  0.00    +0.068 A 
ATOM     16  C   UNL     1      -5.018   2.467  24.448  0.00  0.00    +0.010 A 
ATOM     17  C   UNL     1      -4.310   2.888  24.492  0.00  0.00    -0.002 A 
BRANCH  15  18
ATOM     18  C   UNL     1      -6.227   2.010  25.057  0.00  0.00    +0.100 C 
ATOM     19  N   UNL     1      -6.934   1.589  25.011  0.00  0.00    -0.191 NA
ENDBRANCH  15  18
ENDBRANCH  11  12
ENDBRANCH  10  11
ENDBRANCH   7   8
ENDBRANCH   6   7
BRANCH  23  24
ATOM     24  C   UNL     1       0.090   0.745  24.049  0.00  0.00    +0.120 C 
BRANCH  24  25
ATOM     25  N   UNL     1       0.838   0.833  23.711  0.00  0.00    -0.201 NA
ATOM     26  C   UNL     1       1.163   0.221  23.262  0.00  0.00    +0.265 C 
ATOM     27  O   UNL     1       0.740  -0.478  23.151  0.00  0.00    -0.268 OA
BRANCH  26  28
ATOM     28  C   UNL     1       1.910   0.310  22.925  0.00  0.00    +0.055 A 
ATOM     29  C   UNL     1       2.084  -0.060  22.208  0.00  0.00    +0.007 A 
ATOM     30  C   UNL     1       2.832   0.029  21.870  0.00  0.00    +0.030 A 
ATOM     31  C   UNL     1       3.405   0.487  22.248  0.00  0.00    +0.140 A 
ATOM     32  F   UNL     1       4.152   0.575  21.911  0.00  0.00    -0.204 F 
ATOM     33  C   UNL     1       3.230   0.856  22.966  0.00  0.00    +0.030 A 
ATOM     34  C   UNL     1       2.483   0.768  23.303  0.00  0.00    +0.007 A 
ENDBRANCH  26  28
ENDBRANCH  24  25
ENDBRANCH  23  24
TORSDOF 9
ENDMDL
MODEL 7
REMARK VINA RESULT:      -8.4      2.641      6.100
REMARK  Name = 
REMARK  9 active torsions:
REMARK  status: ('A' for Active; 'I' for Inactive)
REMARK    1  A    between atoms: C_2  and  C_4
REMARK    2  A    between atoms: C_6  and  C_7
REMARK    3  A    between atoms: C_7  and  C_8
REMARK    4  A    between atoms: N_10  and  C_11
REMARK    5  A    between atoms: C_11  and  C_12
REMARK    6  A    between atoms: C_15  and  C_18
REMARK    7  A    between atoms: C_23  and  C_24
REMARK    8  A    between atoms: C_24  and  N_25
REMARK    9  A    between atoms: C_26  and  C_28
REMARK                            x       y       z     vdW  Elec       q    Type
REMARK                         _______ _______ _______ _____ _____    ______ ____
ROOT
ATOM      4  C   UNL     1      -1.515   2.278  24.906  0.00  0.00    +0.006 C 
ATOM      5  C   UNL     1      -2.336   2.320  24.844  0.00  0.00    +0.005 C 
ATOM      6  C   UNL     1      -2.698   2.255  24.104  0.00  0.00    +0.027 C 
ATOM     20  C   UNL     1      -2.238   2.148  23.428  0.00  0.00    -0.048 C 
ATOM     21  C   UNL     1      -2.598   2.082  22.689  0.00  0.00    +0.026 C 
ATOM     22  C   UNL     1      -1.415   2.106  23.490  0.00  0.00    -0.033 C 
ATOM     23  C   UNL     1      -1.055   2.171  24.229  0.00  0.00    +0.043 C 
ENDROOT
BRANCH   4   2
ATOM      1  C   UNL     1      -0.970   3.089  25.949  0.00  0.00    +0.000 C 
ATOM      2  C   UNL     1      -1.154   2.343  25.645  0.00  0.00    +0.000 C 
ATOM      3  C   UNL     1      -0.977   1.665  26.079  0.00  0.00    +0.000 C 
ENDBRANCH   4   2
BRANCH   6   7
ATOM      7  C   UNL     1      -3.519   2.297  24.043  0.00  0.00    +0.091 C 
BRANCH   7   8
ATOM      8  C   UNL     1      -3.991   1.753  24.446  0.00  0.00    +0.242 C 
ATOM      9  O   UNL     1      -4.497   2.009  25.045  0.00  0.00    -0.273 OA
ATOM     10  N   UNL     1      -3.957   0.952  24.249  0.00  0.00    -0.201 NA
BRANCH  10  11
ATOM     11  C   UNL     1      -4.429   0.408  24.653  0.00  0.00    +0.141 C 
BRANCH  11  12
ATOM     12  C   UNL     1      -4.231  -0.392  24.647  0.00  0.00    -0.001 A 
ATOM     13  C   UNL     1      -4.392  -0.853  23.982  0.00  0.00    -0.002 A 
ATOM     14  C   UNL     1      -4.193  -1.654  23.978  0.00  0.00    +0.010 A 
ATOM     15  C   UNL     1      -3.834  -1.994  24.638  0.00  0.00    +0.068 A 
ATOM     16  C   UNL     1      -3.673  -1.533  25.303  0.00  0.00    +0.010 A 
ATOM     17  C   UNL     1      -3.871  -0.732  25.308  0.00  0.00    -0.002 A 
BRANCH  15  18
ATOM     18  C   UNL     1      -3.635  -2.795  24.633  0.00  0.00    +0.100 C 
ATOM     19  N   UNL     1      -3.436  -3.595  24.630  0.00  0.00    -0.191 NA
ENDBRANCH  15  18
ENDBRANCH  11  12
ENDBRANCH  10  11
ENDBRANCH   7   8
ENDBRANCH   6   7
BRANCH  23  24
ATOM     24  C   UNL     1      -0.233   2.129  24.291  0.00  0.00    +0.120 C 
BRANCH  24  25
ATOM     25  N   UNL     1       0.185   1.571  23.849  0.00  0.00    -0.201 NA
ATOM     26  C   UNL     1       1.010   1.594  23.831  0.00  0.00    +0.265 C 
ATOM     27  O   UNL     1       1.417   2.175  24.253  0.00  0.00    -0.268 OA
BRANCH  26  28
ATOM     28  C   UNL     1       1.428   1.036  23.389  0.00  0.00    +0.055 A 
ATOM     29  C   UNL     1       2.216   1.177  23.189  0.00  0.00    +0.007 A 
ATOM     30  C   UNL     1       2.634   0.619  22.747  0.00  0.00    +0.030 A 
ATOM     31  C   UNL     1       2.265  -0.078  22.506  0.00  0.00    +0.140 A 
ATOM     32  F   UNL     1       2.682  -0.636  22.064  0.00  0.00    -0.204 F 
ATOM     33  C   UNL     1       1.476  -0.218  22.706  0.00  0.00    +0.030 A 
ATOM     34  C   UNL     1       1.058   0.340  23.148  0.00  0.00    +0.007 A 
ENDBRANCH  26  28
ENDBRANCH  24  25
ENDBRANCH  23  24
TORSDOF 9
ENDMDL
MODEL 8
REMARK VINA RESULT:      -8.4      3.555      4.742
REMARK  Name = 
REMARK  9 active torsions:
REMARK  status: ('A' for Active; 'I' for Inactive)
REMARK    1  A    between atoms: C_2  and  C_4
REMARK    2  A    between atoms: C_6  and  C_7
REMARK    3  A    between atoms: C_7  and  C_8
REMARK    4  A    between atoms: N_10  and  C_11
REMARK    5  A    between atoms: C_11  and  C_12
REMARK    6  A    between atoms: C_15  and  C_18
REMARK    7  A    between atoms: C_23  and  C_24
REMARK    8  A    between atoms: C_24  and  N_25
REMARK    9  A    between atoms: C_26  and  C_28
REMARK                            x       y       z     vdW  Elec       q    Type
REMARK                         _______ _______ _______ _____ _____    ______ ____
ROOT
ATOM      4  C   UNL     1      -4.638   1.795  24.896  0.00  0.00    +0.006 C 
ATOM      5  C   UNL     1      -4.738   1.054  24.547  0.00  0.00    +0.005 C 
ATOM      6  C   UNL     1      -4.209   0.797  23.968  0.00  0.00    +0.027 C 
ATOM     20  C   UNL     1      -3.580   1.280  23.739  0.00  0.00    -0.048 C 
ATOM     21  C   UNL     1      -3.051   1.023  23.161  0.00  0.00    +0.026 C 
ATOM     22  C   UNL     1      -3.481   2.021  24.089  0.00  0.00    -0.033 C 
ATOM     23  C   UNL     1      -4.010   2.278  24.667  0.00  0.00    +0.043 C 
ENDROOT
BRANCH   4   2
ATOM      1  C   UNL     1      -5.799   2.542  25.267  0.00  0.00    +0.000 C 
ATOM      2  C   UNL     1      -5.167   2.052  25.475  0.00  0.00    +0.000 C 
ATOM      3  C   UNL     1      -5.066   1.819  26.260  0.00  0.00    +0.000 C 
ENDBRANCH   4   2
BRANCH   6   7
ATOM      7  C   UNL     1      -4.309   0.056  23.619  0.00  0.00    +0.091 C 
BRANCH   7   8
ATOM      8  C   UNL     1      -4.167  -0.629  24.058  0.00  0.00    +0.242 C 
ATOM      9  O   UNL     1      -4.799  -1.049  24.383  0.00  0.00    -0.273 OA
ATOM     10  N   UNL     1      -3.394  -0.893  24.172  0.00  0.00    -0.201 NA
BRANCH  10  11
ATOM     11  C   UNL     1      -3.253  -1.578  24.611  0.00  0.00    +0.141 C 
BRANCH  11  12
ATOM     12  C   UNL     1      -2.480  -1.789  24.807  0.00  0.00    -0.001 A 
ATOM     13  C   UNL     1      -2.086  -2.367  24.369  0.00  0.00    -0.002 A 
ATOM     14  C   UNL     1      -1.313  -2.578  24.566  0.00  0.00    +0.010 A 
ATOM     15  C   UNL     1      -0.934  -2.211  25.199  0.00  0.00    +0.068 A 
ATOM     16  C   UNL     1      -1.327  -1.633  25.637  0.00  0.00    +0.010 A 
ATOM     17  C   UNL     1      -2.100  -1.421  25.441  0.00  0.00    -0.002 A 
BRANCH  15  18
ATOM     18  C   UNL     1      -0.160  -2.421  25.396  0.00  0.00    +0.100 C 
ATOM     19  N   UNL     1       0.612  -2.632  25.593  0.00  0.00    -0.191 NA
ENDBRANCH  15  18
ENDBRANCH  11  12
ENDBRANCH  10  11
ENDBRANCH   7   8
ENDBRANCH   6   7
BRANCH  23  24
ATOM     24  C   UNL     1      -3.910   3.019  25.017  0.00  0.00    +0.120 C 
BRANCH  24  25
ATOM     25  N   UNL     1      -3.224   3.454  24.870  0.00  0.00    -0.201 NA
ATOM     26  C   UNL     1      -2.947   3.990  25.434  0.00  0.00    +0.265 C 
ATOM     27  O   UNL     1      -3.355   4.090  26.143  0.00  0.00    -0.268 OA
BRANCH  26  28
ATOM     28  C   UNL     1      -2.262   4.425  25.287  0.00  0.00    +0.055 A 
ATOM     29  C   UNL     1      -2.312   5.236  25.145  0.00  0.00    +0.007 A 
ATOM     30  C   UNL     1      -1.626   5.672  24.997  0.00  0.00    +0.030 A 
ATOM     31  C   UNL     1      -0.892   5.296  24.992  0.00  0.00    +0.140 A 
ATOM     32  F   UNL     1      -0.206   5.731  24.845  0.00  0.00    -0.204 F 
ATOM     33  C   UNL     1      -0.842   4.484  25.134  0.00  0.00    +0.030 A 
ATOM     34  C   UNL     1      -1.527   4.049  25.282  0.00  0.00    +0.007 A 
ENDBRANCH  26  28
ENDBRANCH  24  25
ENDBRANCH  23  24
TORSDOF 9
ENDMDL
