MODEL 1
REMARK VINA RESULT:     -12.8      0.000      0.000
REMARK  Name = 
REMARK  6 active torsions:
REMARK  status: ('A' for Active; 'I' for Inactive)
REMARK    1  A    between atoms: C_2  and  C_3
REMARK    2  A    between atoms: C_2  and  C_27
REMARK    3  A    between atoms: C_10  and  N_11
REMARK    4  A    between atoms: N_14  and  C_15
REMARK    5  A    between atoms: N_29  and  C_30
REMARK    6  A    between atoms: C_30  and  C_31
REMARK                            x       y       z     vdW  Elec       q    Type
REMARK                         _______ _______ _______ _____ _____    ______ ____
ROOT
ATOM      3  C   UNL     1      -4.067   3.319  25.030  0.00  0.00    +0.039 C 
ATOM      4  C   UNL     1      -4.669   3.317  25.595  0.00  0.00    +0.003 C 
ATOM      5  C   UNL     1      -5.122   2.638  25.711  0.00  0.00    +0.000 C 
ATOM      6  C   UNL     1      -4.973   1.961  25.265  0.00  0.00    +0.002 C 
ATOM      7  C   UNL     1      -5.574   1.958  25.828  0.00  0.00    +0.000 C 
ATOM      8  C   UNL     1      -5.426   1.281  25.381  0.00  0.00    +0.002 C 
ATOM      9  C   UNL     1      -5.277   0.604  24.934  0.00  0.00    +0.022 C 
ATOM     10  C   UNL     1      -4.675   0.607  24.369  0.00  0.00    +0.097 C 
ATOM     22  C   UNL     1      -4.222   1.286  24.253  0.00  0.00    +0.023 C 
ATOM     23  C   UNL     1      -3.620   1.288  23.688  0.00  0.00    +0.002 C 
ATOM     24  C   UNL     1      -4.371   1.963  24.700  0.00  0.00    +0.032 C 
ATOM     25  C   UNL     1      -3.918   2.642  24.583  0.00  0.00    +0.152 C 
ATOM     26  O   UNL     1      -3.316   2.645  24.019  0.00  0.00    -0.223 OA
ENDROOT
BRANCH  10  11
ATOM     11  N   UNL     1      -4.527  -0.071  23.922  0.00  0.00    -0.189 NA
ATOM     12  C   UNL     1      -4.127  -0.708  24.259  0.00  0.00    +0.343 C 
ATOM     13  O   UNL     1      -3.876  -0.670  25.045  0.00  0.00    -0.249 OA
ATOM     14  N   UNL     1      -3.979  -1.386  23.812  0.00  0.00    -0.161 NA
BRANCH  14  15
ATOM     15  C   UNL     1      -3.580  -2.024  24.149  0.00  0.00    +0.077 A 
ATOM     16  C   UNL     1      -4.005  -2.670  24.439  0.00  0.00    +0.017 A 
ATOM     17  C   UNL     1      -3.605  -3.308  24.776  0.00  0.00    +0.004 A 
ATOM     18  C   UNL     1      -2.782  -3.301  24.823  0.00  0.00    +0.030 A 
ATOM     19  C   UNL     1      -2.357  -2.656  24.532  0.00  0.00    +0.141 A 
ATOM     20  F   UNL     1      -1.533  -2.649  24.579  0.00  0.00    -0.204 F 
ATOM     21  C   UNL     1      -2.756  -2.018  24.196  0.00  0.00    +0.046 A 
ENDBRANCH  14  15
ENDBRANCH  10  11
BRANCH   3   2
ATOM      1  C   UNL     1      -3.794   4.515  24.295  0.00  0.00    +0.010 C 
ATOM      2  C   UNL     1      -3.614   3.999  24.913  0.00  0.00    +0.081 C 
BRANCH   2  27
ATOM     27  C   UNL     1      -2.981   4.163  25.416  0.00  0.00    +0.241 C 
ATOM     28  O   UNL     1      -3.099   4.618  26.095  0.00  0.00    -0.273 OA
ATOM     29  N   UNL     1      -2.228   3.873  25.240  0.00  0.00    -0.197 NA
BRANCH  29  30
ATOM     30  C   UNL     1      -1.595   4.037  25.742  0.00  0.00    +0.179 C 
BRANCH  30  31
ATOM     31  C   UNL     1      -0.956   3.518  25.784  0.00  0.00    +0.145 A 
ATOM     32  C   UNL     1      -0.324   3.483  25.254  0.00  0.00    +0.038 A 
ATOM     33  C   UNL     1       0.186   2.885  25.506  0.00  0.00    +0.043 A 
ATOM     34  C   UNL     1      -0.130   2.551  26.192  0.00  0.00    +0.179 A 
ATOM     35  O   UNL     1      -0.836   2.942  26.363  0.00  0.00    -0.453 OA
ENDBRANCH  30  31
ENDBRANCH  29  30
ENDBRANCH   2  27
ENDBRANCH   3   2
TORSDOF 6
ENDMDL
MODEL 2
REMARK VINA RESULT:     -12.2      3.350      5.298
REMARK  Name = 
REMARK  6 active torsions:
REMARK  status: ('A' for Active; 'I' for Inactive)
REMARK    1  A    between atoms: C_2  and  C_3
REMARK    2  A    between atoms: C_2  and  C_27
REMARK    3  A    between atoms: C_10  and  N_11
REMARK    4  A    between atoms: N_14  and  C_15
REMARK    5  A    between atoms: N_29  and  C_30
REMARK    6  A    between atoms: C_30  and  C_31
REMARK                            x       y       z     vdW  Elec       q    Type
REMARK                         _______ _______ _______ _____ _____    ______ ____
ROOT
ATOM      3  C   UNL     1       0.201   0.732  23.790  0.00  0.00    +0.039 C 
ATOM      4  C   UNL     1       0.620   1.301  24.219  0.00  0.00    +0.003 C 
ATOM      5  C   UNL     1       0.243   1.991  24.466  0.00  0.00    +0.000 C 
ATOM      6  C   UNL     1      -0.552   2.114  24.284  0.00  0.00    +0.002 C 
ATOM      7  C   UNL     1      -0.134   2.681  24.712  0.00  0.00    +0.000 C 
ATOM      8  C   UNL     1      -0.930   2.805  24.530  0.00  0.00    +0.002 C 
ATOM      9  C   UNL     1      -1.724   2.929  24.348  0.00  0.00    +0.022 C 
ATOM     10  C   UNL     1      -2.143   2.361  23.919  0.00  0.00    +0.097 C 
ATOM     22  C   UNL     1      -1.765   1.670  23.673  0.00  0.00    +0.023 C 
ATOM     23  C   UNL     1      -2.183   1.103  23.244  0.00  0.00    +0.002 C 
ATOM     24  C   UNL     1      -0.970   1.546  23.854  0.00  0.00    +0.032 C 
ATOM     25  C   UNL     1      -0.593   0.856  23.608  0.00  0.00    +0.152 C 
ATOM     26  O   UNL     1      -1.011   0.288  23.179  0.00  0.00    -0.223 OA
ENDROOT
BRANCH  10  11
ATOM     11  N   UNL     1      -2.938   2.485  23.737  0.00  0.00    -0.189 NA
ATOM     12  C   UNL     1      -3.495   2.546  24.342  0.00  0.00    +0.343 C 
ATOM     13  O   UNL     1      -3.257   2.483  25.130  0.00  0.00    -0.249 OA
ATOM     14  N   UNL     1      -4.290   2.670  24.160  0.00  0.00    -0.161 NA
BRANCH  14  15
ATOM     15  C   UNL     1      -4.847   2.732  24.764  0.00  0.00    +0.077 A 
ATOM     16  C   UNL     1      -4.992   3.463  25.120  0.00  0.00    +0.017 A 
ATOM     17  C   UNL     1      -5.550   3.524  25.725  0.00  0.00    +0.004 A 
ATOM     18  C   UNL     1      -5.963   2.856  25.974  0.00  0.00    +0.030 A 
ATOM     19  C   UNL     1      -5.818   2.124  25.619  0.00  0.00    +0.141 A 
ATOM     20  F   UNL     1      -6.232   1.455  25.869  0.00  0.00    -0.204 F 
ATOM     21  C   UNL     1      -5.261   2.063  25.014  0.00  0.00    +0.046 A 
ENDBRANCH  14  15
ENDBRANCH  10  11
BRANCH   3   2
ATOM      1  C   UNL     1       0.385  -0.682  23.890  0.00  0.00    +0.010 C 
ATOM      2  C   UNL     1       0.579   0.041  23.544  0.00  0.00    +0.081 C 
BRANCH   2  27
ATOM     27  C   UNL     1       1.152   0.074  22.950  0.00  0.00    +0.241 C 
ATOM     28  O   UNL     1       0.926   0.048  22.157  0.00  0.00    -0.273 OA
ATOM     29  N   UNL     1       1.951   0.133  23.150  0.00  0.00    -0.197 NA
BRANCH  29  30
ATOM     30  C   UNL     1       2.523   0.166  22.558  0.00  0.00    +0.179 C 
BRANCH  30  31
ATOM     31  C   UNL     1       3.318   0.254  22.757  0.00  0.00    +0.145 A 
ATOM     32  C   UNL     1       3.770   0.938  22.658  0.00  0.00    +0.038 A 
ATOM     33  C   UNL     1       4.533   0.780  22.929  0.00  0.00    +0.043 A 
ATOM     34  C   UNL     1       4.553  -0.002  23.196  0.00  0.00    +0.179 A 
ATOM     35  O   UNL     1       3.802  -0.326  23.089  0.00  0.00    -0.453 OA
ENDBRANCH  30  31
ENDBRANCH  29  30
ENDBRANCH   2  27
ENDBRANCH   3   2
TORSDOF 6
ENDMDL
MODEL 3
REMARK VINA RESULT:     -12.1      1.767      3.572
REMARK  Name = 
REMARK  6 active torsions:
REMARK  status: ('A' for Active; 'I' for Inactive)
REMARK    1  A    between atoms: C_2  and  C_3
REMARK    2  A    between atoms: C_2  and  C_27
REMARK    3  A    between atoms: C_10  and  N_11
REMARK    4  A    between atoms: N_14  and  C_15
REMARK    5  A    between atoms: N_29  and  C_30
REMARK    6  A    between atoms: C_30  and  C_31
REMARK                            x       y       z     vdW  Elec       q    Type
REMARK                         _______ _______ _______ _____ _____    ______ ____
ROOT
ATOM      3  C   UNL     1      -0.179   2.178  25.222  0.00  0.00    +0.039 C 
ATOM      4  C   UNL     1       0.255   2.184  24.520  0.00  0.00    +0.003 C 
ATOM      5  C   UNL     1       0.303   1.502  24.059  0.00  0.00    +0.000 C 
ATOM      6  C   UNL     1      -0.082   0.814  24.299  0.00  0.00    +0.002 C 
ATOM      7  C   UNL     1       0.351   0.820  23.598  0.00  0.00    +0.000 C 
ATOM      8  C   UNL     1      -0.034   0.131  23.838  0.00  0.00    +0.002 C 
ATOM      9  C   UNL     1      -0.420  -0.557  24.078  0.00  0.00    +0.022 C 
ATOM     10  C   UNL     1      -0.854  -0.563  24.780  0.00  0.00    +0.097 C 
ATOM     22  C   UNL     1      -0.902   0.119  25.241  0.00  0.00    +0.023 C 
ATOM     23  C   UNL     1      -1.336   0.113  25.943  0.00  0.00    +0.002 C 
ATOM     24  C   UNL     1      -0.517   0.808  25.001  0.00  0.00    +0.032 C 
ATOM     25  C   UNL     1      -0.565   1.490  25.462  0.00  0.00    +0.152 C 
ATOM     26  O   UNL     1      -0.999   1.483  26.164  0.00  0.00    -0.223 OA
ENDROOT
BRANCH  10  11
ATOM     11  N   UNL     1      -1.240  -1.252  25.020  0.00  0.00    -0.189 NA
ATOM     12  C   UNL     1      -1.933  -1.490  24.643  0.00  0.00    +0.343 C 
ATOM     13  O   UNL     1      -2.243  -1.038  24.024  0.00  0.00    -0.249 OA
ATOM     14  N   UNL     1      -2.319  -2.179  24.883  0.00  0.00    -0.161 NA
BRANCH  14  15
ATOM     15  C   UNL     1      -3.013  -2.416  24.505  0.00  0.00    +0.077 A 
ATOM     16  C   UNL     1      -3.070  -3.176  24.187  0.00  0.00    +0.017 A 
ATOM     17  C   UNL     1      -3.764  -3.414  23.810  0.00  0.00    +0.004 A 
ATOM     18  C   UNL     1      -4.401  -2.893  23.750  0.00  0.00    +0.030 A 
ATOM     19  C   UNL     1      -4.343  -2.133  24.069  0.00  0.00    +0.141 A 
ATOM     20  F   UNL     1      -4.981  -1.612  24.009  0.00  0.00    -0.204 F 
ATOM     21  C   UNL     1      -3.650  -1.895  24.446  0.00  0.00    +0.046 A 
ENDBRANCH  14  15
ENDBRANCH  10  11
BRANCH   3   2
ATOM      1  C   UNL     1       0.207   2.919  26.383  0.00  0.00    +0.010 C 
ATOM      2  C   UNL     1      -0.227   2.860  25.683  0.00  0.00    +0.081 C 
BRANCH   2  27
ATOM     27  C   UNL     1      -0.710   3.486  25.445  0.00  0.00    +0.241 C 
ATOM     28  O   UNL     1      -0.389   4.114  25.016  0.00  0.00    -0.273 OA
ATOM     29  N   UNL     1      -1.513   3.483  25.635  0.00  0.00    -0.197 NA
BRANCH  29  30
ATOM     30  C   UNL     1      -1.995   4.107  25.396  0.00  0.00    +0.179 C 
BRANCH  30  31
ATOM     31  C   UNL     1      -2.816   4.025  25.412  0.00  0.00    +0.145 A 
ATOM     32  C   UNL     1      -3.305   3.919  24.755  0.00  0.00    +0.038 A 
ATOM     33  C   UNL     1      -4.083   3.862  25.025  0.00  0.00    +0.043 A 
ATOM     34  C   UNL     1      -4.074   3.934  25.848  0.00  0.00    +0.179 A 
ATOM     35  O   UNL     1      -3.291   4.034  26.086  0.00  0.00    -0.453 OA
ENDBRANCH  30  31
ENDBRANCH  29  30
ENDBRANCH   2  27
ENDBRANCH   3   2
TORSDOF 6
ENDMDL
MODEL 4
REMARK VINA RESULT:     -11.8      3.528      5.684
REMARK  Name = 
REMARK  6 active torsions:
REMARK  status: ('A' for Active; 'I' for Inactive)
REMARK    1  A    between atoms: C_2  and  C_3
REMARK    2  A    between atoms: C_2  and  C_27
REMARK    3  A    between atoms: C_10  and  N_11
REMARK    4  A    between atoms: N_14  and  C_15
REMARK    5  A    between atoms: N_29  and  C_30
REMARK    6  A    between atoms: C_30  and  C_31
REMARK                            x       y       z     vdW  Elec       q    Type
REMARK                         _______ _______ _______ _____ _____    ______ ____
ROOT
ATOM      3  C   UNL     1      -1.947   0.473  24.806  0.00  0.00    +0.039 C 
ATOM      4  C   UNL     1      -1.849   1.262  25.030  0.00  0.00    +0.003 C 
ATOM      5  C   UNL     1      -1.168   1.671  24.811  0.00  0.00    +0.000 C 
ATOM      6  C   UNL     1      -0.584   1.294  24.368  0.00  0.00    +0.002 C 
ATOM      7  C   UNL     1      -0.487   2.081  24.592  0.00  0.00    +0.000 C 
ATOM      8  C   UNL     1       0.098   1.703  24.148  0.00  0.00    +0.002 C 
ATOM      9  C   UNL     1       0.681   1.326  23.705  0.00  0.00    +0.022 C 
ATOM     10  C   UNL     1       0.583   0.537  23.481  0.00  0.00    +0.097 C 
ATOM     22  C   UNL     1      -0.098   0.127  23.700  0.00  0.00    +0.023 C 
ATOM     23  C   UNL     1      -0.195  -0.661  23.476  0.00  0.00    +0.002 C 
ATOM     24  C   UNL     1      -0.682   0.505  24.144  0.00  0.00    +0.032 C 
ATOM     25  C   UNL     1      -1.363   0.095  24.363  0.00  0.00    +0.152 C 
ATOM     26  O   UNL     1      -1.461  -0.693  24.139  0.00  0.00    -0.223 OA
ENDROOT
BRANCH  10  11
ATOM     11  N   UNL     1       1.168   0.159  23.037  0.00  0.00    -0.189 NA
ATOM     12  C   UNL     1       1.963   0.334  23.167  0.00  0.00    +0.343 C 
ATOM     13  O   UNL     1       2.175   0.888  23.742  0.00  0.00    -0.249 OA
ATOM     14  N   UNL     1       2.547  -0.043  22.723  0.00  0.00    -0.161 NA
BRANCH  14  15
ATOM     15  C   UNL     1       3.342   0.132  22.854  0.00  0.00    +0.077 A 
ATOM     16  C   UNL     1       3.669   0.823  22.542  0.00  0.00    +0.017 A 
ATOM     17  C   UNL     1       4.465   0.998  22.673  0.00  0.00    +0.004 A 
ATOM     18  C   UNL     1       4.934   0.483  23.114  0.00  0.00    +0.030 A 
ATOM     19  C   UNL     1       4.607  -0.208  23.425  0.00  0.00    +0.141 A 
ATOM     20  F   UNL     1       5.077  -0.723  23.867  0.00  0.00    -0.204 F 
ATOM     21  C   UNL     1       3.812  -0.383  23.295  0.00  0.00    +0.046 A 
ENDBRANCH  14  15
ENDBRANCH  10  11
BRANCH   3   2
ATOM      1  C   UNL     1      -2.587  -0.534  25.593  0.00  0.00    +0.010 C 
ATOM      2  C   UNL     1      -2.628   0.064  25.026  0.00  0.00    +0.081 C 
BRANCH   2  27
ATOM     27  C   UNL     1      -3.352   0.252  24.678  0.00  0.00    +0.241 C 
ATOM     28  O   UNL     1      -3.552  -0.065  23.943  0.00  0.00    -0.273 OA
ATOM     29  N   UNL     1      -3.877   0.759  25.066  0.00  0.00    -0.197 NA
BRANCH  29  30
ATOM     30  C   UNL     1      -4.600   0.947  24.719  0.00  0.00    +0.179 C 
BRANCH  30  31
ATOM     31  C   UNL     1      -5.087   1.517  25.063  0.00  0.00    +0.145 A 
ATOM     32  C   UNL     1      -5.226   2.277  24.772  0.00  0.00    +0.038 A 
ATOM     33  C   UNL     1      -5.746   2.656  25.288  0.00  0.00    +0.043 A 
ATOM     34  C   UNL     1      -5.929   2.130  25.898  0.00  0.00    +0.179 A 
ATOM     35  O   UNL     1      -5.522   1.426  25.758  0.00  0.00    -0.453 OA
ENDBRANCH  30  31
ENDBRANCH  29  30
ENDBRANCH   2  27
ENDBRANCH   3   2
TORSDOF 6
ENDMDL
MODEL 5
REMARK VINA RESULT:     -11.7      1.830      5.102
REMARK  Name = 
REMARK  6 active torsions:
REMARK  status: ('A' for Active; 'I' for Inactive)
REMARK    1  A    between atoms: C_2  and  C_3
REMARK    2  A    between atoms: C_2  and  C_27
REMARK    3  A    between atoms: C_10  and  N_11
REMARK    4  A    between atoms: N_14  and  C_15
REMARK    5  A    between atoms: N_29  and  C_30
REMARK    6  A    between atoms: C_30  and  C_31
REMARK                            x       y       z     vdW  Elec       q    Type
REMARK                         _______ _______ _______ _____ _____    ______ ____
ROOT
ATOM      3  C   UNL     1      -4.203  -0.696  24.390  0.00  0.00    +0.039 C 
ATOM      4  C   UNL     1      -4.727  -0.627  25.024  0.00  0.00    +0.003 C 
ATOM      5  C   UNL     1      -4.924   0.118  25.317  0.00  0.00    +0.000 C 
ATOM      6  C   UNL     1      -4.597   0.794  24.977  0.00  0.00    +0.002 C 
ATOM      7  C   UNL     1      -5.120   0.863  25.610  0.00  0.00    +0.000 C 
ATOM      8  C   UNL     1      -4.794   1.540  25.269  0.00  0.00    +0.002 C 
ATOM      9  C   UNL     1      -4.468   2.217  24.929  0.00  0.00    +0.022 C 
ATOM     10  C   UNL     1      -3.944   2.148  24.294  0.00  0.00    +0.097 C 
ATOM     22  C   UNL     1      -3.747   1.402  24.001  0.00  0.00    +0.023 C 
ATOM     23  C   UNL     1      -3.223   1.333  23.368  0.00  0.00    +0.002 C 
ATOM     24  C   UNL     1      -4.073   0.725  24.342  0.00  0.00    +0.032 C 
ATOM     25  C   UNL     1      -3.876  -0.020  24.049  0.00  0.00    +0.152 C 
ATOM     26  O   UNL     1      -3.353  -0.089  23.416  0.00  0.00    -0.223 OA
ENDROOT
BRANCH  10  11
ATOM     11  N   UNL     1      -3.618   2.825  23.953  0.00  0.00    -0.189 NA
ATOM     12  C   UNL     1      -3.065   3.272  24.371  0.00  0.00    +0.343 C 
ATOM     13  O   UNL     1      -2.838   3.042  25.131  0.00  0.00    -0.249 OA
ATOM     14  N   UNL     1      -2.739   3.949  24.031  0.00  0.00    -0.161 NA
BRANCH  14  15
ATOM     15  C   UNL     1      -2.187   4.396  24.448  0.00  0.00    +0.077 A 
ATOM     16  C   UNL     1      -2.430   5.065  24.868  0.00  0.00    +0.017 A 
ATOM     17  C   UNL     1      -1.877   5.513  25.286  0.00  0.00    +0.004 A 
ATOM     18  C   UNL     1      -1.082   5.293  25.285  0.00  0.00    +0.030 A 
ATOM     19  C   UNL     1      -0.839   4.624  24.865  0.00  0.00    +0.141 A 
ATOM     20  F   UNL     1      -0.044   4.404  24.865  0.00  0.00    -0.204 F 
ATOM     21  C   UNL     1      -1.391   4.177  24.448  0.00  0.00    +0.046 A 
ENDBRANCH  14  15
ENDBRANCH  10  11
BRANCH   3   2
ATOM      1  C   UNL     1      -4.362  -1.723  23.408  0.00  0.00    +0.010 C 
ATOM      2  C   UNL     1      -4.006  -1.442  24.097  0.00  0.00    +0.081 C 
BRANCH   2  27
ATOM     27  C   UNL     1      -3.453  -1.908  24.495  0.00  0.00    +0.241 C 
ATOM     28  O   UNL     1      -3.705  -2.480  25.033  0.00  0.00    -0.273 OA
ATOM     29  N   UNL     1      -2.646  -1.801  24.354  0.00  0.00    -0.197 NA
BRANCH  29  30
ATOM     30  C   UNL     1      -2.093  -2.266  24.751  0.00  0.00    +0.179 C 
BRANCH  30  31
ATOM     31  C   UNL     1      -1.317  -2.002  24.837  0.00  0.00    +0.145 A 
ATOM     32  C   UNL     1      -0.932  -1.848  25.551  0.00  0.00    +0.038 A 
ATOM     33  C   UNL     1      -0.166  -1.596  25.378  0.00  0.00    +0.043 A 
ATOM     34  C   UNL     1      -0.077  -1.593  24.557  0.00  0.00    +0.179 A 
ATOM     35  O   UNL     1      -0.788  -1.844  24.223  0.00  0.00    -0.453 OA
ENDBRANCH  30  31
ENDBRANCH  29  30
ENDBRANCH   2  27
ENDBRANCH   3   2
TORSDOF 6
ENDMDL
MODEL 6
REMARK VINA RESULT:     -11.4      2.713      4.509
REMARK  Name = 
REMARK  6 active torsions:
REMARK  status: ('A' for Active; 'I' for Inactive)
REMARK    1  A    between atoms: C_2  and  C_3
REMARK    2  A    between atoms: C_2  and  C_27
REMARK    3  A    between atoms: C_10  and  N_11
REMARK    4  A    between atoms: N_14  and  C_15
REMARK    5  A    between atoms: N_29  and  C_30
REMARK    6  A    between atoms: C_30  and  C_31
REMARK                            x       y       z     vdW  Elec       q    Type
REMARK                         _______ _______ _______ _____ _____    ______ ____
ROOT
ATOM      3  C   UNL     1      -2.496   3.437  24.962  0.00  0.00    +0.039 C 
ATOM      4  C   UNL     1      -2.023   3.789  25.541  0.00  0.00    +0.003 C 
ATOM      5  C   UNL     1      -1.306   3.442  25.753  0.00  0.00    +0.000 C 
ATOM      6  C   UNL     1      -1.061   2.744  25.388  0.00  0.00    +0.002 C 
ATOM      7  C   UNL     1      -0.588   3.095  25.965  0.00  0.00    +0.000 C 
ATOM      8  C   UNL     1      -0.343   2.397  25.601  0.00  0.00    +0.002 C 
ATOM      9  C   UNL     1      -0.098   1.699  25.236  0.00  0.00    +0.022 C 
ATOM     10  C   UNL     1      -0.572   1.348  24.658  0.00  0.00    +0.097 C 
ATOM     22  C   UNL     1      -1.289   1.694  24.445  0.00  0.00    +0.023 C 
ATOM     23  C   UNL     1      -1.761   1.343  23.868  0.00  0.00    +0.002 C 
ATOM     24  C   UNL     1      -1.534   2.393  24.810  0.00  0.00    +0.032 C 
ATOM     25  C   UNL     1      -2.251   2.740  24.598  0.00  0.00    +0.152 C 
ATOM     26  O   UNL     1      -2.724   2.388  24.020  0.00  0.00    -0.223 OA
ENDROOT
BRANCH  10  11
ATOM     11  N   UNL     1      -0.326   0.649  24.293  0.00  0.00    -0.189 NA
ATOM     12  C   UNL     1       0.346   0.647  23.815  0.00  0.00    +0.343 C 
ATOM     13  O   UNL     1       0.773   1.344  23.701  0.00  0.00    -0.249 OA
ATOM     14  N   UNL     1       0.591  -0.051  23.450  0.00  0.00    -0.161 NA
BRANCH  14  15
ATOM     15  C   UNL     1       1.263  -0.053  22.972  0.00  0.00    +0.077 A 
ATOM     16  C   UNL     1       2.004   0.099  23.302  0.00  0.00    +0.017 A 
ATOM     17  C   UNL     1       2.676   0.097  22.823  0.00  0.00    +0.004 A 
ATOM     18  C   UNL     1       2.608  -0.058  22.016  0.00  0.00    +0.030 A 
ATOM     19  C   UNL     1       1.866  -0.210  21.686  0.00  0.00    +0.141 A 
ATOM     20  F   UNL     1       1.798  -0.364  20.878  0.00  0.00    -0.204 F 
ATOM     21  C   UNL     1       1.194  -0.208  22.164  0.00  0.00    +0.046 A 
ENDBRANCH  14  15
ENDBRANCH  10  11
BRANCH   3   2
ATOM      1  C   UNL     1      -3.287   4.173  24.026  0.00  0.00    +0.010 C 
ATOM      2  C   UNL     1      -3.214   3.785  24.750  0.00  0.00    +0.081 C 
BRANCH   2  27
ATOM     27  C   UNL     1      -3.859   3.744  25.263  0.00  0.00    +0.241 C 
ATOM     28  O   UNL     1      -3.882   4.224  25.935  0.00  0.00    -0.273 OA
ATOM     29  N   UNL     1      -4.480   3.225  25.105  0.00  0.00    -0.197 NA
BRANCH  29  30
ATOM     30  C   UNL     1      -5.124   3.184  25.617  0.00  0.00    +0.179 C 
BRANCH  30  31
ATOM     31  C   UNL     1      -5.656   2.556  25.563  0.00  0.00    +0.145 A 
ATOM     32  C   UNL     1      -5.845   2.027  26.168  0.00  0.00    +0.038 A 
ATOM     33  C   UNL     1      -6.399   1.491  25.872  0.00  0.00    +0.043 A 
ATOM     34  C   UNL     1      -6.552   1.689  25.086  0.00  0.00    +0.179 A 
ATOM     35  O   UNL     1      -6.093   2.348  24.895  0.00  0.00    -0.453 OA
ENDBRANCH  30  31
ENDBRANCH  29  30
ENDBRANCH   2  27
ENDBRANCH   3   2
TORSDOF 6
ENDMDL
MODEL 7
REMARK VINA RESULT:     -11.4      1.745      3.533
REMARK  Name = 
REMARK  6 active torsions:
REMARK  status: ('A' for Active; 'I' for Inactive)
REMARK    1  A    between atoms: C_2  and  C_3
REMARK    2  A    between atoms: C_2  and  C_27
REMARK    3  A    between atoms: C_10  and  N_11
REMARK    4  A    between atoms: N_14  and  C_15
REMARK    5  A    between atoms: N_29  and  C_30
REMARK    6  A    between atoms: C_30  and  C_31
REMARK                            x       y       z     vdW  Elec       q    Type
REMARK                         _______ _______ _______ _____ _____    ______ ____
ROOT
ATOM      3  C   UNL     1      -2.412   3.683  25.122  0.00  0.00    +0.039 C 
ATOM      4  C   UNL     1      -1.956   3.924  25.767  0.00  0.00    +0.003 C 
ATOM      5  C   UNL     1      -1.294   3.486  25.990  0.00  0.00    +0.000 C 
ATOM      6  C   UNL     1      -1.088   2.807  25.571  0.00  0.00    +0.002 C 
ATOM      7  C   UNL     1      -0.633   3.048  26.214  0.00  0.00    +0.000 C 
ATOM      8  C   UNL     1      -0.426   2.368  25.794  0.00  0.00    +0.002 C 
ATOM      9  C   UNL     1      -0.220   1.689  25.374  0.00  0.00    +0.022 C 
ATOM     10  C   UNL     1      -0.677   1.448  24.729  0.00  0.00    +0.097 C 
ATOM     22  C   UNL     1      -1.338   1.886  24.506  0.00  0.00    +0.023 C 
ATOM     23  C   UNL     1      -1.795   1.645  23.862  0.00  0.00    +0.002 C 
ATOM     24  C   UNL     1      -1.545   2.566  24.926  0.00  0.00    +0.032 C 
ATOM     25  C   UNL     1      -2.207   3.004  24.703  0.00  0.00    +0.152 C 
ATOM     26  O   UNL     1      -2.663   2.763  24.059  0.00  0.00    -0.223 OA
ENDROOT
BRANCH  10  11
ATOM     11  N   UNL     1      -0.470   0.768  24.309  0.00  0.00    -0.189 NA
ATOM     12  C   UNL     1      -0.691   0.026  24.591  0.00  0.00    +0.343 C 
ATOM     13  O   UNL     1      -1.119  -0.038  25.295  0.00  0.00    -0.249 OA
ATOM     14  N   UNL     1      -0.484  -0.654  24.171  0.00  0.00    -0.161 NA
BRANCH  14  15
ATOM     15  C   UNL     1      -0.705  -1.397  24.453  0.00  0.00    +0.077 A 
ATOM     16  C   UNL     1      -0.230  -1.786  25.006  0.00  0.00    +0.017 A 
ATOM     17  C   UNL     1      -0.451  -2.529  25.288  0.00  0.00    +0.004 A 
ATOM     18  C   UNL     1      -1.145  -2.883  25.018  0.00  0.00    +0.030 A 
ATOM     19  C   UNL     1      -1.620  -2.494  24.466  0.00  0.00    +0.141 A 
ATOM     20  F   UNL     1      -2.315  -2.849  24.197  0.00  0.00    -0.204 F 
ATOM     21  C   UNL     1      -1.400  -1.751  24.184  0.00  0.00    +0.046 A 
ENDBRANCH  14  15
ENDBRANCH  10  11
BRANCH   3   2
ATOM      1  C   UNL     1      -3.043   4.609  24.234  0.00  0.00    +0.010 C 
ATOM      2  C   UNL     1      -3.075   4.122  24.899  0.00  0.00    +0.081 C 
BRANCH   2  27
ATOM     27  C   UNL     1      -3.769   4.075  25.343  0.00  0.00    +0.241 C 
ATOM     28  O   UNL     1      -3.862   4.545  26.015  0.00  0.00    -0.273 OA
ATOM     29  N   UNL     1      -4.370   3.557  25.114  0.00  0.00    -0.197 NA
BRANCH  29  30
ATOM     30  C   UNL     1      -5.064   3.510  25.556  0.00  0.00    +0.179 C 
BRANCH  30  31
ATOM     31  C   UNL     1      -5.539   2.838  25.508  0.00  0.00    +0.145 A 
ATOM     32  C   UNL     1      -5.809   2.387  26.145  0.00  0.00    +0.038 A 
ATOM     33  C   UNL     1      -6.265   1.769  25.844  0.00  0.00    +0.043 A 
ATOM     34  C   UNL     1      -6.277   1.838  25.021  0.00  0.00    +0.179 A 
ATOM     35  O   UNL     1      -5.829   2.498  24.814  0.00  0.00    -0.453 OA
ENDBRANCH  30  31
ENDBRANCH  29  30
ENDBRANCH   2  27
ENDBRANCH   3   2
TORSDOF 6
ENDMDL
MODEL 8
REMARK VINA RESULT:     -11.4      2.369      6.294
REMARK  Name = 
REMARK  6 active torsions:
REMARK  status: ('A' for Active; 'I' for Inactive)
REMARK    1  A    between atoms: C_2  and  C_3
REMARK    2  A    between atoms: C_2  and  C_27
REMARK    3  A    between atoms: C_10  and  N_11
REMARK    4  A    between atoms: N_14  and  C_15
REMARK    5  A    between atoms: N_29  and  C_30
REMARK    6  A    between atoms: C_30  and  C_31
REMARK                            x       y       z     vdW  Elec       q    Type
REMARK                         _______ _______ _______ _____ _____    ______ ____
ROOT
ATOM      3  C   UNL     1      -0.596  -1.113  24.604  0.00  0.00    +0.039 C 
ATOM      4  C   UNL     1      -0.281  -1.095  23.840  0.00  0.00    +0.003 C 
ATOM      5  C   UNL     1       0.015  -0.389  23.533  0.00  0.00    +0.000 C 
ATOM      6  C   UNL     1      -0.003   0.298  23.988  0.00  0.00    +0.002 C 
ATOM      7  C   UNL     1       0.311   0.316  23.226  0.00  0.00    +0.000 C 
ATOM      8  C   UNL     1       0.293   1.004  23.681  0.00  0.00    +0.002 C 
ATOM      9  C   UNL     1       0.275   1.692  24.135  0.00  0.00    +0.022 C 
ATOM     10  C   UNL     1      -0.040   1.674  24.899  0.00  0.00    +0.097 C 
ATOM     22  C   UNL     1      -0.336   0.968  25.206  0.00  0.00    +0.023 C 
ATOM     23  C   UNL     1      -0.650   0.950  25.968  0.00  0.00    +0.002 C 
ATOM     24  C   UNL     1      -0.318   0.280  24.751  0.00  0.00    +0.032 C 
ATOM     25  C   UNL     1      -0.614  -0.425  25.058  0.00  0.00    +0.152 C 
ATOM     26  O   UNL     1      -0.928  -0.443  25.821  0.00  0.00    -0.223 OA
ENDROOT
BRANCH  10  11
ATOM     11  N   UNL     1      -0.057   2.362  25.353  0.00  0.00    -0.189 NA
ATOM     12  C   UNL     1      -0.568   2.977  25.152  0.00  0.00    +0.343 C 
ATOM     13  O   UNL     1      -1.063   2.904  24.495  0.00  0.00    -0.249 OA
ATOM     14  N   UNL     1      -0.586   3.665  25.607  0.00  0.00    -0.161 NA
BRANCH  14  15
ATOM     15  C   UNL     1      -1.097   4.280  25.405  0.00  0.00    +0.077 A 
ATOM     16  C   UNL     1      -0.819   4.921  24.964  0.00  0.00    +0.017 A 
ATOM     17  C   UNL     1      -1.330   5.536  24.762  0.00  0.00    +0.004 A 
ATOM     18  C   UNL     1      -2.119   5.512  25.002  0.00  0.00    +0.030 A 
ATOM     19  C   UNL     1      -2.397   4.872  25.443  0.00  0.00    +0.141 A 
ATOM     20  F   UNL     1      -3.187   4.848  25.682  0.00  0.00    -0.204 F 
ATOM     21  C   UNL     1      -1.886   4.257  25.644  0.00  0.00    +0.046 A 
ENDBRANCH  14  15
ENDBRANCH  10  11
BRANCH   3   2
ATOM      1  C   UNL     1      -0.504  -2.194  25.535  0.00  0.00    +0.010 C 
ATOM      2  C   UNL     1      -0.892  -1.819  24.910  0.00  0.00    +0.081 C 
BRANCH   2  27
ATOM     27  C   UNL     1      -1.577  -2.151  24.593  0.00  0.00    +0.241 C 
ATOM     28  O   UNL     1      -1.522  -2.772  24.051  0.00  0.00    -0.273 OA
ATOM     29  N   UNL     1      -2.318  -1.863  24.816  0.00  0.00    -0.197 NA
BRANCH  29  30
ATOM     30  C   UNL     1      -3.002  -2.195  24.499  0.00  0.00    +0.179 C 
BRANCH  30  31
ATOM     31  C   UNL     1      -3.681  -1.735  24.409  0.00  0.00    +0.145 A 
ATOM     32  C   UNL     1      -4.169  -1.714  23.743  0.00  0.00    +0.038 A 
ATOM     33  C   UNL     1      -4.780  -1.181  23.893  0.00  0.00    +0.043 A 
ATOM     34  C   UNL     1      -4.670  -0.871  24.650  0.00  0.00    +0.179 A 
ATOM     35  O   UNL     1      -3.991  -1.214  24.969  0.00  0.00    -0.453 OA
ENDBRANCH  30  31
ENDBRANCH  29  30
ENDBRANCH   2  27
ENDBRANCH   3   2
TORSDOF 6
ENDMDL
MODEL 9
REMARK VINA RESULT:     -11.2      2.277      5.346
REMARK  Name = 
REMARK  6 active torsions:
REMARK  status: ('A' for Active; 'I' for Inactive)
REMARK    1  A    between atoms: C_2  and  C_3
REMARK    2  A    between atoms: C_2  and  C_27
REMARK    3  A    between atoms: C_10  and  N_11
REMARK    4  A    between atoms: N_14  and  C_15
REMARK    5  A    between atoms: N_29  and  C_30
REMARK    6  A    between atoms: C_30  and  C_31
REMARK                            x       y       z     vdW  Elec       q    Type
REMARK                         _______ _______ _______ _____ _____    ______ ____
ROOT
ATOM      3  C   UNL     1      -0.224   0.671  24.206  0.00  0.00    +0.039 C 
ATOM      4  C   UNL     1       0.246   0.986  24.808  0.00  0.00    +0.003 C 
ATOM      5  C   UNL     1       0.025   1.689  25.177  0.00  0.00    +0.000 C 
ATOM      6  C   UNL     1      -0.664   2.078  24.946  0.00  0.00    +0.002 C 
ATOM      7  C   UNL     1      -0.195   2.392  25.547  0.00  0.00    +0.000 C 
ATOM      8  C   UNL     1      -0.885   2.782  25.316  0.00  0.00    +0.002 C 
ATOM      9  C   UNL     1      -1.575   3.171  25.085  0.00  0.00    +0.022 C 
ATOM     10  C   UNL     1      -2.044   2.856  24.483  0.00  0.00    +0.097 C 
ATOM     22  C   UNL     1      -1.824   2.153  24.114  0.00  0.00    +0.023 C 
ATOM     23  C   UNL     1      -2.293   1.838  23.512  0.00  0.00    +0.002 C 
ATOM     24  C   UNL     1      -1.134   1.763  24.344  0.00  0.00    +0.032 C 
ATOM     25  C   UNL     1      -0.913   1.060  23.975  0.00  0.00    +0.152 C 
ATOM     26  O   UNL     1      -1.383   0.745  23.374  0.00  0.00    -0.223 OA
ENDROOT
BRANCH  10  11
ATOM     11  N   UNL     1      -2.734   3.245  24.252  0.00  0.00    -0.189 NA
ATOM     12  C   UNL     1      -3.426   3.155  24.691  0.00  0.00    +0.343 C 
ATOM     13  O   UNL     1      -3.429   2.674  25.363  0.00  0.00    -0.249 OA
ATOM     14  N   UNL     1      -4.116   3.544  24.461  0.00  0.00    -0.161 NA
BRANCH  14  15
ATOM     15  C   UNL     1      -4.808   3.454  24.899  0.00  0.00    +0.077 A 
ATOM     16  C   UNL     1      -5.051   4.052  25.415  0.00  0.00    +0.017 A 
ATOM     17  C   UNL     1      -5.744   3.961  25.854  0.00  0.00    +0.004 A 
ATOM     18  C   UNL     1      -6.193   3.274  25.779  0.00  0.00    +0.030 A 
ATOM     19  C   UNL     1      -5.950   2.676  25.263  0.00  0.00    +0.141 A 
ATOM     20  F   UNL     1      -6.400   1.988  25.189  0.00  0.00    -0.204 F 
ATOM     21  C   UNL     1      -5.258   2.766  24.825  0.00  0.00    +0.046 A 
ENDBRANCH  14  15
ENDBRANCH  10  11
BRANCH   3   2
ATOM      1  C   UNL     1       0.343  -0.016  23.087  0.00  0.00    +0.010 C 
ATOM      2  C   UNL     1      -0.003  -0.033  23.836  0.00  0.00    +0.081 C 
BRANCH   2  27
ATOM     27  C   UNL     1      -0.128  -0.754  24.216  0.00  0.00    +0.241 C 
ATOM     28  O   UNL     1       0.488  -1.117  24.628  0.00  0.00    -0.273 OA
ATOM     29  N   UNL     1      -0.871  -1.114  24.183  0.00  0.00    -0.197 NA
BRANCH  29  30
ATOM     30  C   UNL     1      -0.996  -1.835  24.562  0.00  0.00    +0.179 C 
BRANCH  30  31
ATOM     31  C   UNL     1      -1.755  -2.156  24.600  0.00  0.00    +0.145 A 
ATOM     32  C   UNL     1      -2.324  -1.990  25.174  0.00  0.00    +0.038 A 
ATOM     33  C   UNL     1      -2.999  -2.431  24.997  0.00  0.00    +0.043 A 
ATOM     34  C   UNL     1      -2.847  -2.869  24.315  0.00  0.00    +0.179 A 
ATOM     35  O   UNL     1      -2.078  -2.699  24.069  0.00  0.00    -0.453 OA
ENDBRANCH  30  31
ENDBRANCH  29  30
ENDBRANCH   2  27
ENDBRANCH   3   2
TORSDOF 6
ENDMDL
MODEL 10
REMARK VINA RESULT:      -9.0     14.073     16.131
REMARK  Name = 
REMARK  6 active torsions:
REMARK  status: ('A' for Active; 'I' for Inactive)
REMARK    1  A    between atoms: C_2  and  C_3
REMARK    2  A    between atoms: C_2  and  C_27
REMARK    3  A    between atoms: C_10  and  N_11
REMARK    4  A    between atoms: N_14  and  C_15
REMARK    5  A    between atoms: N_29  and  C_30
REMARK    6  A    between atoms: C_30  and  C_31
REMARK                            x       y       z     vdW  Elec       q    Type
REMARK                         _______ _______ _______ _____ _____    ______ ____
ROOT
ATOM      3  C   UNL     1      -7.246 -10.133  16.188  0.00  0.00    +0.039 C 
ATOM      4  C   UNL     1      -6.543 -10.004  16.601  0.00  0.00    +0.003 C 
ATOM      5  C   UNL     1      -5.821 -10.029  16.203  0.00  0.00    +0.000 C 
ATOM      6  C   UNL     1      -5.801 -10.181  15.393  0.00  0.00    +0.002 C 
ATOM      7  C   UNL     1      -5.099 -10.053  15.805  0.00  0.00    +0.000 C 
ATOM      8  C   UNL     1      -5.079 -10.206  14.995  0.00  0.00    +0.002 C 
ATOM      9  C   UNL     1      -5.060 -10.359  14.185  0.00  0.00    +0.022 C 
ATOM     10  C   UNL     1      -5.763 -10.488  13.772  0.00  0.00    +0.097 C 
ATOM     22  C   UNL     1      -6.485 -10.463  14.170  0.00  0.00    +0.023 C 
ATOM     23  C   UNL     1      -7.188 -10.591  13.757  0.00  0.00    +0.002 C 
ATOM     24  C   UNL     1      -6.505 -10.310  14.980  0.00  0.00    +0.032 C 
ATOM     25  C   UNL     1      -7.227 -10.285  15.378  0.00  0.00    +0.152 C 
ATOM     26  O   UNL     1      -7.929 -10.414  14.966  0.00  0.00    -0.223 OA
ENDROOT
BRANCH  10  11
ATOM     11  N   UNL     1      -5.743 -10.640  12.961  0.00  0.00    -0.189 NA
ATOM     12  C   UNL     1      -5.231 -10.217  12.474  0.00  0.00    +0.343 C 
ATOM     13  O   UNL     1      -4.737  -9.639  12.797  0.00  0.00    -0.249 OA
ATOM     14  N   UNL     1      -5.210 -10.370  11.663  0.00  0.00    -0.161 NA
BRANCH  14  15
ATOM     15  C   UNL     1      -4.698  -9.947  11.176  0.00  0.00    +0.077 A 
ATOM     16  C   UNL     1      -3.935 -10.231  11.033  0.00  0.00    +0.017 A 
ATOM     17  C   UNL     1      -3.423  -9.807  10.545  0.00  0.00    +0.004 A 
ATOM     18  C   UNL     1      -3.671  -9.100  10.200  0.00  0.00    +0.030 A 
ATOM     19  C   UNL     1      -4.433  -8.816  10.343  0.00  0.00    +0.141 A 
ATOM     20  F   UNL     1      -4.681  -8.109   9.997  0.00  0.00    -0.204 F 
ATOM     21  C   UNL     1      -4.946  -9.240  10.830  0.00  0.00    +0.046 A 
ENDBRANCH  14  15
ENDBRANCH  10  11
BRANCH   3   2
ATOM      1  C   UNL     1      -8.444 -10.781  16.624  0.00  0.00    +0.010 C 
ATOM      2  C   UNL     1      -7.968 -10.108  16.587  0.00  0.00    +0.081 C 
BRANCH   2  27
ATOM     27  C   UNL     1      -8.215  -9.409  16.949  0.00  0.00    +0.241 C 
ATOM     28  O   UNL     1      -7.845  -9.149  17.640  0.00  0.00    -0.273 OA
ATOM     29  N   UNL     1      -8.832  -8.969  16.621  0.00  0.00    -0.197 NA
BRANCH  29  30
ATOM     30  C   UNL     1      -9.079  -8.271  16.982  0.00  0.00    +0.179 C 
BRANCH  30  31
ATOM     31  C   UNL     1      -9.657  -7.803  16.626  0.00  0.00    +0.145 A 
ATOM     32  C   UNL     1     -10.276  -7.418  17.013  0.00  0.00    +0.038 A 
ATOM     33  C   UNL     1     -10.719  -7.015  16.445  0.00  0.00    +0.043 A 
ATOM     34  C   UNL     1     -10.374  -7.151  15.708  0.00  0.00    +0.179 A 
ATOM     35  O   UNL     1      -9.718  -7.638  15.819  0.00  0.00    -0.453 OA
ENDBRANCH  30  31
ENDBRANCH  29  30
ENDBRANCH   2  27
ENDBRANCH   3   2
TORSDOF 6
ENDMDL
