MODEL 1
REMARK VINA RESULT:     -12.7      0.000      0.000
REMARK  Name = 
REMARK  5 active torsions:
REMARK  status: ('A' for Active; 'I' for Inactive)
REMARK    1  A    between atoms: C_4  and  C_14
REMARK    2  A    between atoms: N_5  and  C_6
REMARK    3  A    between atoms: C_6  and  C_7
REMARK    4  A    between atoms: C_16  and  C_17
REMARK    5  A    between atoms: C_17  and  C_18
REMARK                            x       y       z     vdW  Elec       q    Type
REMARK                         _______ _______ _______ _____ _____    ______ ____
ROOT
ATOM     14  C   UNL     1      -4.017   2.784  24.706  0.00  0.00    +0.251 A 
ATOM     15  N   UNL     1      -3.542   3.094  25.306  0.00  0.00    -0.193 NA
ATOM     16  C   UNL     1      -2.987   3.595  24.957  0.00  0.00    +0.185 A 
ATOM     26  N   UNL     1      -3.118   3.595  24.143  0.00  0.00    -0.060 NA
ATOM     27  O   UNL     1      -3.754   3.094  23.988  0.00  0.00    -0.336 OA
ENDROOT
BRANCH  14   4
ATOM      1  O   UNL     1      -6.660   1.708  25.243  0.00  0.00    -0.222 OA
ATOM      2  C   UNL     1      -5.859   1.763  25.054  0.00  0.00    +0.170 C 
ATOM      3  C   UNL     1      -5.417   2.459  25.014  0.00  0.00    +0.060 C 
ATOM      4  C   UNL     1      -4.643   2.258  24.807  0.00  0.00    +0.140 C 
ATOM      5  N   UNL     1      -4.608   1.438  24.720  0.00  0.00    -0.260 NA
ATOM     13  C   UNL     1      -5.359   1.133  24.872  0.00  0.00    +0.106 C 
BRANCH   5   6
ATOM      6  C   UNL     1      -3.939   1.001  24.516  0.00  0.00    +0.100 C 
BRANCH   6   7
ATOM      7  C   UNL     1      -3.941   0.180  24.597  0.00  0.00    -0.006 A 
ATOM      8  C   UNL     1      -3.734  -0.165  25.317  0.00  0.00    -0.003 A 
ATOM      9  C   UNL     1      -3.737  -0.985  25.397  0.00  0.00    -0.000 A 
ATOM     10  C   UNL     1      -3.947  -1.462  24.757  0.00  0.00    -0.000 A 
ATOM     11  C   UNL     1      -4.154  -1.118  24.037  0.00  0.00    -0.000 A 
ATOM     12  C   UNL     1      -4.152  -0.296  23.956  0.00  0.00    -0.003 A 
ENDBRANCH   6   7
ENDBRANCH   5   6
ENDBRANCH  14   4
BRANCH  16  17
ATOM     17  C   UNL     1      -2.402   4.021  25.354  0.00  0.00    +0.096 C 
BRANCH  17  18
ATOM     18  C   UNL     1      -1.660   3.683  25.483  0.00  0.00    -0.004 A 
ATOM     19  C   UNL     1      -1.602   2.931  25.813  0.00  0.00    -0.001 A 
ATOM     20  C   UNL     1      -0.860   2.593  25.942  0.00  0.00    +0.029 A 
ATOM     21  C   UNL     1      -0.177   3.009  25.740  0.00  0.00    +0.141 A 
ATOM     22  F   UNL     1       0.565   2.672  25.868  0.00  0.00    -0.204 F 
ATOM     23  C   UNL     1      -0.236   3.763  25.409  0.00  0.00    +0.041 A 
ATOM     24  C   UNL     1      -0.977   4.099  25.280  0.00  0.00    +0.056 A 
ATOM     25 CL   UNL     1      -1.036   4.853  24.949  0.00  0.00    -0.082 Cl
ENDBRANCH  17  18
ENDBRANCH  16  17
TORSDOF 5
ENDMDL
MODEL 2
REMARK VINA RESULT:     -12.6      2.162      4.385
REMARK  Name = 
REMARK  5 active torsions:
REMARK  status: ('A' for Active; 'I' for Inactive)
REMARK    1  A    between atoms: C_4  and  C_14
REMARK    2  A    between atoms: N_5  and  C_6
REMARK    3  A    between atoms: C_6  and  C_7
REMARK    4  A    between atoms: C_16  and  C_17
REMARK    5  A    between atoms: C_17  and  C_18
REMARK                            x       y       z     vdW  Elec       q    Type
REMARK                         _______ _______ _______ _____ _____    ______ ____
ROOT
ATOM     14  C   UNL     1      -4.302   1.221  24.686  0.00  0.00    +0.251 A 
ATOM     15  N   UNL     1      -4.387   0.502  25.081  0.00  0.00    -0.193 NA
ATOM     16  C   UNL     1      -4.187  -0.102  24.556  0.00  0.00    +0.185 A 
ATOM     26  N   UNL     1      -3.978   0.243  23.837  0.00  0.00    -0.060 NA
ATOM     27  O   UNL     1      -4.049   1.061  23.917  0.00  0.00    -0.336 OA
ENDROOT
BRANCH  14   4
ATOM      1  O   UNL     1      -5.640   3.502  25.887  0.00  0.00    -0.222 OA
ATOM      2  C   UNL     1      -5.060   3.018  25.555  0.00  0.00    +0.170 C 
ATOM      3  C   UNL     1      -5.168   2.243  25.293  0.00  0.00    +0.060 C 
ATOM      4  C   UNL     1      -4.445   1.969  25.003  0.00  0.00    +0.140 C 
ATOM      5  N   UNL     1      -3.891   2.575  25.086  0.00  0.00    -0.260 NA
ATOM     13  C   UNL     1      -4.272   3.223  25.427  0.00  0.00    +0.106 C 
BRANCH   5   6
ATOM      6  C   UNL     1      -3.097   2.539  24.867  0.00  0.00    +0.100 C 
BRANCH   6   7
ATOM      7  C   UNL     1      -2.580   3.144  25.085  0.00  0.00    -0.006 A 
ATOM      8  C   UNL     1      -2.111   3.063  25.758  0.00  0.00    -0.003 A 
ATOM      9  C   UNL     1      -1.595   3.668  25.977  0.00  0.00    -0.000 A 
ATOM     10  C   UNL     1      -1.548   4.355  25.522  0.00  0.00    -0.000 A 
ATOM     11  C   UNL     1      -2.017   4.436  24.849  0.00  0.00    -0.000 A 
ATOM     12  C   UNL     1      -2.534   3.831  24.630  0.00  0.00    -0.003 A 
ENDBRANCH   6   7
ENDBRANCH   5   6
ENDBRANCH  14   4
BRANCH  16  17
ATOM     17  C   UNL     1      -4.194  -0.910  24.723  0.00  0.00    +0.096 C 
BRANCH  17  18
ATOM     18  C   UNL     1      -3.486  -1.335  24.740  0.00  0.00    -0.004 A 
ATOM     19  C   UNL     1      -2.820  -1.009  25.099  0.00  0.00    -0.001 A 
ATOM     20  C   UNL     1      -2.112  -1.433  25.116  0.00  0.00    +0.029 A 
ATOM     21  C   UNL     1      -2.073  -2.183  24.774  0.00  0.00    +0.141 A 
ATOM     22  F   UNL     1      -1.366  -2.608  24.790  0.00  0.00    -0.204 F 
ATOM     23  C   UNL     1      -2.741  -2.508  24.414  0.00  0.00    +0.041 A 
ATOM     24  C   UNL     1      -3.447  -2.084  24.397  0.00  0.00    +0.056 A 
ATOM     25 CL   UNL     1      -4.115  -2.409  24.038  0.00  0.00    -0.082 Cl
ENDBRANCH  17  18
ENDBRANCH  16  17
TORSDOF 5
ENDMDL
MODEL 3
REMARK VINA RESULT:     -12.6      2.339      3.501
REMARK  Name = 
REMARK  5 active torsions:
REMARK  status: ('A' for Active; 'I' for Inactive)
REMARK    1  A    between atoms: C_4  and  C_14
REMARK    2  A    between atoms: N_5  and  C_6
REMARK    3  A    between atoms: C_6  and  C_7
REMARK    4  A    between atoms: C_16  and  C_17
REMARK    5  A    between atoms: C_17  and  C_18
REMARK                            x       y       z     vdW  Elec       q    Type
REMARK                         _______ _______ _______ _____ _____    ______ ____
ROOT
ATOM     14  C   UNL     1      -2.311   1.246  23.962  0.00  0.00    +0.251 A 
ATOM     15  N   UNL     1      -2.517   1.861  24.472  0.00  0.00    -0.193 NA
ATOM     16  C   UNL     1      -2.967   2.405  24.045  0.00  0.00    +0.185 A 
ATOM     26  N   UNL     1      -3.039   2.127  23.272  0.00  0.00    -0.060 NA
ATOM     27  O   UNL     1      -2.634   1.411  23.220  0.00  0.00    -0.336 OA
ENDROOT
BRANCH  14   4
ATOM      1  O   UNL     1      -0.055  -0.530  24.401  0.00  0.00    -0.222 OA
ATOM      2  C   UNL     1      -0.824  -0.233  24.360  0.00  0.00    +0.170 C 
ATOM      3  C   UNL     1      -1.039   0.524  24.111  0.00  0.00    +0.060 C 
ATOM      4  C   UNL     1      -1.861   0.584  24.158  0.00  0.00    +0.140 C 
ATOM      5  N   UNL     1      -2.153  -0.136  24.436  0.00  0.00    -0.260 NA
ATOM     13  C   UNL     1      -1.512  -0.641  24.561  0.00  0.00    +0.106 C 
BRANCH   5   6
ATOM      6  C   UNL     1      -2.947  -0.319  24.566  0.00  0.00    +0.100 C 
BRANCH   6   7
ATOM      7  C   UNL     1      -3.174  -1.102  24.701  0.00  0.00    -0.006 A 
ATOM      8  C   UNL     1      -3.415  -1.576  24.071  0.00  0.00    -0.003 A 
ATOM      9  C   UNL     1      -3.641  -2.357  24.206  0.00  0.00    -0.000 A 
ATOM     10  C   UNL     1      -3.626  -2.665  24.972  0.00  0.00    -0.000 A 
ATOM     11  C   UNL     1      -3.385  -2.191  25.602  0.00  0.00    -0.000 A 
ATOM     12  C   UNL     1      -3.158  -1.408  25.467  0.00  0.00    -0.003 A 
ENDBRANCH   6   7
ENDBRANCH   5   6
ENDBRANCH  14   4
BRANCH  16  17
ATOM     17  C   UNL     1      -3.289   3.106  24.340  0.00  0.00    +0.096 C 
BRANCH  17  18
ATOM     18  C   UNL     1      -3.986   3.086  24.780  0.00  0.00    -0.004 A 
ATOM     19  C   UNL     1      -4.621   2.627  24.526  0.00  0.00    -0.001 A 
ATOM     20  C   UNL     1      -5.319   2.608  24.966  0.00  0.00    +0.029 A 
ATOM     21  C   UNL     1      -5.380   3.048  25.661  0.00  0.00    +0.141 A 
ATOM     22  F   UNL     1      -6.077   3.029  26.102  0.00  0.00    -0.204 F 
ATOM     23  C   UNL     1      -4.743   3.507  25.916  0.00  0.00    +0.041 A 
ATOM     24  C   UNL     1      -4.047   3.526  25.476  0.00  0.00    +0.056 A 
ATOM     25 CL   UNL     1      -3.410   3.986  25.730  0.00  0.00    -0.082 Cl
ENDBRANCH  17  18
ENDBRANCH  16  17
TORSDOF 5
ENDMDL
MODEL 4
REMARK VINA RESULT:     -12.5      2.139      2.972
REMARK  Name = 
REMARK  5 active torsions:
REMARK  status: ('A' for Active; 'I' for Inactive)
REMARK    1  A    between atoms: C_4  and  C_14
REMARK    2  A    between atoms: N_5  and  C_6
REMARK    3  A    between atoms: C_6  and  C_7
REMARK    4  A    between atoms: C_16  and  C_17
REMARK    5  A    between atoms: C_17  and  C_18
REMARK                            x       y       z     vdW  Elec       q    Type
REMARK                         _______ _______ _______ _____ _____    ______ ____
ROOT
ATOM     14  C   UNL     1      -1.816   1.000  24.559  0.00  0.00    +0.251 A 
ATOM     15  N   UNL     1      -1.825   1.486  25.225  0.00  0.00    -0.193 NA
ATOM     16  C   UNL     1      -2.191   2.195  25.017  0.00  0.00    +0.185 A 
ATOM     26  N   UNL     1      -2.408   2.149  24.223  0.00  0.00    -0.060 NA
ATOM     27  O   UNL     1      -2.176   1.410  23.939  0.00  0.00    -0.336 OA
ENDROOT
BRANCH  14   4
ATOM      1  O   UNL     1       0.041  -1.208  24.222  0.00  0.00    -0.222 OA
ATOM      2  C   UNL     1      -0.648  -0.777  24.363  0.00  0.00    +0.170 C 
ATOM      3  C   UNL     1      -0.718   0.045  24.345  0.00  0.00    +0.060 C 
ATOM      4  C   UNL     1      -1.502   0.238  24.518  0.00  0.00    +0.140 C 
ATOM      5  N   UNL     1      -1.916  -0.464  24.643  0.00  0.00    -0.260 NA
ATOM     13  C   UNL     1      -1.388  -1.092  24.547  0.00  0.00    +0.106 C 
BRANCH   5   6
ATOM      6  C   UNL     1      -2.716  -0.529  24.830  0.00  0.00    +0.100 C 
BRANCH   6   7
ATOM      7  C   UNL     1      -3.111  -1.246  24.719  0.00  0.00    -0.006 A 
ATOM      8  C   UNL     1      -3.053  -1.841  25.286  0.00  0.00    -0.003 A 
ATOM      9  C   UNL     1      -3.447  -2.557  25.174  0.00  0.00    -0.000 A 
ATOM     10  C   UNL     1      -3.899  -2.678  24.494  0.00  0.00    -0.000 A 
ATOM     11  C   UNL     1      -3.956  -2.082  23.927  0.00  0.00    -0.000 A 
ATOM     12  C   UNL     1      -3.562  -1.365  24.038  0.00  0.00    -0.003 A 
ENDBRANCH   6   7
ENDBRANCH   5   6
ENDBRANCH  14   4
BRANCH  16  17
ATOM     17  C   UNL     1      -2.317   2.840  25.517  0.00  0.00    +0.096 C 
BRANCH  17  18
ATOM     18  C   UNL     1      -1.932   3.555  25.374  0.00  0.00    -0.004 A 
ATOM     19  C   UNL     1      -1.165   3.557  25.072  0.00  0.00    -0.001 A 
ATOM     20  C   UNL     1      -0.780   4.273  24.929  0.00  0.00    +0.029 A 
ATOM     21  C   UNL     1      -1.163   4.986  25.088  0.00  0.00    +0.141 A 
ATOM     22  F   UNL     1      -0.779   5.702  24.946  0.00  0.00    -0.204 F 
ATOM     23  C   UNL     1      -1.931   4.983  25.391  0.00  0.00    +0.041 A 
ATOM     24  C   UNL     1      -2.315   4.269  25.533  0.00  0.00    +0.056 A 
ATOM     25 CL   UNL     1      -3.083   4.266  25.836  0.00  0.00    -0.082 Cl
ENDBRANCH  17  18
ENDBRANCH  16  17
TORSDOF 5
ENDMDL
MODEL 5
REMARK VINA RESULT:     -12.5      2.342      4.917
REMARK  Name = 
REMARK  5 active torsions:
REMARK  status: ('A' for Active; 'I' for Inactive)
REMARK    1  A    between atoms: C_4  and  C_14
REMARK    2  A    between atoms: N_5  and  C_6
REMARK    3  A    between atoms: C_6  and  C_7
REMARK    4  A    between atoms: C_16  and  C_17
REMARK    5  A    between atoms: C_17  and  C_18
REMARK                            x       y       z     vdW  Elec       q    Type
REMARK                         _______ _______ _______ _____ _____    ______ ____
ROOT
ATOM     14  C   UNL     1      -3.593   1.225  24.193  0.00  0.00    +0.251 A 
ATOM     15  N   UNL     1      -3.342   0.531  24.562  0.00  0.00    -0.193 NA
ATOM     16  C   UNL     1      -3.982   0.222  24.982  0.00  0.00    +0.185 A 
ATOM     26  N   UNL     1      -4.627   0.724  24.873  0.00  0.00    -0.060 NA
ATOM     27  O   UNL     1      -4.387   1.344  24.385  0.00  0.00    -0.336 OA
ENDROOT
BRANCH  14   4
ATOM      1  O   UNL     1      -2.310   2.403  21.869  0.00  0.00    -0.222 OA
ATOM      2  C   UNL     1      -2.542   2.256  22.647  0.00  0.00    +0.170 C 
ATOM      3  C   UNL     1      -3.055   1.660  22.896  0.00  0.00    +0.060 C 
ATOM      4  C   UNL     1      -3.132   1.714  23.716  0.00  0.00    +0.140 C 
ATOM      5  N   UNL     1      -2.665   2.344  23.974  0.00  0.00    -0.260 NA
ATOM     13  C   UNL     1      -2.301   2.679  23.313  0.00  0.00    +0.106 C 
BRANCH   5   6
ATOM      6  C   UNL     1      -2.579   2.595  24.754  0.00  0.00    +0.100 C 
BRANCH   6   7
ATOM      7  C   UNL     1      -2.111   3.254  24.927  0.00  0.00    -0.006 A 
ATOM      8  C   UNL     1      -2.456   4.000  24.987  0.00  0.00    -0.003 A 
ATOM      9  C   UNL     1      -1.989   4.658  25.160  0.00  0.00    -0.000 A 
ATOM     10  C   UNL     1      -1.176   4.569  25.272  0.00  0.00    -0.000 A 
ATOM     11  C   UNL     1      -0.831   3.822  25.212  0.00  0.00    -0.000 A 
ATOM     12  C   UNL     1      -1.299   3.164  25.040  0.00  0.00    -0.003 A 
ENDBRANCH   6   7
ENDBRANCH   5   6
ENDBRANCH  14   4
BRANCH  16  17
ATOM     17  C   UNL     1      -3.976  -0.469  25.433  0.00  0.00    +0.096 C 
BRANCH  17  18
ATOM     18  C   UNL     1      -3.898  -1.203  25.064  0.00  0.00    -0.004 A 
ATOM     19  C   UNL     1      -4.254  -1.335  24.332  0.00  0.00    -0.001 A 
ATOM     20  C   UNL     1      -4.176  -2.069  23.963  0.00  0.00    +0.029 A 
ATOM     21  C   UNL     1      -3.741  -2.669  24.326  0.00  0.00    +0.141 A 
ATOM     22  F   UNL     1      -3.663  -3.403  23.957  0.00  0.00    -0.204 F 
ATOM     23  C   UNL     1      -3.385  -2.536  25.058  0.00  0.00    +0.041 A 
ATOM     24  C   UNL     1      -3.464  -1.803  25.427  0.00  0.00    +0.056 A 
ATOM     25 CL   UNL     1      -3.108  -1.670  26.159  0.00  0.00    -0.082 Cl
ENDBRANCH  17  18
ENDBRANCH  16  17
TORSDOF 5
ENDMDL
MODEL 6
REMARK VINA RESULT:     -12.0      2.807      5.004
REMARK  Name = 
REMARK  5 active torsions:
REMARK  status: ('A' for Active; 'I' for Inactive)
REMARK    1  A    between atoms: C_4  and  C_14
REMARK    2  A    between atoms: N_5  and  C_6
REMARK    3  A    between atoms: C_6  and  C_7
REMARK    4  A    between atoms: C_16  and  C_17
REMARK    5  A    between atoms: C_17  and  C_18
REMARK                            x       y       z     vdW  Elec       q    Type
REMARK                         _______ _______ _______ _____ _____    ______ ____
ROOT
ATOM     14  C   UNL     1      -1.544   0.704  24.954  0.00  0.00    +0.251 A 
ATOM     15  N   UNL     1      -1.928   0.110  25.378  0.00  0.00    -0.193 NA
ATOM     16  C   UNL     1      -1.881  -0.587  24.939  0.00  0.00    +0.185 A 
ATOM     26  N   UNL     1      -1.468  -0.423  24.243  0.00  0.00    -0.060 NA
ATOM     27  O   UNL     1      -1.260   0.375  24.253  0.00  0.00    -0.336 OA
ENDROOT
BRANCH  14   4
ATOM      1  O   UNL     1      -0.484   3.132  26.146  0.00  0.00    -0.222 OA
ATOM      2  C   UNL     1      -0.972   2.606  25.737  0.00  0.00    +0.170 C 
ATOM      3  C   UNL     1      -0.833   1.800  25.628  0.00  0.00    +0.060 C 
ATOM      4  C   UNL     1      -1.459   1.490  25.189  0.00  0.00    +0.140 C 
ATOM      5  N   UNL     1      -1.985   2.105  25.027  0.00  0.00    -0.260 NA
ATOM     13  C   UNL     1      -1.684   2.795  25.366  0.00  0.00    +0.106 C 
BRANCH   5   6
ATOM      6  C   UNL     1      -2.689   2.042  24.601  0.00  0.00    +0.100 C 
BRANCH   6   7
ATOM      7  C   UNL     1      -3.273   2.619  24.680  0.00  0.00    -0.006 A 
ATOM      8  C   UNL     1      -3.834   2.560  25.283  0.00  0.00    -0.003 A 
ATOM      9  C   UNL     1      -4.417   3.137  25.362  0.00  0.00    -0.000 A 
ATOM     10  C   UNL     1      -4.441   3.774  24.838  0.00  0.00    -0.000 A 
ATOM     11  C   UNL     1      -3.881   3.834  24.236  0.00  0.00    -0.000 A 
ATOM     12  C   UNL     1      -3.296   3.256  24.157  0.00  0.00    -0.003 A 
ENDBRANCH   6   7
ENDBRANCH   5   6
ENDBRANCH  14   4
BRANCH  16  17
ATOM     17  C   UNL     1      -2.192  -1.319  25.157  0.00  0.00    +0.096 C 
BRANCH  17  18
ATOM     18  C   UNL     1      -2.851  -1.622  24.764  0.00  0.00    -0.004 A 
ATOM     19  C   UNL     1      -3.502  -1.138  24.618  0.00  0.00    -0.001 A 
ATOM     20  C   UNL     1      -4.161  -1.440  24.225  0.00  0.00    +0.029 A 
ATOM     21  C   UNL     1      -4.168  -2.227  23.977  0.00  0.00    +0.141 A 
ATOM     22  F   UNL     1      -4.826  -2.531  23.583  0.00  0.00    -0.204 F 
ATOM     23  C   UNL     1      -3.515  -2.711  24.123  0.00  0.00    +0.041 A 
ATOM     24  C   UNL     1      -2.858  -2.409  24.516  0.00  0.00    +0.056 A 
ATOM     25 CL   UNL     1      -2.205  -2.893  24.662  0.00  0.00    -0.082 Cl
ENDBRANCH  17  18
ENDBRANCH  16  17
TORSDOF 5
ENDMDL
MODEL 7
REMARK VINA RESULT:     -11.9      2.480      3.983
REMARK  Name = 
REMARK  5 active torsions:
REMARK  status: ('A' for Active; 'I' for Inactive)
REMARK    1  A    between atoms: C_4  and  C_14
REMARK    2  A    between atoms: N_5  and  C_6
REMARK    3  A    between atoms: C_6  and  C_7
REMARK    4  A    between atoms: C_16  and  C_17
REMARK    5  A    between atoms: C_17  and  C_18
REMARK                            x       y       z     vdW  Elec       q    Type
REMARK                         _______ _______ _______ _____ _____    ______ ____
ROOT
ATOM     14  C   UNL     1      -1.992   2.676  24.769  0.00  0.00    +0.251 A 
ATOM     15  N   UNL     1      -2.665   2.958  25.152  0.00  0.00    -0.193 NA
ATOM     16  C   UNL     1      -3.209   3.188  24.576  0.00  0.00    +0.185 A 
ATOM     26  N   UNL     1      -2.872   3.048  23.836  0.00  0.00    -0.060 NA
ATOM     27  O   UNL     1      -2.120   2.731  23.955  0.00  0.00    -0.336 OA
ENDROOT
BRANCH  14   4
ATOM      1  O   UNL     1       0.504   2.546  26.247  0.00  0.00    -0.222 OA
ATOM      2  C   UNL     1      -0.163   2.329  25.813  0.00  0.00    +0.170 C 
ATOM      3  C   UNL     1      -0.751   2.839  25.539  0.00  0.00    +0.060 C 
ATOM      4  C   UNL     1      -1.311   2.388  25.133  0.00  0.00    +0.140 C 
ATOM      5  N   UNL     1      -1.069   1.600  25.157  0.00  0.00    -0.260 NA
ATOM     13  C   UNL     1      -0.359   1.563  25.577  0.00  0.00    +0.106 C 
BRANCH   5   6
ATOM      6  C   UNL     1      -1.466   0.960  24.820  0.00  0.00    +0.100 C 
BRANCH   6   7
ATOM      7  C   UNL     1      -1.214   0.190  24.974  0.00  0.00    -0.006 A 
ATOM      8  C   UNL     1      -1.505  -0.217  25.629  0.00  0.00    -0.003 A 
ATOM      9  C   UNL     1      -1.253  -0.987  25.783  0.00  0.00    -0.000 A 
ATOM     10  C   UNL     1      -0.709  -1.351  25.281  0.00  0.00    -0.000 A 
ATOM     11  C   UNL     1      -0.417  -0.944  24.625  0.00  0.00    -0.000 A 
ATOM     12  C   UNL     1      -0.669  -0.174  24.471  0.00  0.00    -0.003 A 
ENDBRANCH   6   7
ENDBRANCH   5   6
ENDBRANCH  14   4
BRANCH  16  17
ATOM     17  C   UNL     1      -3.959   3.504  24.716  0.00  0.00    +0.096 C 
BRANCH  17  18
ATOM     18  C   UNL     1      -4.591   3.003  24.890  0.00  0.00    -0.004 A 
ATOM     19  C   UNL     1      -4.650   2.269  24.521  0.00  0.00    -0.001 A 
ATOM     20  C   UNL     1      -5.282   1.768  24.696  0.00  0.00    +0.029 A 
ATOM     21  C   UNL     1      -5.855   2.004  25.240  0.00  0.00    +0.141 A 
ATOM     22  F   UNL     1      -6.488   1.504  25.415  0.00  0.00    -0.204 F 
ATOM     23  C   UNL     1      -5.796   2.739  25.610  0.00  0.00    +0.041 A 
ATOM     24  C   UNL     1      -5.165   3.238  25.435  0.00  0.00    +0.056 A 
ATOM     25 CL   UNL     1      -5.106   3.974  25.804  0.00  0.00    -0.082 Cl
ENDBRANCH  17  18
ENDBRANCH  16  17
TORSDOF 5
ENDMDL
