REMARK  Name = 
REMARK  6 active torsions:
REMARK  status: ('A' for Active; 'I' for Inactive)
REMARK    1  A    between atoms: C_3  and  C_4
REMARK    2  A    between atoms: C_4  and  N_5
REMARK    3  A    between atoms: N_5  and  C_6
REMARK    4  A    between atoms: C_6  and  C_7
REMARK    5  A    between atoms: C_7  and  C_8
REMARK    6  A    between atoms: C_11  and  C_13
REMARK                            x       y       z     vdW  Elec       q    Type
REMARK                         _______ _______ _______ _____ _____    ______ ____
ROOT
ATOM      6  C   UNL     1       0.732  -3.554   0.000  0.00  0.00    +0.120 C 
ATOM     20  C   UNL     1       1.315  -4.137   0.000  0.00  0.00    +0.161 C 
ATOM     21  O   UNL     1       0.732  -4.721   0.000  0.00  0.00    -0.351 OA
ATOM     22  C   UNL     1       0.148  -4.137   0.000  0.00  0.00    +0.161 C 
ENDROOT
BRANCH   6   5
ATOM      5  N   UNL     1       1.315  -2.970   0.000  0.00  0.00    -0.211 NA
BRANCH   5   4
ATOM      4  C   UNL     1       1.102  -2.174   0.000  0.00  0.00    +0.118 C 
BRANCH   4   3
ATOM      1  O   UNL     1       2.695  -2.601   0.000  0.00  0.00    -0.287 OA
ATOM      2  C   UNL     1       2.482  -1.804   0.000  0.00  0.00    +0.193 A 
ATOM      3  C   UNL     1       1.685  -1.590   0.000  0.00  0.00    +0.034 A 
ATOM     23  C   UNL     1       1.471  -0.793   0.000  0.00  0.00    +0.000 A 
ATOM     24  C   UNL     1       2.055  -0.210   0.000  0.00  0.00    -0.000 A 
ATOM     25  C   UNL     1       2.852  -0.423   0.000  0.00  0.00    +0.003 A 
ATOM     26  C   UNL     1       3.065  -1.220   0.000  0.00  0.00    +0.042 A 
ENDBRANCH   4   3
ENDBRANCH   5   4
ENDBRANCH   6   5
BRANCH   6   7
ATOM      7  C   UNL     1       0.148  -2.970   0.000  0.00  0.00    +0.070 C 
BRANCH   7   8
ATOM      8  C   UNL     1      -0.648  -3.184   0.000  0.00  0.00    +0.102 A 
ATOM      9  N   UNL     1      -0.944  -3.954   0.000  0.00  0.00    -0.081 NA
ATOM     10  O   UNL     1      -1.768  -3.911   0.000  0.00  0.00    -0.354 OA
ATOM     11  C   UNL     1      -1.982  -3.114   0.000  0.00  0.00    +0.177 A 
ATOM     12  C   UNL     1      -1.290  -2.665   0.000  0.00  0.00    +0.058 A 
BRANCH  11  13
ATOM     13  C   UNL     1      -2.752  -2.818   0.000  0.00  0.00    +0.037 A 
ATOM     14  C   UNL     1      -3.393  -3.338   0.000  0.00  0.00    +0.005 A 
ATOM     15  C   UNL     1      -4.163  -3.042   0.000  0.00  0.00    +0.030 A 
ATOM     16  C   UNL     1      -4.292  -2.227   0.000  0.00  0.00    +0.140 A 
ATOM     17  F   UNL     1      -5.062  -1.931   0.000  0.00  0.00    -0.204 F 
ATOM     18  C   UNL     1      -3.651  -1.708   0.000  0.00  0.00    +0.030 A 
ATOM     19  C   UNL     1      -2.881  -2.004   0.000  0.00  0.00    +0.005 A 
ENDBRANCH  11  13
ENDBRANCH   7   8
ENDBRANCH   6   7
TORSDOF 6
