MODEL 1
REMARK VINA RESULT:     -15.3      0.000      0.000
REMARK  Name = 
REMARK  4 active torsions:
REMARK  status: ('A' for Active; 'I' for Inactive)
REMARK    1  A    between atoms: O_2  and  C_3
REMARK    2  A    between atoms: C_6  and  C_9
REMARK    3  A    between atoms: N_15  and  S_17
REMARK    4  A    between atoms: S_17  and  C_20
REMARK                            x       y       z     vdW  Elec       q    Type
REMARK                         _______ _______ _______ _____ _____    ______ ____
ROOT
ATOM      9  C   UNL     1      -3.497   0.883  24.771  0.00  0.00    +0.012 A 
ATOM     10  C   UNL     1      -4.111   1.419  24.891  0.00  0.00    +0.041 A 
ATOM     11  C   UNL     1      -5.028   1.454  24.946  0.00  0.00    +0.056 C 
ATOM     12  C   UNL     1      -5.597   1.045  24.910  0.00  0.00    +0.011 C 
ATOM     13  C   UNL     1      -5.429   1.833  25.029  0.00  0.00    +0.041 C 
ATOM     14  C   UNL     1      -5.429   2.808  25.187  0.00  0.00    +0.098 C 
ATOM     15  N   UNL     1      -4.606   2.953  25.166  0.00  0.00    -0.155 NA
ATOM     16  C   UNL     1      -5.045   2.396  25.100  0.00  0.00    +0.102 C 
ATOM     26  C   UNL     1      -4.471   1.807  24.973  0.00  0.00    +0.110 C 
ATOM     27  N   UNL     1      -3.944   2.218  25.012  0.00  0.00    -0.299 N 
ATOM     28  C   UNL     1      -3.162   2.481  25.012  0.00  0.00    +0.261 A 
ATOM     29  O   UNL     1      -2.995   3.280  25.132  0.00  0.00    -0.267 OA
ATOM     30  C   UNL     1      -2.547   1.944  24.892  0.00  0.00    +0.061 A 
ATOM     31  C   UNL     1      -2.715   1.145  24.771  0.00  0.00    +0.006 A 
ENDROOT
BRANCH   9   6
ATOM      3  C   UNL     1      -3.999  -1.514  24.409  0.00  0.00    +0.139 A 
ATOM      4  C   UNL     1      -3.974  -0.996  23.768  0.00  0.00    +0.037 A 
ATOM      5  C   UNL     1      -3.807  -0.198  23.888  0.00  0.00    +0.003 A 
ATOM      6  C   UNL     1      -3.664   0.084  24.650  0.00  0.00    +0.001 A 
ATOM      7  C   UNL     1      -3.689  -0.434  25.292  0.00  0.00    +0.003 A 
ATOM      8  C   UNL     1      -3.856  -1.233  25.172  0.00  0.00    +0.037 A 
BRANCH   3   2
ATOM      1  C   UNL     1      -3.566  -2.875  24.357  0.00  0.00    +0.252 C 
ATOM      2  O   UNL     1      -4.166  -2.312  24.289  0.00  0.00    -0.471 OA
ENDBRANCH   3   2
ENDBRANCH   9   6
BRANCH  15  17
ATOM     17  S   UNL     1      -3.898   3.377  25.197  0.00  0.00    +0.063 S 
ATOM     18  O   UNL     1      -3.938   3.502  24.382  0.00  0.00    -0.153 OA
ATOM     19  O   UNL     1      -3.859   3.252  26.012  0.00  0.00    -0.153 OA
BRANCH  17  20
ATOM     20  C   UNL     1      -3.190   3.800  25.227  0.00  0.00    +0.122 A 
ATOM     21  C   UNL     1      -2.865   4.109  24.536  0.00  0.00    +0.020 A 
ATOM     22  C   UNL     1      -2.157   4.533  24.566  0.00  0.00    +0.001 A 
ATOM     23  C   UNL     1      -1.776   4.646  25.289  0.00  0.00    +0.000 A 
ATOM     24  C   UNL     1      -2.101   4.337  25.980  0.00  0.00    +0.001 A 
ATOM     25  C   UNL     1      -2.809   3.913  25.950  0.00  0.00    +0.020 A 
ENDBRANCH  17  20
ENDBRANCH  15  17
TORSDOF 4
ENDMDL
MODEL 2
REMARK VINA RESULT:     -14.8      1.542      4.350
REMARK  Name = 
REMARK  4 active torsions:
REMARK  status: ('A' for Active; 'I' for Inactive)
REMARK    1  A    between atoms: O_2  and  C_3
REMARK    2  A    between atoms: C_6  and  C_9
REMARK    3  A    between atoms: N_15  and  S_17
REMARK    4  A    between atoms: S_17  and  C_20
REMARK                            x       y       z     vdW  Elec       q    Type
REMARK                         _______ _______ _______ _____ _____    ______ ____
ROOT
ATOM      9  C   UNL     1      -2.271   1.560  24.870  0.00  0.00    +0.012 A 
ATOM     10  C   UNL     1      -3.095   1.537  24.850  0.00  0.00    +0.041 A 
ATOM     11  C   UNL     1      -3.825   2.095  24.846  0.00  0.00    +0.056 C 
ATOM     12  C   UNL     1      -3.997   2.775  24.858  0.00  0.00    +0.011 C 
ATOM     13  C   UNL     1      -4.381   2.057  24.832  0.00  0.00    +0.041 C 
ATOM     14  C   UNL     1      -5.017   1.302  24.799  0.00  0.00    +0.098 C 
ATOM     15  N   UNL     1      -4.477   0.664  24.797  0.00  0.00    -0.155 NA
ATOM     16  C   UNL     1      -4.452   1.376  24.814  0.00  0.00    +0.102 C 
ATOM     26  C   UNL     1      -3.625   1.466  24.836  0.00  0.00    +0.110 C 
ATOM     27  N   UNL     1      -3.487   0.811  24.824  0.00  0.00    -0.299 N 
ATOM     28  C   UNL     1      -3.055   0.108  24.817  0.00  0.00    +0.261 A 
ATOM     29  O   UNL     1      -3.447  -0.617  24.791  0.00  0.00    -0.267 OA
ATOM     30  C   UNL     1      -2.231   0.132  24.837  0.00  0.00    +0.061 A 
ATOM     31  C   UNL     1      -1.839   0.857  24.863  0.00  0.00    +0.006 A 
ENDROOT
BRANCH   9   6
ATOM      3  C   UNL     1      -1.095   3.737  24.949  0.00  0.00    +0.139 A 
ATOM      4  C   UNL     1      -1.319   3.363  25.649  0.00  0.00    +0.037 A 
ATOM      5  C   UNL     1      -1.711   2.638  25.623  0.00  0.00    +0.003 A 
ATOM      6  C   UNL     1      -1.879   2.285  24.896  0.00  0.00    +0.001 A 
ATOM      7  C   UNL     1      -1.656   2.659  24.195  0.00  0.00    +0.003 A 
ATOM      8  C   UNL     1      -1.264   3.385  24.222  0.00  0.00    +0.037 A 
BRANCH   3   2
ATOM      1  C   UNL     1      -1.137   5.164  25.006  0.00  0.00    +0.252 C 
ATOM      2  O   UNL     1      -0.704   4.462  24.975  0.00  0.00    -0.471 OA
ENDBRANCH   3   2
ENDBRANCH   9   6
BRANCH  15  17
ATOM     17  S   UNL     1      -4.207  -0.116  24.785  0.00  0.00    +0.063 S 
ATOM     18  O   UNL     1      -4.239  -0.139  25.609  0.00  0.00    -0.153 OA
ATOM     19  O   UNL     1      -4.175  -0.092  23.960  0.00  0.00    -0.153 OA
BRANCH  17  20
ATOM     20  C   UNL     1      -3.937  -0.895  24.773  0.00  0.00    +0.122 A 
ATOM     21  C   UNL     1      -3.723  -1.269  25.476  0.00  0.00    +0.020 A 
ATOM     22  C   UNL     1      -3.453  -2.048  25.464  0.00  0.00    +0.001 A 
ATOM     23  C   UNL     1      -3.397  -2.454  24.748  0.00  0.00    +0.000 A 
ATOM     24  C   UNL     1      -3.611  -2.081  24.045  0.00  0.00    +0.001 A 
ATOM     25  C   UNL     1      -3.881  -1.301  24.057  0.00  0.00    +0.020 A 
ENDBRANCH  17  20
ENDBRANCH  15  17
TORSDOF 4
ENDMDL
MODEL 3
REMARK VINA RESULT:     -13.7      1.123      2.136
REMARK  Name = 
REMARK  4 active torsions:
REMARK  status: ('A' for Active; 'I' for Inactive)
REMARK    1  A    between atoms: O_2  and  C_3
REMARK    2  A    between atoms: C_6  and  C_9
REMARK    3  A    between atoms: N_15  and  S_17
REMARK    4  A    between atoms: S_17  and  C_20
REMARK                            x       y       z     vdW  Elec       q    Type
REMARK                         _______ _______ _______ _____ _____    ______ ____
ROOT
ATOM      9  C   UNL     1      -3.715   0.180  24.771  0.00  0.00    +0.012 A 
ATOM     10  C   UNL     1      -3.018   0.592  24.615  0.00  0.00    +0.041 A 
ATOM     11  C   UNL     1      -2.139   0.447  24.388  0.00  0.00    +0.056 C 
ATOM     12  C   UNL     1      -1.684  -0.069  24.249  0.00  0.00    +0.011 C 
ATOM     13  C   UNL     1      -1.679   0.745  24.286  0.00  0.00    +0.041 C 
ATOM     14  C   UNL     1      -1.473   1.712  24.280  0.00  0.00    +0.098 C 
ATOM     15  N   UNL     1      -2.225   2.016  24.483  0.00  0.00    -0.155 NA
ATOM     16  C   UNL     1      -1.925   1.378  24.378  0.00  0.00    +0.102 C 
ATOM     26  C   UNL     1      -2.595   0.906  24.524  0.00  0.00    +0.110 C 
ATOM     27  N   UNL     1      -3.009   1.416  24.651  0.00  0.00    -0.299 N 
ATOM     28  C   UNL     1      -3.697   1.828  24.843  0.00  0.00    +0.261 A 
ATOM     29  O   UNL     1      -3.688   2.653  24.880  0.00  0.00    -0.267 OA
ATOM     30  C   UNL     1      -4.394   1.416  24.999  0.00  0.00    +0.061 A 
ATOM     31  C   UNL     1      -4.403   0.592  24.963  0.00  0.00    +0.006 A 
ENDROOT
BRANCH   9   6
ATOM      3  C   UNL     1      -3.742  -2.293  24.662  0.00  0.00    +0.139 A 
ATOM      4  C   UNL     1      -3.517  -1.914  25.358  0.00  0.00    +0.037 A 
ATOM      5  C   UNL     1      -3.508  -1.089  25.394  0.00  0.00    +0.003 A 
ATOM      6  C   UNL     1      -3.724  -0.645  24.734  0.00  0.00    +0.001 A 
ATOM      7  C   UNL     1      -3.950  -1.024  24.038  0.00  0.00    +0.003 A 
ATOM      8  C   UNL     1      -3.959  -1.849  24.001  0.00  0.00    +0.037 A 
BRANCH   3   2
ATOM      1  C   UNL     1      -3.115  -3.522  24.291  0.00  0.00    +0.252 C 
ATOM      2  O   UNL     1      -3.751  -3.117  24.625  0.00  0.00    -0.471 OA
ENDBRANCH   3   2
ENDBRANCH   9   6
BRANCH  15  17
ATOM     17  S   UNL     1      -2.809   2.573  24.655  0.00  0.00    +0.063 S 
ATOM     18  O   UNL     1      -2.602   2.542  25.454  0.00  0.00    -0.153 OA
ATOM     19  O   UNL     1      -3.015   2.604  23.857  0.00  0.00    -0.153 OA
BRANCH  17  20
ATOM     20  C   UNL     1      -3.392   3.130  24.828  0.00  0.00    +0.122 A 
ATOM     21  C   UNL     1      -3.863   3.435  24.223  0.00  0.00    +0.020 A 
ATOM     22  C   UNL     1      -4.446   3.993  24.396  0.00  0.00    +0.001 A 
ATOM     23  C   UNL     1      -4.559   4.244  25.173  0.00  0.00    +0.000 A 
ATOM     24  C   UNL     1      -4.089   3.939  25.778  0.00  0.00    +0.001 A 
ATOM     25  C   UNL     1      -3.505   3.381  25.605  0.00  0.00    +0.020 A 
ENDBRANCH  17  20
ENDBRANCH  15  17
TORSDOF 4
ENDMDL
MODEL 4
REMARK VINA RESULT:     -12.8      1.718      4.763
REMARK  Name = 
REMARK  4 active torsions:
REMARK  status: ('A' for Active; 'I' for Inactive)
REMARK    1  A    between atoms: O_2  and  C_3
REMARK    2  A    between atoms: C_6  and  C_9
REMARK    3  A    between atoms: N_15  and  S_17
REMARK    4  A    between atoms: S_17  and  C_20
REMARK                            x       y       z     vdW  Elec       q    Type
REMARK                         _______ _______ _______ _____ _____    ______ ____
ROOT
ATOM      9  C   UNL     1      -3.427   1.010  24.458  0.00  0.00    +0.012 A 
ATOM     10  C   UNL     1      -2.700   0.774  24.768  0.00  0.00    +0.041 A 
ATOM     11  C   UNL     1      -1.909   1.124  25.076  0.00  0.00    +0.056 C 
ATOM     12  C   UNL     1      -1.581   1.736  25.181  0.00  0.00    +0.011 C 
ATOM     13  C   UNL     1      -1.424   0.943  25.284  0.00  0.00    +0.041 C 
ATOM     14  C   UNL     1      -1.051   0.049  25.480  0.00  0.00    +0.098 C 
ATOM     15  N   UNL     1      -1.694  -0.426  25.239  0.00  0.00    -0.155 NA
ATOM     16  C   UNL     1      -1.535   0.267  25.271  0.00  0.00    +0.102 C 
ATOM     26  C   UNL     1      -2.247   0.568  24.964  0.00  0.00    +0.110 C 
ATOM     27  N   UNL     1      -2.538  -0.028  24.874  0.00  0.00    -0.299 N 
ATOM     28  C   UNL     1      -3.102  -0.594  24.669  0.00  0.00    +0.261 A 
ATOM     29  O   UNL     1      -2.939  -1.396  24.775  0.00  0.00    -0.267 OA
ATOM     30  C   UNL     1      -3.829  -0.358  24.359  0.00  0.00    +0.061 A 
ATOM     31  C   UNL     1      -3.992   0.444  24.254  0.00  0.00    +0.006 A 
ENDROOT
BRANCH   9   6
ATOM      3  C   UNL     1      -3.916   3.416  24.141  0.00  0.00    +0.139 A 
ATOM      4  C   UNL     1      -4.112   3.045  24.852  0.00  0.00    +0.037 A 
ATOM      5  C   UNL     1      -3.949   2.243  24.957  0.00  0.00    +0.003 A 
ATOM      6  C   UNL     1      -3.590   1.812  24.353  0.00  0.00    +0.001 A 
ATOM      7  C   UNL     1      -3.394   2.183  23.642  0.00  0.00    +0.003 A 
ATOM      8  C   UNL     1      -3.557   2.985  23.537  0.00  0.00    +0.037 A 
BRANCH   3   2
ATOM      1  C   UNL     1      -3.674   4.783  24.480  0.00  0.00    +0.252 C 
ATOM      2  O   UNL     1      -4.079   4.217  24.036  0.00  0.00    -0.471 OA
ENDBRANCH   3   2
ENDBRANCH   9   6
BRANCH  15  17
ATOM     17  S   UNL     1      -2.134  -1.109  25.091  0.00  0.00    +0.063 S 
ATOM     18  O   UNL     1      -2.459  -1.063  25.849  0.00  0.00    -0.153 OA
ATOM     19  O   UNL     1      -1.809  -1.155  24.334  0.00  0.00    -0.153 OA
BRANCH  17  20
ATOM     20  C   UNL     1      -2.574  -1.792  24.944  0.00  0.00    +0.122 A 
ATOM     21  C   UNL     1      -2.485  -2.193  24.229  0.00  0.00    +0.020 A 
ATOM     22  C   UNL     1      -2.925  -2.875  24.081  0.00  0.00    +0.001 A 
ATOM     23  C   UNL     1      -3.453  -3.156  24.649  0.00  0.00    +0.000 A 
ATOM     24  C   UNL     1      -3.542  -2.755  25.364  0.00  0.00    +0.001 A 
ATOM     25  C   UNL     1      -3.102  -2.072  25.512  0.00  0.00    +0.020 A 
ENDBRANCH  17  20
ENDBRANCH  15  17
TORSDOF 4
ENDMDL
