MODEL 1
REMARK VINA RESULT:     -12.4      0.000      0.000
REMARK  Name = 
REMARK  6 active torsions:
REMARK  status: ('A' for Active; 'I' for Inactive)
REMARK    1  A    between atoms: O_2  and  C_3
REMARK    2  A    between atoms: C_3  and  C_5
REMARK    3  A    between atoms: C_18  and  N_29
REMARK    4  A    between atoms: C_20  and  C_22
REMARK    5  A    between atoms: N_29  and  C_30
REMARK    6  A    between atoms: C_30  and  C_31
REMARK                            x       y       z     vdW  Elec       q    Type
REMARK                         _______ _______ _______ _____ _____    ______ ____
ROOT
ATOM      5  C   UNL     1      -3.987   2.942  25.294  0.00  0.00    +0.162 C 
ATOM      6  C   UNL     1      -3.462   3.578  25.305  0.00  0.00    +0.055 C 
ATOM      7  C   UNL     1      -2.670   3.463  25.105  0.00  0.00    -0.004 A 
ATOM      8  C   UNL     1      -2.403   2.712  24.893  0.00  0.00    +0.070 A 
ATOM      9  N   UNL     1      -1.598   2.766  24.724  0.00  0.00    -0.249 NA
ATOM     10  C   UNL     1      -1.366   3.551  24.831  0.00  0.00    +0.081 A 
ATOM     11  C   UNL     1      -2.030   3.982  25.066  0.00  0.00    +0.015 A 
ATOM     12  C   UNL     1      -1.965   4.790  25.215  0.00  0.00    +0.001 A 
ATOM     13  C   UNL     1      -1.236   5.169  25.128  0.00  0.00    +0.000 A 
ATOM     14  C   UNL     1      -0.573   4.738  24.893  0.00  0.00    +0.002 A 
ATOM     15  C   UNL     1      -0.638   3.929  24.744  0.00  0.00    +0.019 A 
ATOM     16  C   UNL     1      -2.928   2.075  24.882  0.00  0.00    +0.100 C 
ATOM     17  C   UNL     1      -2.661   1.324  24.671  0.00  0.00    +0.040 C 
ATOM     18  C   UNL     1      -3.185   0.688  24.660  0.00  0.00    +0.076 C 
ATOM     19  C   UNL     1      -3.978   0.803  24.861  0.00  0.00    +0.038 C 
ATOM     20  C   UNL     1      -4.244   1.554  25.072  0.00  0.00    +0.084 C 
ATOM     21  N   UNL     1      -3.720   2.190  25.083  0.00  0.00    -0.258 NA
ENDROOT
BRANCH  20  22
ATOM     22  C   UNL     1      -5.037   1.668  25.272  0.00  0.00    +0.020 A 
ATOM     23  C   UNL     1      -5.261   1.705  26.065  0.00  0.00    -0.001 A 
ATOM     24  C   UNL     1      -6.053   1.819  26.264  0.00  0.00    -0.000 A 
ATOM     25  C   UNL     1      -6.621   1.896  25.670  0.00  0.00    +0.002 A 
ATOM     26  C   UNL     1      -6.397   1.860  24.878  0.00  0.00    +0.029 A 
ATOM     27  C   UNL     1      -5.605   1.746  24.678  0.00  0.00    +0.137 A 
ATOM     28  F   UNL     1      -5.862   1.778  23.853  0.00  0.00    -0.204 F 
ENDBRANCH  20  22
BRANCH   5   3
ATOM      3  C   UNL     1      -4.757   3.380  25.555  0.00  0.00    +0.332 C 
ATOM      4  O   UNL     1      -5.337   3.543  26.377  0.00  0.00    -0.249 OA
BRANCH   3   2
ATOM      1  C   UNL     1      -5.672   4.767  25.442  0.00  0.00    +0.256 C 
ATOM      2  O   UNL     1      -5.486   3.931  25.290  0.00  0.00    -0.443 OA
ENDBRANCH   3   2
ENDBRANCH   5   3
BRANCH  18  29
ATOM     29  N   UNL     1      -2.915  -0.085  24.444  0.00  0.00    -0.217 NA
BRANCH  29  30
ATOM     30  C   UNL     1      -2.849  -0.653  25.077  0.00  0.00    +0.118 C 
BRANCH  30  31
ATOM     31  C   UNL     1      -2.618  -1.414  24.820  0.00  0.00    +0.133 C 
ATOM     32  C   UNL     1      -3.121  -2.068  24.844  0.00  0.00    +0.034 C 
ATOM     33  C   UNL     1      -2.708  -2.718  24.550  0.00  0.00    +0.035 C 
ATOM     34  C   UNL     1      -1.950  -2.466  24.343  0.00  0.00    +0.142 C 
ATOM     35  O   UNL     1      -1.894  -1.660  24.510  0.00  0.00    -0.355 OA
ENDBRANCH  30  31
ENDBRANCH  29  30
ENDBRANCH  18  29
TORSDOF 6
ENDMDL
MODEL 2
REMARK VINA RESULT:     -12.2      1.714      3.566
REMARK  Name = 
REMARK  6 active torsions:
REMARK  status: ('A' for Active; 'I' for Inactive)
REMARK    1  A    between atoms: O_2  and  C_3
REMARK    2  A    between atoms: C_3  and  C_5
REMARK    3  A    between atoms: C_18  and  N_29
REMARK    4  A    between atoms: C_20  and  C_22
REMARK    5  A    between atoms: N_29  and  C_30
REMARK    6  A    between atoms: C_30  and  C_31
REMARK                            x       y       z     vdW  Elec       q    Type
REMARK                         _______ _______ _______ _____ _____    ______ ____
ROOT
ATOM      5  C   UNL     1      -2.366   2.570  25.188  0.00  0.00    +0.162 C 
ATOM      6  C   UNL     1      -3.051   3.009  25.320  0.00  0.00    +0.055 C 
ATOM      7  C   UNL     1      -3.790   2.650  25.246  0.00  0.00    -0.004 A 
ATOM      8  C   UNL     1      -3.844   1.853  25.041  0.00  0.00    +0.070 A 
ATOM      9  N   UNL     1      -4.643   1.651  25.010  0.00  0.00    -0.249 NA
ATOM     10  C   UNL     1      -5.085   2.323  25.195  0.00  0.00    +0.081 A 
ATOM     11  C   UNL     1      -4.557   2.941  25.341  0.00  0.00    +0.015 A 
ATOM     12  C   UNL     1      -4.843   3.688  25.542  0.00  0.00    +0.001 A 
ATOM     13  C   UNL     1      -5.656   3.818  25.597  0.00  0.00    +0.000 A 
ATOM     14  C   UNL     1      -6.184   3.199  25.450  0.00  0.00    +0.002 A 
ATOM     15  C   UNL     1      -5.897   2.452  25.249  0.00  0.00    +0.019 A 
ATOM     16  C   UNL     1      -3.158   1.414  24.910  0.00  0.00    +0.100 C 
ATOM     17  C   UNL     1      -3.210   0.617  24.705  0.00  0.00    +0.040 C 
ATOM     18  C   UNL     1      -2.525   0.178  24.574  0.00  0.00    +0.076 C 
ATOM     19  C   UNL     1      -1.785   0.537  24.647  0.00  0.00    +0.038 C 
ATOM     20  C   UNL     1      -1.733   1.334  24.852  0.00  0.00    +0.084 C 
ATOM     21  N   UNL     1      -2.419   1.773  24.983  0.00  0.00    -0.258 NA
ENDROOT
BRANCH  20  22
ATOM     22  C   UNL     1      -0.993   1.692  24.926  0.00  0.00    +0.020 A 
ATOM     23  C   UNL     1      -0.668   1.820  25.673  0.00  0.00    -0.001 A 
ATOM     24  C   UNL     1       0.072   2.178  25.745  0.00  0.00    -0.000 A 
ATOM     25  C   UNL     1       0.487   2.408  25.070  0.00  0.00    +0.002 A 
ATOM     26  C   UNL     1       0.162   2.280  24.323  0.00  0.00    +0.029 A 
ATOM     27  C   UNL     1      -0.578   1.922  24.250  0.00  0.00    +0.137 A 
ATOM     28  F   UNL     1      -0.477   2.007  23.395  0.00  0.00    -0.204 F 
ENDBRANCH  20  22
BRANCH   5   3
ATOM      3  C   UNL     1      -1.736   3.229  25.343  0.00  0.00    +0.332 C 
ATOM      4  O   UNL     1      -1.095   3.560  26.062  0.00  0.00    -0.249 OA
BRANCH   3   2
ATOM      1  C   UNL     1      -1.394   4.842  25.109  0.00  0.00    +0.256 C 
ATOM      2  O   UNL     1      -1.279   3.987  24.996  0.00  0.00    -0.443 OA
ENDBRANCH   3   2
ENDBRANCH   5   3
BRANCH  18  29
ATOM     29  N   UNL     1      -2.575  -0.640  24.363  0.00  0.00    -0.217 NA
BRANCH  29  30
ATOM     30  C   UNL     1      -2.691  -1.189  25.005  0.00  0.00    +0.118 C 
BRANCH  30  31
ATOM     31  C   UNL     1      -2.838  -1.973  24.753  0.00  0.00    +0.133 C 
ATOM     32  C   UNL     1      -3.539  -2.373  24.920  0.00  0.00    +0.034 C 
ATOM     33  C   UNL     1      -3.488  -3.126  24.587  0.00  0.00    +0.035 C 
ATOM     34  C   UNL     1      -2.755  -3.190  24.214  0.00  0.00    +0.142 C 
ATOM     35  O   UNL     1      -2.353  -2.477  24.317  0.00  0.00    -0.355 OA
ENDBRANCH  30  31
ENDBRANCH  29  30
ENDBRANCH  18  29
TORSDOF 6
ENDMDL
MODEL 3
REMARK VINA RESULT:     -12.0      2.378      3.106
REMARK  Name = 
REMARK  6 active torsions:
REMARK  status: ('A' for Active; 'I' for Inactive)
REMARK    1  A    between atoms: O_2  and  C_3
REMARK    2  A    between atoms: C_3  and  C_5
REMARK    3  A    between atoms: C_18  and  N_29
REMARK    4  A    between atoms: C_20  and  C_22
REMARK    5  A    between atoms: N_29  and  C_30
REMARK    6  A    between atoms: C_30  and  C_31
REMARK                            x       y       z     vdW  Elec       q    Type
REMARK                         _______ _______ _______ _____ _____    ______ ____
ROOT
ATOM      5  C   UNL     1      -2.828   1.479  24.833  0.00  0.00    +0.162 C 
ATOM      6  C   UNL     1      -2.882   2.284  25.005  0.00  0.00    +0.055 C 
ATOM      7  C   UNL     1      -2.212   2.763  24.950  0.00  0.00    -0.004 A 
ATOM      8  C   UNL     1      -1.489   2.437  24.723  0.00  0.00    +0.070 A 
ATOM      9  N   UNL     1      -0.928   3.041  24.717  0.00  0.00    -0.249 NA
ATOM     10  C   UNL     1      -1.302   3.741  24.940  0.00  0.00    +0.081 A 
ATOM     11  C   UNL     1      -2.097   3.569  25.084  0.00  0.00    +0.015 A 
ATOM     12  C   UNL     1      -2.613   4.168  25.319  0.00  0.00    +0.001 A 
ATOM     13  C   UNL     1      -2.335   4.940  25.410  0.00  0.00    +0.000 A 
ATOM     14  C   UNL     1      -1.540   5.112  25.266  0.00  0.00    +0.002 A 
ATOM     15  C   UNL     1      -1.024   4.512  25.031  0.00  0.00    +0.019 A 
ATOM     16  C   UNL     1      -1.435   1.632  24.551  0.00  0.00    +0.100 C 
ATOM     17  C   UNL     1      -0.713   1.305  24.324  0.00  0.00    +0.040 C 
ATOM     18  C   UNL     1      -0.660   0.500  24.152  0.00  0.00    +0.076 C 
ATOM     19  C   UNL     1      -1.329   0.022  24.207  0.00  0.00    +0.038 C 
ATOM     20  C   UNL     1      -2.052   0.348  24.434  0.00  0.00    +0.084 C 
ATOM     21  N   UNL     1      -2.105   1.153  24.606  0.00  0.00    -0.258 NA
ENDROOT
BRANCH  20  22
ATOM     22  C   UNL     1      -2.721  -0.131  24.489  0.00  0.00    +0.020 A 
ATOM     23  C   UNL     1      -3.276  -0.137  23.879  0.00  0.00    -0.001 A 
ATOM     24  C   UNL     1      -3.945  -0.617  23.935  0.00  0.00    -0.000 A 
ATOM     25  C   UNL     1      -4.059  -1.091  24.601  0.00  0.00    +0.002 A 
ATOM     26  C   UNL     1      -3.504  -1.085  25.211  0.00  0.00    +0.029 A 
ATOM     27  C   UNL     1      -2.835  -0.606  25.155  0.00  0.00    +0.137 A 
ATOM     28  F   UNL     1      -2.610  -0.919  25.930  0.00  0.00    -0.204 F 
ENDBRANCH  20  22
BRANCH   5   3
ATOM      3  C   UNL     1      -3.707   1.237  24.982  0.00  0.00    +0.332 C 
ATOM      4  O   UNL     1      -4.300   0.796  25.684  0.00  0.00    -0.249 OA
BRANCH   3   2
ATOM      1  C   UNL     1      -5.299   1.699  24.820  0.00  0.00    +0.256 C 
ATOM      2  O   UNL     1      -4.595   1.220  24.641  0.00  0.00    -0.443 OA
ENDBRANCH   3   2
ENDBRANCH   5   3
BRANCH  18  29
ATOM     29  N   UNL     1       0.080   0.162  23.919  0.00  0.00    -0.217 NA
BRANCH  29  30
ATOM     30  C   UNL     1       0.230   0.124  23.080  0.00  0.00    +0.118 C 
BRANCH  30  31
ATOM     31  C   UNL     1       1.043   0.071  22.888  0.00  0.00    +0.133 C 
ATOM     32  C   UNL     1       1.322  -0.334  22.226  0.00  0.00    +0.034 C 
ATOM     33  C   UNL     1       2.143  -0.268  22.215  0.00  0.00    +0.035 C 
ATOM     34  C   UNL     1       2.373   0.177  22.870  0.00  0.00    +0.142 C 
ATOM     35  O   UNL     1       1.692   0.387  23.286  0.00  0.00    -0.355 OA
ENDBRANCH  30  31
ENDBRANCH  29  30
ENDBRANCH  18  29
TORSDOF 6
ENDMDL
MODEL 4
REMARK VINA RESULT:     -11.6      2.383      4.522
REMARK  Name = 
REMARK  6 active torsions:
REMARK  status: ('A' for Active; 'I' for Inactive)
REMARK    1  A    between atoms: O_2  and  C_3
REMARK    2  A    between atoms: C_3  and  C_5
REMARK    3  A    between atoms: C_18  and  N_29
REMARK    4  A    between atoms: C_20  and  C_22
REMARK    5  A    between atoms: N_29  and  C_30
REMARK    6  A    between atoms: C_30  and  C_31
REMARK                            x       y       z     vdW  Elec       q    Type
REMARK                         _______ _______ _______ _____ _____    ______ ____
ROOT
ATOM      5  C   UNL     1      -3.009   0.770  24.525  0.00  0.00    +0.162 C 
ATOM      6  C   UNL     1      -3.397   0.047  24.604  0.00  0.00    +0.055 C 
ATOM      7  C   UNL     1      -2.973  -0.658  24.536  0.00  0.00    -0.004 A 
ATOM      8  C   UNL     1      -2.162  -0.639  24.389  0.00  0.00    +0.070 A 
ATOM      9  N   UNL     1      -1.892  -1.417  24.350  0.00  0.00    -0.249 NA
ATOM     10  C   UNL     1      -2.536  -1.918  24.472  0.00  0.00    +0.081 A 
ATOM     11  C   UNL     1      -3.205  -1.448  24.587  0.00  0.00    +0.015 A 
ATOM     12  C   UNL     1      -3.938  -1.801  24.723  0.00  0.00    +0.001 A 
ATOM     13  C   UNL     1      -4.003  -2.623  24.745  0.00  0.00    +0.000 A 
ATOM     14  C   UNL     1      -3.333  -3.093  24.630  0.00  0.00    +0.002 A 
ATOM     15  C   UNL     1      -2.600  -2.740  24.494  0.00  0.00    +0.019 A 
ATOM     16  C   UNL     1      -1.773   0.085  24.310  0.00  0.00    +0.100 C 
ATOM     17  C   UNL     1      -0.962   0.105  24.164  0.00  0.00    +0.040 C 
ATOM     18  C   UNL     1      -0.574   0.828  24.085  0.00  0.00    +0.076 C 
ATOM     19  C   UNL     1      -0.998   1.533  24.153  0.00  0.00    +0.038 C 
ATOM     20  C   UNL     1      -1.809   1.513  24.299  0.00  0.00    +0.084 C 
ATOM     21  N   UNL     1      -2.197   0.790  24.378  0.00  0.00    -0.258 NA
ENDROOT
BRANCH  20  22
ATOM     22  C   UNL     1      -2.232   2.218  24.367  0.00  0.00    +0.020 A 
ATOM     23  C   UNL     1      -2.693   2.486  23.738  0.00  0.00    -0.001 A 
ATOM     24  C   UNL     1      -3.116   3.191  23.807  0.00  0.00    -0.000 A 
ATOM     25  C   UNL     1      -3.077   3.629  24.505  0.00  0.00    +0.002 A 
ATOM     26  C   UNL     1      -2.617   3.361  25.134  0.00  0.00    +0.029 A 
ATOM     27  C   UNL     1      -2.194   2.656  25.066  0.00  0.00    +0.137 A 
ATOM     28  F   UNL     1      -1.919   2.804  25.873  0.00  0.00    -0.204 F 
ENDBRANCH  20  22
BRANCH   5   3
ATOM      3  C   UNL     1      -3.728   1.338  24.648  0.00  0.00    +0.332 C 
ATOM      4  O   UNL     1      -4.383   1.913  24.120  0.00  0.00    -0.249 OA
BRANCH   3   2
ATOM      1  C   UNL     1      -5.150   1.617  25.467  0.00  0.00    +0.256 C 
ATOM      2  O   UNL     1      -4.314   1.754  25.270  0.00  0.00    -0.443 OA
ENDBRANCH   3   2
ENDBRANCH   5   3
BRANCH  18  29
ATOM     29  N   UNL     1       0.258   0.852  23.935  0.00  0.00    -0.217 NA
BRANCH  29  30
ATOM     30  C   UNL     1       0.519   0.509  23.198  0.00  0.00    +0.118 C 
BRANCH  30  31
ATOM     31  C   UNL     1       1.349   0.532  23.094  0.00  0.00    +0.133 C 
ATOM     32  C   UNL     1       1.761  -0.027  22.650  0.00  0.00    +0.034 C 
ATOM     33  C   UNL     1       2.561   0.171  22.670  0.00  0.00    +0.035 C 
ATOM     34  C   UNL     1       2.644   0.853  23.127  0.00  0.00    +0.142 C 
ATOM     35  O   UNL     1       1.894   1.076  23.389  0.00  0.00    -0.355 OA
ENDBRANCH  30  31
ENDBRANCH  29  30
ENDBRANCH  18  29
TORSDOF 6
ENDMDL
MODEL 5
REMARK VINA RESULT:     -11.6      1.630      5.428
REMARK  Name = 
REMARK  6 active torsions:
REMARK  status: ('A' for Active; 'I' for Inactive)
REMARK    1  A    between atoms: O_2  and  C_3
REMARK    2  A    between atoms: C_3  and  C_5
REMARK    3  A    between atoms: C_18  and  N_29
REMARK    4  A    between atoms: C_20  and  C_22
REMARK    5  A    between atoms: N_29  and  C_30
REMARK    6  A    between atoms: C_30  and  C_31
REMARK                            x       y       z     vdW  Elec       q    Type
REMARK                         _______ _______ _______ _____ _____    ______ ____
ROOT
ATOM      5  C   UNL     1      -1.837   0.236  24.598  0.00  0.00    +0.162 C 
ATOM      6  C   UNL     1      -2.027  -0.558  24.487  0.00  0.00    +0.055 C 
ATOM      7  C   UNL     1      -2.816  -0.787  24.412  0.00  0.00    -0.004 A 
ATOM      8  C   UNL     1      -3.415  -0.221  24.448  0.00  0.00    +0.070 A 
ATOM      9  N   UNL     1      -4.138  -0.608  24.357  0.00  0.00    -0.249 NA
ATOM     10  C   UNL     1      -3.987  -1.414  24.265  0.00  0.00    +0.081 A 
ATOM     11  C   UNL     1      -3.169  -1.524  24.299  0.00  0.00    +0.015 A 
ATOM     12  C   UNL     1      -2.852  -2.282  24.222  0.00  0.00    +0.001 A 
ATOM     13  C   UNL     1      -3.351  -2.930  24.112  0.00  0.00    +0.000 A 
ATOM     14  C   UNL     1      -4.169  -2.819  24.078  0.00  0.00    +0.002 A 
ATOM     15  C   UNL     1      -4.486  -2.061  24.154  0.00  0.00    +0.019 A 
ATOM     16  C   UNL     1      -3.225   0.574  24.559  0.00  0.00    +0.100 C 
ATOM     17  C   UNL     1      -3.823   1.141  24.595  0.00  0.00    +0.040 C 
ATOM     18  C   UNL     1      -3.633   1.935  24.706  0.00  0.00    +0.076 C 
ATOM     19  C   UNL     1      -2.844   2.164  24.781  0.00  0.00    +0.038 C 
ATOM     20  C   UNL     1      -2.246   1.597  24.745  0.00  0.00    +0.084 C 
ATOM     21  N   UNL     1      -2.436   0.803  24.634  0.00  0.00    -0.258 NA
ENDROOT
BRANCH  20  22
ATOM     22  C   UNL     1      -1.456   1.827  24.820  0.00  0.00    +0.020 A 
ATOM     23  C   UNL     1      -1.062   1.720  25.535  0.00  0.00    -0.001 A 
ATOM     24  C   UNL     1      -0.273   1.949  25.610  0.00  0.00    -0.000 A 
ATOM     25  C   UNL     1       0.121   2.287  24.967  0.00  0.00    +0.002 A 
ATOM     26  C   UNL     1      -0.274   2.394  24.252  0.00  0.00    +0.029 A 
ATOM     27  C   UNL     1      -1.063   2.164  24.178  0.00  0.00    +0.137 A 
ATOM     28  F   UNL     1      -1.014   2.448  23.361  0.00  0.00    -0.204 F 
ENDBRANCH  20  22
BRANCH   5   3
ATOM      3  C   UNL     1      -0.917   0.164  24.643  0.00  0.00    +0.332 C 
ATOM      4  O   UNL     1      -0.158   0.104  25.321  0.00  0.00    -0.249 OA
BRANCH   3   2
ATOM      1  C   UNL     1       0.361  -0.583  23.881  0.00  0.00    +0.256 C 
ATOM      2  O   UNL     1      -0.101   0.099  24.159  0.00  0.00    -0.443 OA
ENDBRANCH   3   2
ENDBRANCH   5   3
BRANCH  18  29
ATOM     29  N   UNL     1      -4.244   2.519  24.743  0.00  0.00    -0.217 NA
BRANCH  29  30
ATOM     30  C   UNL     1      -4.569   2.678  25.516  0.00  0.00    +0.118 C 
BRANCH  30  31
ATOM     31  C   UNL     1      -5.103   3.321  25.529  0.00  0.00    +0.133 C 
ATOM     32  C   UNL     1      -5.903   3.236  25.712  0.00  0.00    +0.034 C 
ATOM     33  C   UNL     1      -6.254   3.981  25.670  0.00  0.00    +0.035 C 
ATOM     34  C   UNL     1      -5.672   4.527  25.462  0.00  0.00    +0.142 C 
ATOM     35  O   UNL     1      -4.960   4.119  25.374  0.00  0.00    -0.355 OA
ENDBRANCH  30  31
ENDBRANCH  29  30
ENDBRANCH  18  29
TORSDOF 6
ENDMDL
MODEL 6
REMARK VINA RESULT:     -11.6      1.552      4.474
REMARK  Name = 
REMARK  6 active torsions:
REMARK  status: ('A' for Active; 'I' for Inactive)
REMARK    1  A    between atoms: O_2  and  C_3
REMARK    2  A    between atoms: C_3  and  C_5
REMARK    3  A    between atoms: C_18  and  N_29
REMARK    4  A    between atoms: C_20  and  C_22
REMARK    5  A    between atoms: N_29  and  C_30
REMARK    6  A    between atoms: C_30  and  C_31
REMARK                            x       y       z     vdW  Elec       q    Type
REMARK                         _______ _______ _______ _____ _____    ______ ____
ROOT
ATOM      5  C   UNL     1      -2.055  -0.542  24.574  0.00  0.00    +0.162 C 
ATOM      6  C   UNL     1      -1.313  -0.202  24.461  0.00  0.00    +0.055 C 
ATOM      7  C   UNL     1      -1.227   0.618  24.483  0.00  0.00    -0.004 A 
ATOM      8  C   UNL     1      -1.884   1.099  24.617  0.00  0.00    +0.070 A 
ATOM      9  N   UNL     1      -1.632   1.884  24.608  0.00  0.00    -0.249 NA
ATOM     10  C   UNL     1      -0.819   1.890  24.468  0.00  0.00    +0.081 A 
ATOM     11  C   UNL     1      -0.569   1.106  24.391  0.00  0.00    +0.015 A 
ATOM     12  C   UNL     1       0.226   0.940  24.247  0.00  0.00    +0.001 A 
ATOM     13  C   UNL     1       0.772   1.557  24.180  0.00  0.00    +0.000 A 
ATOM     14  C   UNL     1       0.521   2.340  24.258  0.00  0.00    +0.002 A 
ATOM     15  C   UNL     1      -0.274   2.506  24.402  0.00  0.00    +0.019 A 
ATOM     16  C   UNL     1      -2.627   0.759  24.730  0.00  0.00    +0.100 C 
ATOM     17  C   UNL     1      -3.285   1.238  24.864  0.00  0.00    +0.040 C 
ATOM     18  C   UNL     1      -4.027   0.898  24.977  0.00  0.00    +0.076 C 
ATOM     19  C   UNL     1      -4.113   0.078  24.955  0.00  0.00    +0.038 C 
ATOM     20  C   UNL     1      -3.456  -0.402  24.821  0.00  0.00    +0.084 C 
ATOM     21  N   UNL     1      -2.713  -0.062  24.708  0.00  0.00    -0.258 NA
ENDROOT
BRANCH  20  22
ATOM     22  C   UNL     1      -3.542  -1.222  24.800  0.00  0.00    +0.020 A 
ATOM     23  C   UNL     1      -3.324  -1.678  25.452  0.00  0.00    -0.001 A 
ATOM     24  C   UNL     1      -3.411  -2.498  25.429  0.00  0.00    -0.000 A 
ATOM     25  C   UNL     1      -3.717  -2.862  24.755  0.00  0.00    +0.002 A 
ATOM     26  C   UNL     1      -3.935  -2.407  24.103  0.00  0.00    +0.029 A 
ATOM     27  C   UNL     1      -3.848  -1.587  24.125  0.00  0.00    +0.137 A 
ATOM     28  F   UNL     1      -4.170  -1.583  23.322  0.00  0.00    -0.204 F 
ENDBRANCH  20  22
BRANCH   5   3
ATOM      3  C   UNL     1      -1.824  -1.433  24.495  0.00  0.00    +0.332 C 
ATOM      4  O   UNL     1      -1.811  -2.191  23.814  0.00  0.00    -0.249 OA
BRANCH   3   2
ATOM      1  C   UNL     1      -0.677  -2.551  24.950  0.00  0.00    +0.256 C 
ATOM      2  O   UNL     1      -1.474  -2.204  24.928  0.00  0.00    -0.443 OA
ENDBRANCH   3   2
ENDBRANCH   5   3
BRANCH  18  29
ATOM     29  N   UNL     1      -4.704   1.387  25.115  0.00  0.00    -0.217 NA
BRANCH  29  30
ATOM     30  C   UNL     1      -4.709   2.146  24.725  0.00  0.00    +0.118 C 
BRANCH  30  31
ATOM     31  C   UNL     1      -5.201   2.710  25.096  0.00  0.00    +0.133 C 
ATOM     32  C   UNL     1      -4.979   3.497  25.204  0.00  0.00    +0.034 C 
ATOM     33  C   UNL     1      -5.598   3.886  25.586  0.00  0.00    +0.035 C 
ATOM     34  C   UNL     1      -6.202   3.340  25.714  0.00  0.00    +0.142 C 
ATOM     35  O   UNL     1      -5.957   2.612  25.411  0.00  0.00    -0.355 OA
ENDBRANCH  30  31
ENDBRANCH  29  30
ENDBRANCH  18  29
TORSDOF 6
ENDMDL
MODEL 7
REMARK VINA RESULT:     -11.4      1.819      5.034
REMARK  Name = 
REMARK  6 active torsions:
REMARK  status: ('A' for Active; 'I' for Inactive)
REMARK    1  A    between atoms: O_2  and  C_3
REMARK    2  A    between atoms: C_3  and  C_5
REMARK    3  A    between atoms: C_18  and  N_29
REMARK    4  A    between atoms: C_20  and  C_22
REMARK    5  A    between atoms: N_29  and  C_30
REMARK    6  A    between atoms: C_30  and  C_31
REMARK                            x       y       z     vdW  Elec       q    Type
REMARK                         _______ _______ _______ _____ _____    ______ ____
ROOT
ATOM      5  C   UNL     1      -3.001   0.167  25.049  0.00  0.00    +0.162 C 
ATOM      6  C   UNL     1      -3.822   0.236  25.051  0.00  0.00    +0.055 C 
ATOM      7  C   UNL     1      -4.173   0.981  24.995  0.00  0.00    -0.004 A 
ATOM      8  C   UNL     1      -3.703   1.656  24.936  0.00  0.00    +0.070 A 
ATOM      9  N   UNL     1      -4.202   2.311  24.889  0.00  0.00    -0.249 NA
ATOM     10  C   UNL     1      -4.982   2.042  24.917  0.00  0.00    +0.081 A 
ATOM     11  C   UNL     1      -4.963   1.219  24.983  0.00  0.00    +0.015 A 
ATOM     12  C   UNL     1      -5.669   0.793  25.024  0.00  0.00    +0.001 A 
ATOM     13  C   UNL     1      -6.393   1.189  24.999  0.00  0.00    +0.000 A 
ATOM     14  C   UNL     1      -6.410   2.012  24.933  0.00  0.00    +0.002 A 
ATOM     15  C   UNL     1      -5.704   2.438  24.893  0.00  0.00    +0.019 A 
ATOM     16  C   UNL     1      -2.881   1.587  24.934  0.00  0.00    +0.100 C 
ATOM     17  C   UNL     1      -2.410   2.261  24.876  0.00  0.00    +0.040 C 
ATOM     18  C   UNL     1      -1.589   2.192  24.873  0.00  0.00    +0.076 C 
ATOM     19  C   UNL     1      -1.237   1.448  24.930  0.00  0.00    +0.038 C 
ATOM     20  C   UNL     1      -1.708   0.774  24.988  0.00  0.00    +0.084 C 
ATOM     21  N   UNL     1      -2.530   0.843  24.990  0.00  0.00    -0.258 NA
ENDROOT
BRANCH  20  22
ATOM     22  C   UNL     1      -1.356   0.029  25.044  0.00  0.00    +0.020 A 
ATOM     23  C   UNL     1      -1.314  -0.354  25.773  0.00  0.00    -0.001 A 
ATOM     24  C   UNL     1      -0.962  -1.098  25.828  0.00  0.00    -0.000 A 
ATOM     25  C   UNL     1      -0.651  -1.458  25.154  0.00  0.00    +0.002 A 
ATOM     26  C   UNL     1      -0.692  -1.075  24.425  0.00  0.00    +0.029 A 
ATOM     27  C   UNL     1      -1.045  -0.331  24.370  0.00  0.00    +0.137 A 
ATOM     28  F   UNL     1      -0.859  -0.364  23.525  0.00  0.00    -0.204 F 
ENDBRANCH  20  22
BRANCH   5   3
ATOM      3  C   UNL     1      -2.929  -0.751  25.121  0.00  0.00    +0.332 C 
ATOM      4  O   UNL     1      -2.773  -1.482  25.814  0.00  0.00    -0.249 OA
BRANCH   3   2
ATOM      1  C   UNL     1      -3.563  -2.193  24.581  0.00  0.00    +0.256 C 
ATOM      2  O   UNL     1      -2.945  -1.587  24.668  0.00  0.00    -0.443 OA
ENDBRANCH   3   2
ENDBRANCH   5   3
BRANCH  18  29
ATOM     29  N   UNL     1      -1.102   2.882  24.814  0.00  0.00    -0.217 NA
BRANCH  29  30
ATOM     30  C   UNL     1      -1.238   3.492  25.395  0.00  0.00    +0.118 C 
BRANCH  30  31
ATOM     31  C   UNL     1      -1.037   4.259  25.128  0.00  0.00    +0.133 C 
ATOM     32  C   UNL     1      -1.505   4.922  25.276  0.00  0.00    +0.034 C 
ATOM     33  C   UNL     1      -1.137   5.575  24.933  0.00  0.00    +0.035 C 
ATOM     34  C   UNL     1      -0.441   5.316  24.572  0.00  0.00    +0.142 C 
ATOM     35  O   UNL     1      -0.380   4.502  24.693  0.00  0.00    -0.355 OA
ENDBRANCH  30  31
ENDBRANCH  29  30
ENDBRANCH  18  29
TORSDOF 6
ENDMDL
MODEL 8
REMARK VINA RESULT:     -11.3      1.406      1.866
REMARK  Name = 
REMARK  6 active torsions:
REMARK  status: ('A' for Active; 'I' for Inactive)
REMARK    1  A    between atoms: O_2  and  C_3
REMARK    2  A    between atoms: C_3  and  C_5
REMARK    3  A    between atoms: C_18  and  N_29
REMARK    4  A    between atoms: C_20  and  C_22
REMARK    5  A    between atoms: N_29  and  C_30
REMARK    6  A    between atoms: C_30  and  C_31
REMARK                            x       y       z     vdW  Elec       q    Type
REMARK                         _______ _______ _______ _____ _____    ______ ____
ROOT
ATOM      5  C   UNL     1      -3.099   2.401  24.879  0.00  0.00    +0.162 C 
ATOM      6  C   UNL     1      -2.304   2.617  24.861  0.00  0.00    +0.055 C 
ATOM      7  C   UNL     1      -1.733   2.070  24.627  0.00  0.00    -0.004 A 
ATOM      8  C   UNL     1      -1.957   1.306  24.411  0.00  0.00    +0.070 A 
ATOM      9  N   UNL     1      -1.276   0.888  24.206  0.00  0.00    -0.249 NA
ATOM     10  C   UNL     1      -0.630   1.393  24.294  0.00  0.00    +0.081 A 
ATOM     11  C   UNL     1      -0.913   2.124  24.555  0.00  0.00    +0.015 A 
ATOM     12  C   UNL     1      -0.386   2.744  24.692  0.00  0.00    +0.001 A 
ATOM     13  C   UNL     1       0.423   2.635  24.569  0.00  0.00    +0.000 A 
ATOM     14  C   UNL     1       0.705   1.903  24.309  0.00  0.00    +0.002 A 
ATOM     15  C   UNL     1       0.179   1.283  24.172  0.00  0.00    +0.019 A 
ATOM     16  C   UNL     1      -2.753   1.089  24.430  0.00  0.00    +0.100 C 
ATOM     17  C   UNL     1      -2.978   0.325  24.215  0.00  0.00    +0.040 C 
ATOM     18  C   UNL     1      -3.774   0.109  24.233  0.00  0.00    +0.076 C 
ATOM     19  C   UNL     1      -4.345   0.657  24.467  0.00  0.00    +0.038 C 
ATOM     20  C   UNL     1      -4.119   1.420  24.683  0.00  0.00    +0.084 C 
ATOM     21  N   UNL     1      -3.324   1.637  24.664  0.00  0.00    -0.258 NA
ENDROOT
BRANCH  20  22
ATOM     22  C   UNL     1      -4.691   1.967  24.917  0.00  0.00    +0.020 A 
ATOM     23  C   UNL     1      -4.900   2.587  24.414  0.00  0.00    -0.001 A 
ATOM     24  C   UNL     1      -5.472   3.133  24.649  0.00  0.00    -0.000 A 
ATOM     25  C   UNL     1      -5.835   3.060  25.387  0.00  0.00    +0.002 A 
ATOM     26  C   UNL     1      -5.625   2.441  25.889  0.00  0.00    +0.029 A 
ATOM     27  C   UNL     1      -5.054   1.894  25.655  0.00  0.00    +0.137 A 
ATOM     28  F   UNL     1      -5.182   1.510  26.419  0.00  0.00    -0.204 F 
ENDBRANCH  20  22
BRANCH   5   3
ATOM      3  C   UNL     1      -3.463   3.199  25.170  0.00  0.00    +0.332 C 
ATOM      4  O   UNL     1      -3.924   4.036  24.815  0.00  0.00    -0.249 OA
BRANCH   3   2
ATOM      1  C   UNL     1      -3.210   4.409  26.285  0.00  0.00    +0.256 C 
ATOM      2  O   UNL     1      -3.654   3.761  25.913  0.00  0.00    -0.443 OA
ENDBRANCH   3   2
ENDBRANCH   5   3
BRANCH  18  29
ATOM     29  N   UNL     1      -4.008  -0.673  24.013  0.00  0.00    -0.217 NA
BRANCH  29  30
ATOM     30  C   UNL     1      -3.983  -1.263  24.629  0.00  0.00    +0.118 C 
BRANCH  30  31
ATOM     31  C   UNL     1      -3.968  -2.048  24.340  0.00  0.00    +0.133 C 
ATOM     32  C   UNL     1      -3.511  -2.643  24.682  0.00  0.00    +0.034 C 
ATOM     33  C   UNL     1      -3.634  -3.337  24.254  0.00  0.00    +0.035 C 
ATOM     34  C   UNL     1      -4.168  -3.171  23.648  0.00  0.00    +0.142 C 
ATOM     35  O   UNL     1      -4.374  -2.374  23.701  0.00  0.00    -0.355 OA
ENDBRANCH  30  31
ENDBRANCH  29  30
ENDBRANCH  18  29
TORSDOF 6
ENDMDL
