MODEL 1
REMARK VINA RESULT:     -15.4      0.000      0.000
REMARK  Name = 
REMARK  3 active torsions:
REMARK  status: ('A' for Active; 'I' for Inactive)
REMARK    1  A    between atoms: C_7  and  N_10
REMARK    2  A    between atoms: C_17  and  N_18
REMARK    3  A    between atoms: N_21  and  C_22
REMARK                            x       y       z     vdW  Elec       q    Type
REMARK                         _______ _______ _______ _____ _____    ______ ____
ROOT
ATOM     10  N   UNL     1      -3.991   3.705  25.735  0.00  0.00    -0.273 NA
ATOM     11  C   UNL     1      -4.745   3.917  26.027  0.00  0.00    +0.074 C 
ATOM     12  C   UNL     1      -5.273   3.151  25.695  0.00  0.00    +0.039 C 
ATOM     13  C   UNL     1      -5.838   2.599  25.497  0.00  0.00    +0.011 C 
ATOM     14  C   UNL     1      -5.150   2.694  25.400  0.00  0.00    +0.056 C 
ATOM     15  C   UNL     1      -4.653   3.441  25.728  0.00  0.00    +0.078 C 
ATOM     16  C   UNL     1      -4.416   2.303  25.008  0.00  0.00    +0.056 A 
ATOM     17  C   UNL     1      -4.203   1.637  24.571  0.00  0.00    +0.087 A 
ATOM     29  C   UNL     1      -3.419   1.533  24.336  0.00  0.00    +0.023 A 
ATOM     30  C   UNL     1      -2.849   2.094  24.538  0.00  0.00    +0.062 A 
ATOM     31  C   UNL     1      -3.062   2.759  24.976  0.00  0.00    +0.261 A 
ATOM     32  O   UNL     1      -2.263   2.952  24.911  0.00  0.00    -0.267 OA
ATOM     33  N   UNL     1      -3.846   2.864  25.211  0.00  0.00    -0.298 N 
ATOM     34  C   UNL     1      -4.501   2.750  25.289  0.00  0.00    +0.110 C 
ENDROOT
BRANCH  10   7
ATOM      1  C   UNL     1      -0.480   4.310  24.470  0.00  0.00    +0.095 C 
ATOM      2  C   UNL     1      -0.752   3.910  25.137  0.00  0.00    +0.226 C 
ATOM      3  O   UNL     1      -0.214   3.560  25.656  0.00  0.00    -0.275 OA
ATOM      4  N   UNL     1      -1.561   3.858  25.287  0.00  0.00    -0.279 N 
ATOM      5  C   UNL     1      -1.833   3.458  25.955  0.00  0.00    +0.095 C 
ATOM      6  C   UNL     1      -2.643   3.406  26.105  0.00  0.00    +0.038 C 
ATOM      7  C   UNL     1      -3.181   3.756  25.586  0.00  0.00    +0.061 C 
ATOM      8  C   UNL     1      -2.910   4.157  24.918  0.00  0.00    +0.038 C 
ATOM      9  C   UNL     1      -2.100   4.208  24.768  0.00  0.00    +0.095 C 
ENDBRANCH  10   7
BRANCH  17  18
ATOM     18  N   UNL     1      -4.773   1.076  24.369  0.00  0.00    -0.160 NA
ATOM     19  C   UNL     1      -4.605   0.272  24.443  0.00  0.00    +0.348 C 
ATOM     20  O   UNL     1      -5.175  -0.289  24.241  0.00  0.00    -0.248 OA
ATOM     21  N   UNL     1      -3.866   0.029  24.720  0.00  0.00    -0.161 NA
BRANCH  21  22
ATOM     22  C   UNL     1      -3.698  -0.776  24.795  0.00  0.00    +0.075 A 
ATOM     23  C   UNL     1      -3.650  -1.252  24.124  0.00  0.00    +0.016 A 
ATOM     24  C   UNL     1      -3.481  -2.056  24.199  0.00  0.00    -0.003 A 
ATOM     25  C   UNL     1      -3.360  -2.384  24.947  0.00  0.00    -0.022 A 
ATOM     26  C   UNL     1      -3.191  -3.187  25.022  0.00  0.00    +0.031 C 
ATOM     27  C   UNL     1      -3.408  -1.907  25.618  0.00  0.00    -0.003 A 
ATOM     28  C   UNL     1      -3.577  -1.103  25.543  0.00  0.00    +0.016 A 
ENDBRANCH  21  22
ENDBRANCH  17  18
TORSDOF 3
ENDMDL
MODEL 2
REMARK VINA RESULT:     -13.7      1.436      4.608
REMARK  Name = 
REMARK  3 active torsions:
REMARK  status: ('A' for Active; 'I' for Inactive)
REMARK    1  A    between atoms: C_7  and  N_10
REMARK    2  A    between atoms: C_17  and  N_18
REMARK    3  A    between atoms: N_21  and  C_22
REMARK                            x       y       z     vdW  Elec       q    Type
REMARK                         _______ _______ _______ _____ _____    ______ ____
ROOT
ATOM     10  N   UNL     1      -4.366  -0.160  25.257  0.00  0.00    -0.273 NA
ATOM     11  C   UNL     1      -5.113   0.064  25.556  0.00  0.00    +0.074 C 
ATOM     12  C   UNL     1      -5.174   0.977  25.182  0.00  0.00    +0.039 C 
ATOM     13  C   UNL     1      -5.376   1.732  24.952  0.00  0.00    +0.011 C 
ATOM     14  C   UNL     1      -4.839   1.288  24.863  0.00  0.00    +0.056 C 
ATOM     15  C   UNL     1      -4.795   0.409  25.232  0.00  0.00    +0.078 C 
ATOM     16  C   UNL     1      -4.019   1.222  24.455  0.00  0.00    +0.056 A 
ATOM     17  C   UNL     1      -3.501   1.658  23.983  0.00  0.00    +0.087 A 
ATOM     29  C   UNL     1      -2.782   1.328  23.747  0.00  0.00    +0.023 A 
ATOM     30  C   UNL     1      -2.582   0.563  23.981  0.00  0.00    +0.062 A 
ATOM     31  C   UNL     1      -3.100   0.127  24.452  0.00  0.00    +0.261 A 
ATOM     32  O   UNL     1      -2.518  -0.455  24.402  0.00  0.00    -0.267 OA
ATOM     33  N   UNL     1      -3.818   0.457  24.689  0.00  0.00    -0.298 N 
ATOM     34  C   UNL     1      -4.316   0.898  24.758  0.00  0.00    +0.110 C 
ENDROOT
BRANCH  10   7
ATOM      1  C   UNL     1      -1.067  -2.006  25.187  0.00  0.00    +0.095 C 
ATOM      2  C   UNL     1      -1.720  -2.047  24.685  0.00  0.00    +0.226 C 
ATOM      3  O   UNL     1      -1.712  -2.562  24.040  0.00  0.00    -0.275 OA
ATOM      4  N   UNL     1      -2.381  -1.576  24.828  0.00  0.00    -0.279 N 
ATOM      5  C   UNL     1      -3.035  -1.618  24.326  0.00  0.00    +0.095 C 
ATOM      6  C   UNL     1      -3.696  -1.146  24.469  0.00  0.00    +0.038 C 
ATOM      7  C   UNL     1      -3.704  -0.632  25.114  0.00  0.00    +0.061 C 
ATOM      8  C   UNL     1      -3.051  -0.589  25.616  0.00  0.00    +0.038 C 
ATOM      9  C   UNL     1      -2.390  -1.061  25.473  0.00  0.00    +0.095 C 
ENDBRANCH  10   7
BRANCH  17  18
ATOM     18  N   UNL     1      -3.701   2.423  23.749  0.00  0.00    -0.160 NA
ATOM     19  C   UNL     1      -3.205   3.055  23.936  0.00  0.00    +0.348 C 
ATOM     20  O   UNL     1      -3.405   3.820  23.701  0.00  0.00    -0.248 OA
ATOM     21  N   UNL     1      -2.509   2.921  24.357  0.00  0.00    -0.161 NA
BRANCH  21  22
ATOM     22  C   UNL     1      -2.012   3.553  24.544  0.00  0.00    +0.075 A 
ATOM     23  C   UNL     1      -2.246   4.112  25.104  0.00  0.00    +0.016 A 
ATOM     24  C   UNL     1      -1.749   4.743  25.290  0.00  0.00    -0.003 A 
ATOM     25  C   UNL     1      -1.017   4.816  24.918  0.00  0.00    -0.022 A 
ATOM     26  C   UNL     1      -0.520   5.447  25.104  0.00  0.00    +0.031 C 
ATOM     27  C   UNL     1      -0.782   4.257  24.358  0.00  0.00    -0.003 A 
ATOM     28  C   UNL     1      -1.279   3.626  24.172  0.00  0.00    +0.016 A 
ENDBRANCH  21  22
ENDBRANCH  17  18
TORSDOF 3
ENDMDL
MODEL 3
REMARK VINA RESULT:     -13.4      1.425      2.916
REMARK  Name = 
REMARK  3 active torsions:
REMARK  status: ('A' for Active; 'I' for Inactive)
REMARK    1  A    between atoms: C_7  and  N_10
REMARK    2  A    between atoms: C_17  and  N_18
REMARK    3  A    between atoms: N_21  and  C_22
REMARK                            x       y       z     vdW  Elec       q    Type
REMARK                         _______ _______ _______ _____ _____    ______ ____
ROOT
ATOM     10  N   UNL     1      -1.534   3.373  25.605  0.00  0.00    -0.273 NA
ATOM     11  C   UNL     1      -0.739   3.495  25.829  0.00  0.00    +0.074 C 
ATOM     12  C   UNL     1      -0.354   2.628  25.552  0.00  0.00    +0.039 C 
ATOM     13  C   UNL     1       0.108   1.979  25.383  0.00  0.00    +0.011 C 
ATOM     14  C   UNL     1      -0.564   2.169  25.315  0.00  0.00    +0.056 C 
ATOM     15  C   UNL     1      -0.921   3.012  25.588  0.00  0.00    +0.078 C 
ATOM     16  C   UNL     1      -1.373   1.858  25.010  0.00  0.00    +0.056 A 
ATOM     17  C   UNL     1      -1.714   1.194  24.660  0.00  0.00    +0.087 A 
ATOM     29  C   UNL     1      -2.519   1.188  24.483  0.00  0.00    +0.023 A 
ATOM     30  C   UNL     1      -2.985   1.847  24.655  0.00  0.00    +0.062 A 
ATOM     31  C   UNL     1      -2.644   2.512  25.006  0.00  0.00    +0.261 A 
ATOM     32  O   UNL     1      -3.409   2.817  24.966  0.00  0.00    -0.267 OA
ATOM     33  N   UNL     1      -1.839   2.517  25.183  0.00  0.00    -0.298 N 
ATOM     34  C   UNL     1      -1.204   2.312  25.236  0.00  0.00    +0.110 C 
ENDROOT
BRANCH  10   7
ATOM      1  C   UNL     1      -5.284   3.832  25.769  0.00  0.00    +0.095 C 
ATOM      2  C   UNL     1      -4.743   4.013  25.173  0.00  0.00    +0.226 C 
ATOM      3  O   UNL     1      -5.005   4.356  24.469  0.00  0.00    -0.275 OA
ATOM      4  N   UNL     1      -3.941   3.854  25.281  0.00  0.00    -0.279 N 
ATOM      5  C   UNL     1      -3.400   4.035  24.686  0.00  0.00    +0.095 C 
ATOM      6  C   UNL     1      -2.598   3.875  24.793  0.00  0.00    +0.038 C 
ATOM      7  C   UNL     1      -2.337   3.533  25.497  0.00  0.00    +0.061 C 
ATOM      8  C   UNL     1      -2.877   3.351  26.093  0.00  0.00    +0.038 C 
ATOM      9  C   UNL     1      -3.680   3.511  25.985  0.00  0.00    +0.095 C 
ENDBRANCH  10   7
BRANCH  17  18
ATOM     18  N   UNL     1      -1.248   0.535  24.487  0.00  0.00    -0.160 NA
ATOM     19  C   UNL     1      -1.579  -0.221  24.505  0.00  0.00    +0.348 C 
ATOM     20  O   UNL     1      -1.114  -0.880  24.332  0.00  0.00    -0.248 OA
ATOM     21  N   UNL     1      -2.376  -0.317  24.696  0.00  0.00    -0.161 NA
BRANCH  21  22
ATOM     22  C   UNL     1      -2.708  -1.072  24.714  0.00  0.00    +0.075 A 
ATOM     23  C   UNL     1      -2.604  -1.554  25.376  0.00  0.00    +0.016 A 
ATOM     24  C   UNL     1      -2.936  -2.308  25.393  0.00  0.00    -0.003 A 
ATOM     25  C   UNL     1      -3.373  -2.582  24.749  0.00  0.00    -0.022 A 
ATOM     26  C   UNL     1      -3.705  -3.337  24.767  0.00  0.00    +0.031 C 
ATOM     27  C   UNL     1      -3.478  -2.100  24.088  0.00  0.00    -0.003 A 
ATOM     28  C   UNL     1      -3.145  -1.346  24.070  0.00  0.00    +0.016 A 
ENDBRANCH  21  22
ENDBRANCH  17  18
TORSDOF 3
ENDMDL
