MODEL 1
REMARK VINA RESULT:     -10.3      0.000      0.000
REMARK  Name = 
REMARK  7 active torsions:
REMARK  status: ('A' for Active; 'I' for Inactive)
REMARK    1  A    between atoms: C_2  and  C_3
REMARK    2  A    between atoms: C_3  and  C_4
REMARK    3  A    between atoms: C_7  and  C_8
REMARK    4  A    between atoms: C_8  and  C_9
REMARK    5  A    between atoms: C_11  and  C_12
REMARK    6  A    between atoms: C_15  and  C_16
REMARK    7  A    between atoms: C_16  and  N_17
REMARK                            x       y       z     vdW  Elec       q    Type
REMARK                         _______ _______ _______ _____ _____    ______ ____
ROOT
ATOM      9  C   UNL     1      -3.472   3.238  24.203  0.00  0.00    +0.027 C 
ATOM     10  C   UNL     1      -4.030   3.339  24.802  0.00  0.00    +0.005 C 
ATOM     11  C   UNL     1      -4.528   2.716  25.013  0.00  0.00    +0.006 C 
ATOM     15  C   UNL     1      -4.469   1.992  24.624  0.00  0.00    +0.037 C 
ATOM     29  C   UNL     1      -3.911   1.890  24.024  0.00  0.00    -0.034 C 
ATOM     30  C   UNL     1      -3.413   2.513  23.814  0.00  0.00    -0.048 C 
ATOM     31  C   UNL     1      -2.855   2.411  23.215  0.00  0.00    +0.026 C 
ENDROOT
BRANCH  11  12
ATOM     12  C   UNL     1      -5.086   2.818  25.613  0.00  0.00    +0.000 C 
ATOM     13  C   UNL     1      -5.883   2.907  25.422  0.00  0.00    +0.000 C 
ATOM     14  C   UNL     1      -4.845   2.832  26.401  0.00  0.00    +0.000 C 
ENDBRANCH  11  12
BRANCH   9   8
ATOM      8  C   UNL     1      -2.974   3.861  23.993  0.00  0.00    +0.091 C 
BRANCH   8   7
ATOM      4  C   UNL     1      -1.224   4.049  25.201  0.00  0.00    +0.226 A 
ATOM      5  N   UNL     1      -1.577   4.785  25.316  0.00  0.00    -0.112 NA
ATOM      6  N   UNL     1      -2.276   4.805  24.877  0.00  0.00    -0.112 NA
ATOM      7  C   UNL     1      -2.355   4.080  24.491  0.00  0.00    +0.226 A 
ATOM     32  O   UNL     1      -1.704   3.613  24.691  0.00  0.00    -0.423 OA
BRANCH   4   3
ATOM      3  C   UNL     1      -0.515   3.793  25.536  0.00  0.00    +0.087 C 
BRANCH   3   2
ATOM      1  C   UNL     1       0.221   2.719  26.123  0.00  0.00    +0.001 C 
ATOM      2  C   UNL     1      -0.496   3.102  25.984  0.00  0.00    +0.010 C 
ENDBRANCH   3   2
ENDBRANCH   4   3
ENDBRANCH   8   7
ENDBRANCH   9   8
BRANCH  15  16
ATOM     16  C   UNL     1      -4.967   1.368  24.834  0.00  0.00    +0.076 C 
BRANCH  16  17
ATOM     17  N   UNL     1      -4.696   0.591  24.788  0.00  0.00    -0.269 NA
ATOM     18  C   UNL     1      -4.251   0.271  25.406  0.00  0.00    +0.094 C 
ATOM     19  C   UNL     1      -3.980  -0.506  25.361  0.00  0.00    +0.111 C 
ATOM     20  N   UNL     1      -4.154  -0.965  24.697  0.00  0.00    -0.275 N 
ATOM     21  C   UNL     1      -4.598  -0.646  24.080  0.00  0.00    +0.111 C 
ATOM     22  C   UNL     1      -4.869   0.131  24.125  0.00  0.00    +0.094 C 
ATOM     23  C   UNL     1      -3.883  -1.743  24.653  0.00  0.00    +0.220 A 
ATOM     24  N   UNL     1      -3.438  -2.062  25.270  0.00  0.00    -0.212 NA
ATOM     25  C   UNL     1      -3.167  -2.839  25.225  0.00  0.00    +0.103 A 
ATOM     26  C   UNL     1      -3.340  -3.299  24.562  0.00  0.00    +0.041 A 
ATOM     27  C   UNL     1      -3.785  -2.980  23.945  0.00  0.00    +0.103 A 
ATOM     28  N   UNL     1      -4.056  -2.203  23.989  0.00  0.00    -0.212 NA
ENDBRANCH  16  17
ENDBRANCH  15  16
TORSDOF 7
ENDMDL
MODEL 2
REMARK VINA RESULT:      -9.8      2.910      4.398
REMARK  Name = 
REMARK  7 active torsions:
REMARK  status: ('A' for Active; 'I' for Inactive)
REMARK    1  A    between atoms: C_2  and  C_3
REMARK    2  A    between atoms: C_3  and  C_4
REMARK    3  A    between atoms: C_7  and  C_8
REMARK    4  A    between atoms: C_8  and  C_9
REMARK    5  A    between atoms: C_11  and  C_12
REMARK    6  A    between atoms: C_15  and  C_16
REMARK    7  A    between atoms: C_16  and  N_17
REMARK                            x       y       z     vdW  Elec       q    Type
REMARK                         _______ _______ _______ _____ _____    ______ ____
ROOT
ATOM      9  C   UNL     1      -3.689   0.860  24.155  0.00  0.00    +0.027 C 
ATOM     10  C   UNL     1      -3.749   0.246  24.703  0.00  0.00    +0.005 C 
ATOM     11  C   UNL     1      -3.096  -0.232  24.861  0.00  0.00    +0.006 C 
ATOM     15  C   UNL     1      -2.382  -0.096  24.472  0.00  0.00    +0.037 C 
ATOM     29  C   UNL     1      -2.321   0.518  23.924  0.00  0.00    -0.034 C 
ATOM     30  C   UNL     1      -2.974   0.996  23.766  0.00  0.00    -0.048 C 
ATOM     31  C   UNL     1      -2.914   1.610  23.218  0.00  0.00    +0.026 C 
ENDROOT
BRANCH  11  12
ATOM     12  C   UNL     1      -3.157  -0.846  25.409  0.00  0.00    +0.000 C 
ATOM     13  C   UNL     1      -3.451  -1.580  25.174  0.00  0.00    +0.000 C 
ATOM     14  C   UNL     1      -2.924  -0.725  26.191  0.00  0.00    +0.000 C 
ENDBRANCH  11  12
BRANCH   9   8
ATOM      8  C   UNL     1      -4.342   1.338  23.997  0.00  0.00    +0.091 C 
BRANCH   8   7
ATOM      4  C   UNL     1      -4.771   2.821  25.472  0.00  0.00    +0.226 A 
ATOM      5  N   UNL     1      -5.452   2.358  25.509  0.00  0.00    -0.112 NA
ATOM      6  N   UNL     1      -5.375   1.746  24.960  0.00  0.00    -0.112 NA
ATOM      7  C   UNL     1      -4.645   1.831  24.585  0.00  0.00    +0.226 A 
ATOM     32  O   UNL     1      -4.271   2.495  24.901  0.00  0.00    -0.423 OA
BRANCH   4   3
ATOM      3  C   UNL     1      -4.615   3.492  25.926  0.00  0.00    +0.087 C 
BRANCH   3   2
ATOM      1  C   UNL     1      -3.568   4.286  26.487  0.00  0.00    +0.001 C 
ATOM      2  C   UNL     1      -3.897   3.888  25.843  0.00  0.00    +0.010 C 
ENDBRANCH   3   2
ENDBRANCH   4   3
ENDBRANCH   8   7
ENDBRANCH   9   8
BRANCH  15  16
ATOM     16  C   UNL     1      -1.728  -0.574  24.630  0.00  0.00    +0.076 C 
BRANCH  16  17
ATOM     17  N   UNL     1      -1.001  -0.408  24.278  0.00  0.00    -0.269 NA
ATOM     18  C   UNL     1      -0.742  -0.855  23.634  0.00  0.00    +0.094 C 
ATOM     19  C   UNL     1      -0.016  -0.689  23.282  0.00  0.00    +0.111 C 
ATOM     20  N   UNL     1       0.454  -0.076  23.572  0.00  0.00    -0.275 N 
ATOM     21  C   UNL     1       0.195   0.371  24.215  0.00  0.00    +0.111 C 
ATOM     22  C   UNL     1      -0.532   0.206  24.568  0.00  0.00    +0.094 C 
ATOM     23  C   UNL     1       1.180   0.090  23.219  0.00  0.00    +0.220 A 
ATOM     24  N   UNL     1       1.439  -0.358  22.576  0.00  0.00    -0.212 NA
ATOM     25  C   UNL     1       2.166  -0.192  22.224  0.00  0.00    +0.103 A 
ATOM     26  C   UNL     1       2.635   0.422  22.514  0.00  0.00    +0.041 A 
ATOM     27  C   UNL     1       2.376   0.869  23.157  0.00  0.00    +0.103 A 
ATOM     28  N   UNL     1       1.650   0.703  23.510  0.00  0.00    -0.212 NA
ENDBRANCH  16  17
ENDBRANCH  15  16
TORSDOF 7
ENDMDL
MODEL 3
REMARK VINA RESULT:      -9.3      2.356      3.630
REMARK  Name = 
REMARK  7 active torsions:
REMARK  status: ('A' for Active; 'I' for Inactive)
REMARK    1  A    between atoms: C_2  and  C_3
REMARK    2  A    between atoms: C_3  and  C_4
REMARK    3  A    between atoms: C_7  and  C_8
REMARK    4  A    between atoms: C_8  and  C_9
REMARK    5  A    between atoms: C_11  and  C_12
REMARK    6  A    between atoms: C_15  and  C_16
REMARK    7  A    between atoms: C_16  and  N_17
REMARK                            x       y       z     vdW  Elec       q    Type
REMARK                         _______ _______ _______ _____ _____    ______ ____
ROOT
ATOM      9  C   UNL     1      -3.449   3.498  24.253  0.00  0.00    +0.027 C 
ATOM     10  C   UNL     1      -2.953   3.904  24.771  0.00  0.00    +0.005 C 
ATOM     11  C   UNL     1      -2.183   3.636  24.902  0.00  0.00    +0.006 C 
ATOM     15  C   UNL     1      -1.910   2.963  24.513  0.00  0.00    +0.037 C 
ATOM     29  C   UNL     1      -2.406   2.556  23.994  0.00  0.00    -0.034 C 
ATOM     30  C   UNL     1      -3.175   2.823  23.863  0.00  0.00    -0.048 C 
ATOM     31  C   UNL     1      -3.671   2.417  23.345  0.00  0.00    +0.026 C 
ENDROOT
BRANCH  11  12
ATOM     12  C   UNL     1      -1.687   4.043  25.421  0.00  0.00    +0.000 C 
ATOM     13  C   UNL     1      -1.140   4.587  25.128  0.00  0.00    +0.000 C 
ATOM     14  C   UNL     1      -1.739   3.906  26.233  0.00  0.00    +0.000 C 
ENDBRANCH  11  12
BRANCH   9   8
ATOM      8  C   UNL     1      -4.218   3.765  24.123  0.00  0.00    +0.091 C 
BRANCH   8   7
ATOM      4  C   UNL     1      -5.644   3.256  25.628  0.00  0.00    +0.226 A 
ATOM      5  N   UNL     1      -5.628   4.078  25.694  0.00  0.00    -0.112 NA
ATOM      6  N   UNL     1      -5.092   4.369  25.139  0.00  0.00    -0.112 NA
ATOM      7  C   UNL     1      -4.776   3.727  24.728  0.00  0.00    +0.226 A 
ATOM     32  O   UNL     1      -5.117   3.038  25.030  0.00  0.00    -0.423 OA
BRANCH   4   3
ATOM      3  C   UNL     1      -6.105   2.741  26.078  0.00  0.00    +0.087 C 
BRANCH   3   2
ATOM      1  C   UNL     1      -6.417   1.415  26.506  0.00  0.00    +0.001 C 
ATOM      2  C   UNL     1      -5.992   1.927  26.018  0.00  0.00    +0.010 C 
ENDBRANCH   3   2
ENDBRANCH   4   3
ENDBRANCH   8   7
ENDBRANCH   9   8
BRANCH  15  16
ATOM     16  C   UNL     1      -1.140   2.695  24.643  0.00  0.00    +0.076 C 
BRANCH  16  17
ATOM     17  N   UNL     1      -0.987   1.886  24.687  0.00  0.00    -0.269 NA
ATOM     18  C   UNL     1      -1.191   1.463  25.365  0.00  0.00    +0.094 C 
ATOM     19  C   UNL     1      -1.038   0.654  25.409  0.00  0.00    +0.111 C 
ATOM     20  N   UNL     1      -0.680   0.267  24.775  0.00  0.00    -0.275 N 
ATOM     21  C   UNL     1      -0.475   0.689  24.097  0.00  0.00    +0.111 C 
ATOM     22  C   UNL     1      -0.628   1.498  24.052  0.00  0.00    +0.094 C 
ATOM     23  C   UNL     1      -0.527  -0.542  24.819  0.00  0.00    +0.220 A 
ATOM     24  N   UNL     1      -0.732  -0.965  25.498  0.00  0.00    -0.212 NA
ATOM     25  C   UNL     1      -0.579  -1.774  25.542  0.00  0.00    +0.103 A 
ATOM     26  C   UNL     1      -0.220  -2.162  24.907  0.00  0.00    +0.041 A 
ATOM     27  C   UNL     1      -0.016  -1.739  24.230  0.00  0.00    +0.103 A 
ATOM     28  N   UNL     1      -0.169  -0.930  24.185  0.00  0.00    -0.212 NA
ENDBRANCH  16  17
ENDBRANCH  15  16
TORSDOF 7
ENDMDL
MODEL 4
REMARK VINA RESULT:      -9.0      2.562      6.216
REMARK  Name = 
REMARK  7 active torsions:
REMARK  status: ('A' for Active; 'I' for Inactive)
REMARK    1  A    between atoms: C_2  and  C_3
REMARK    2  A    between atoms: C_3  and  C_4
REMARK    3  A    between atoms: C_7  and  C_8
REMARK    4  A    between atoms: C_8  and  C_9
REMARK    5  A    between atoms: C_11  and  C_12
REMARK    6  A    between atoms: C_15  and  C_16
REMARK    7  A    between atoms: C_16  and  N_17
REMARK                            x       y       z     vdW  Elec       q    Type
REMARK                         _______ _______ _______ _____ _____    ______ ____
ROOT
ATOM      9  C   UNL     1      -0.701  -0.953  24.996  0.00  0.00    +0.027 C 
ATOM     10  C   UNL     1      -0.292  -0.953  24.280  0.00  0.00    +0.005 C 
ATOM     11  C   UNL     1      -0.052  -0.239  23.942  0.00  0.00    +0.006 C 
ATOM     15  C   UNL     1      -0.220   0.473  24.321  0.00  0.00    +0.037 C 
ATOM     29  C   UNL     1      -0.630   0.473  25.037  0.00  0.00    -0.034 C 
ATOM     30  C   UNL     1      -0.870  -0.240  25.375  0.00  0.00    -0.048 C 
ATOM     31  C   UNL     1      -1.279  -0.240  26.091  0.00  0.00    +0.026 C 
ENDROOT
BRANCH  11  12
ATOM     12  C   UNL     1       0.358  -0.239  23.225  0.00  0.00    +0.000 C 
ATOM     13  C   UNL     1      -0.059  -0.270  22.514  0.00  0.00    +0.000 C 
ATOM     14  C   UNL     1       1.182  -0.208  23.221  0.00  0.00    +0.000 C 
ENDBRANCH  11  12
BRANCH   9   8
ATOM      8  C   UNL     1      -0.941  -1.666  25.333  0.00  0.00    +0.091 C 
BRANCH   8   7
ATOM      4  C   UNL     1      -2.699  -2.569  24.525  0.00  0.00    +0.226 A 
ATOM      5  N   UNL     1      -2.116  -3.090  24.261  0.00  0.00    -0.112 NA
ATOM      6  N   UNL     1      -1.387  -2.815  24.531  0.00  0.00    -0.112 NA
ATOM      7  C   UNL     1      -1.518  -2.124  24.963  0.00  0.00    +0.226 A 
ATOM     32  O   UNL     1      -2.330  -1.972  24.960  0.00  0.00    -0.423 OA
BRANCH   4   3
ATOM      3  C   UNL     1      -3.509  -2.634  24.382  0.00  0.00    +0.087 C 
BRANCH   3   2
ATOM      1  C   UNL     1      -4.702  -2.087  23.819  0.00  0.00    +0.001 C 
ATOM      2  C   UNL     1      -3.879  -2.109  23.865  0.00  0.00    +0.010 C 
ENDBRANCH   3   2
ENDBRANCH   4   3
ENDBRANCH   8   7
ENDBRANCH   9   8
BRANCH  15  16
ATOM     16  C   UNL     1       0.020   1.188  23.983  0.00  0.00    +0.076 C 
BRANCH  16  17
ATOM     17  N   UNL     1      -0.363   1.889  24.186  0.00  0.00    -0.269 NA
ATOM     18  C   UNL     1       0.045   2.480  24.592  0.00  0.00    +0.094 C 
ATOM     19  C   UNL     1      -0.339   3.181  24.794  0.00  0.00    +0.111 C 
ATOM     20  N   UNL     1      -1.131   3.293  24.591  0.00  0.00    -0.275 N 
ATOM     21  C   UNL     1      -1.538   2.702  24.184  0.00  0.00    +0.111 C 
ATOM     22  C   UNL     1      -1.156   2.000  23.982  0.00  0.00    +0.094 C 
ATOM     23  C   UNL     1      -1.513   3.994  24.793  0.00  0.00    +0.220 A 
ATOM     24  N   UNL     1      -1.106   4.586  25.200  0.00  0.00    -0.212 NA
ATOM     25  C   UNL     1      -1.489   5.287  25.402  0.00  0.00    +0.103 A 
ATOM     26  C   UNL     1      -2.281   5.398  25.198  0.00  0.00    +0.041 A 
ATOM     27  C   UNL     1      -2.688   4.808  24.792  0.00  0.00    +0.103 A 
ATOM     28  N   UNL     1      -2.306   4.106  24.590  0.00  0.00    -0.212 NA
ENDBRANCH  16  17
ENDBRANCH  15  16
TORSDOF 7
ENDMDL
MODEL 5
REMARK VINA RESULT:      -8.7      1.451      5.191
REMARK  Name = 
REMARK  7 active torsions:
REMARK  status: ('A' for Active; 'I' for Inactive)
REMARK    1  A    between atoms: C_2  and  C_3
REMARK    2  A    between atoms: C_3  and  C_4
REMARK    3  A    between atoms: C_7  and  C_8
REMARK    4  A    between atoms: C_8  and  C_9
REMARK    5  A    between atoms: C_11  and  C_12
REMARK    6  A    between atoms: C_15  and  C_16
REMARK    7  A    between atoms: C_16  and  N_17
REMARK                            x       y       z     vdW  Elec       q    Type
REMARK                         _______ _______ _______ _____ _____    ______ ____
ROOT
ATOM      9  C   UNL     1      -4.149   0.118  23.868  0.00  0.00    +0.027 C 
ATOM     10  C   UNL     1      -4.730   0.233  24.443  0.00  0.00    +0.005 C 
ATOM     11  C   UNL     1      -4.787   0.958  24.833  0.00  0.00    +0.006 C 
ATOM     15  C   UNL     1      -4.264   1.567  24.649  0.00  0.00    +0.037 C 
ATOM     29  C   UNL     1      -3.683   1.453  24.074  0.00  0.00    -0.034 C 
ATOM     30  C   UNL     1      -3.625   0.729  23.684  0.00  0.00    -0.048 C 
ATOM     31  C   UNL     1      -3.045   0.614  23.109  0.00  0.00    +0.026 C 
ENDROOT
BRANCH  11  12
ATOM     12  C   UNL     1      -5.369   1.072  25.408  0.00  0.00    +0.000 C 
ATOM     13  C   UNL     1      -6.083   1.430  25.205  0.00  0.00    +0.000 C 
ATOM     14  C   UNL     1      -5.234   0.828  26.184  0.00  0.00    +0.000 C 
ENDBRANCH  11  12
BRANCH   9   8
ATOM      8  C   UNL     1      -4.091  -0.606  23.478  0.00  0.00    +0.091 C 
BRANCH   8   7
ATOM      4  C   UNL     1      -3.106  -2.156  24.568  0.00  0.00    +0.226 A 
ATOM      5  N   UNL     1      -3.862  -2.475  24.484  0.00  0.00    -0.112 NA
ATOM      6  N   UNL     1      -4.323  -1.934  24.066  0.00  0.00    -0.112 NA
ATOM      7  C   UNL     1      -3.853  -1.279  23.891  0.00  0.00    +0.226 A 
ATOM     32  O   UNL     1      -3.100  -1.416  24.201  0.00  0.00    -0.423 OA
BRANCH   4   3
ATOM      3  C   UNL     1      -2.469  -2.512  24.951  0.00  0.00    +0.087 C 
BRANCH   3   2
ATOM      1  C   UNL     1      -1.054  -2.449  25.139  0.00  0.00    +0.001 C 
ATOM      2  C   UNL     1      -1.709  -2.445  24.638  0.00  0.00    +0.010 C 
ENDBRANCH   3   2
ENDBRANCH   4   3
ENDBRANCH   8   7
ENDBRANCH   9   8
BRANCH  15  16
ATOM     16  C   UNL     1      -4.321   2.293  25.038  0.00  0.00    +0.076 C 
BRANCH  16  17
ATOM     17  N   UNL     1      -3.689   2.821  25.021  0.00  0.00    -0.269 NA
ATOM     18  C   UNL     1      -3.778   3.561  24.666  0.00  0.00    +0.094 C 
ATOM     19  C   UNL     1      -3.146   4.089  24.648  0.00  0.00    +0.111 C 
ATOM     20  N   UNL     1      -2.423   3.879  24.986  0.00  0.00    -0.275 N 
ATOM     21  C   UNL     1      -2.333   3.140  25.341  0.00  0.00    +0.111 C 
ATOM     22  C   UNL     1      -2.965   2.611  25.359  0.00  0.00    +0.094 C 
ATOM     23  C   UNL     1      -1.791   4.409  24.968  0.00  0.00    +0.220 A 
ATOM     24  N   UNL     1      -1.880   5.148  24.613  0.00  0.00    -0.212 NA
ATOM     25  C   UNL     1      -1.248   5.677  24.595  0.00  0.00    +0.103 A 
ATOM     26  C   UNL     1      -0.524   5.467  24.933  0.00  0.00    +0.041 A 
ATOM     27  C   UNL     1      -0.435   4.728  25.288  0.00  0.00    +0.103 A 
ATOM     28  N   UNL     1      -1.067   4.199  25.306  0.00  0.00    -0.212 NA
ENDBRANCH  16  17
ENDBRANCH  15  16
TORSDOF 7
ENDMDL
MODEL 6
REMARK VINA RESULT:      -8.7      3.016      4.632
REMARK  Name = 
REMARK  7 active torsions:
REMARK  status: ('A' for Active; 'I' for Inactive)
REMARK    1  A    between atoms: C_2  and  C_3
REMARK    2  A    between atoms: C_3  and  C_4
REMARK    3  A    between atoms: C_7  and  C_8
REMARK    4  A    between atoms: C_8  and  C_9
REMARK    5  A    between atoms: C_11  and  C_12
REMARK    6  A    between atoms: C_15  and  C_16
REMARK    7  A    between atoms: C_16  and  N_17
REMARK                            x       y       z     vdW  Elec       q    Type
REMARK                         _______ _______ _______ _____ _____    ______ ____
ROOT
ATOM      9  C   UNL     1      -0.331   0.590  24.067  0.00  0.00    +0.027 C 
ATOM     10  C   UNL     1       0.010   1.329  24.201  0.00  0.00    +0.005 C 
ATOM     11  C   UNL     1      -0.469   1.992  24.313  0.00  0.00    +0.006 C 
ATOM     15  C   UNL     1      -1.289   1.915  24.291  0.00  0.00    +0.037 C 
ATOM     29  C   UNL     1      -1.632   1.176  24.158  0.00  0.00    -0.034 C 
ATOM     30  C   UNL     1      -1.153   0.514  24.046  0.00  0.00    -0.048 C 
ATOM     31  C   UNL     1      -1.495  -0.225  23.913  0.00  0.00    +0.026 C 
ENDROOT
BRANCH  11  12
ATOM     12  C   UNL     1      -0.127   2.731  24.446  0.00  0.00    +0.000 C 
ATOM     13  C   UNL     1      -0.044   3.265  23.823  0.00  0.00    +0.000 C 
ATOM     14  C   UNL     1       0.132   2.935  25.202  0.00  0.00    +0.000 C 
ENDBRANCH  11  12
BRANCH   9   8
ATOM      8  C   UNL     1       0.147  -0.071  23.955  0.00  0.00    +0.091 C 
BRANCH   8   7
ATOM      4  C   UNL     1       1.933   0.010  22.788  0.00  0.00    +0.226 A 
ATOM      5  N   UNL     1       1.364  -0.099  22.201  0.00  0.00    -0.112 NA
ATOM      6  N   UNL     1       0.625  -0.142  22.567  0.00  0.00    -0.112 NA
ATOM      7  C   UNL     1       0.738  -0.061  23.380  0.00  0.00    +0.226 A 
ATOM     32  O   UNL     1       1.547   0.033  23.517  0.00  0.00    -0.423 OA
BRANCH   4   3
ATOM      3  C   UNL     1       2.746   0.082  22.668  0.00  0.00    +0.087 C 
BRANCH   3   2
ATOM      1  C   UNL     1       3.931   0.877  22.728  0.00  0.00    +0.001 C 
ATOM      2  C   UNL     1       3.109   0.819  22.735  0.00  0.00    +0.010 C 
ENDBRANCH   3   2
ENDBRANCH   4   3
ENDBRANCH   8   7
ENDBRANCH   9   8
BRANCH  15  16
ATOM     16  C   UNL     1      -1.770   2.577  24.403  0.00  0.00    +0.076 C 
BRANCH  16  17
ATOM     17  N   UNL     1      -2.568   2.482  24.585  0.00  0.00    -0.269 NA
ATOM     18  C   UNL     1      -2.817   2.493  25.372  0.00  0.00    +0.094 C 
ATOM     19  C   UNL     1      -3.615   2.398  25.553  0.00  0.00    +0.111 C 
ATOM     20  N   UNL     1      -4.167   2.291  24.948  0.00  0.00    -0.275 N 
ATOM     21  C   UNL     1      -3.918   2.280  24.162  0.00  0.00    +0.111 C 
ATOM     22  C   UNL     1      -3.119   2.376  23.980  0.00  0.00    +0.094 C 
ATOM     23  C   UNL     1      -4.965   2.196  25.130  0.00  0.00    +0.220 A 
ATOM     24  N   UNL     1      -5.214   2.207  25.917  0.00  0.00    -0.212 NA
ATOM     25  C   UNL     1      -6.013   2.112  26.098  0.00  0.00    +0.103 A 
ATOM     26  C   UNL     1      -6.564   2.006  25.493  0.00  0.00    +0.041 A 
ATOM     27  C   UNL     1      -6.315   1.995  24.707  0.00  0.00    +0.103 A 
ATOM     28  N   UNL     1      -5.516   2.090  24.525  0.00  0.00    -0.212 NA
ENDBRANCH  16  17
ENDBRANCH  15  16
TORSDOF 7
ENDMDL
