MODEL 1
REMARK VINA RESULT:      -9.7      0.000      0.000
REMARK  Name = 
REMARK  5 active torsions:
REMARK  status: ('A' for Active; 'I' for Inactive)
REMARK    1  A    between atoms: C_1  and  N_2
REMARK    2  A    between atoms: C_1  and  C_24
REMARK    3  A    between atoms: C_6  and  C_7
REMARK    4  A    between atoms: C_9  and  C_12
REMARK    5  A    between atoms: C_15  and  N_18
REMARK                            x       y       z     vdW  Elec       q    Type
REMARK                         _______ _______ _______ _____ _____    ______ ____
ROOT
ATOM      7  C   UNL     1      -3.995   2.796  25.142  0.00  0.00    +0.251 A 
ATOM      8  N   UNL     1      -3.754   2.015  25.256  0.00  0.00    -0.190 NA
ATOM      9  C   UNL     1      -4.126   1.548  24.687  0.00  0.00    +0.205 A 
ATOM     10  N   UNL     1      -4.598   2.039  24.223  0.00  0.00    -0.056 NA
ATOM     11  O   UNL     1      -4.517   2.811  24.503  0.00  0.00    -0.336 OA
ENDROOT
BRANCH   9  12
ATOM     12  C   UNL     1      -4.041   0.732  24.600  0.00  0.00    +0.058 A 
ATOM     13  C   UNL     1      -4.412   0.220  25.130  0.00  0.00    +0.008 A 
ATOM     14  C   UNL     1      -4.327  -0.597  25.043  0.00  0.00    +0.034 A 
ATOM     15  C   UNL     1      -3.872  -0.900  24.425  0.00  0.00    +0.132 A 
ATOM     16  N   UNL     1      -3.502  -0.388  23.894  0.00  0.00    -0.229 NA
ATOM     17  C   UNL     1      -3.587   0.428  23.982  0.00  0.00    +0.103 A 
BRANCH  15  18
ATOM     18  N   UNL     1      -3.788  -1.717  24.337  0.00  0.00    -0.288 N 
ATOM     19  C   UNL     1      -3.189  -2.115  24.742  0.00  0.00    +0.124 C 
ATOM     20  C   UNL     1      -3.105  -2.931  24.654  0.00  0.00    +0.164 C 
ATOM     21  O   UNL     1      -3.618  -3.348  24.162  0.00  0.00    -0.350 OA
ATOM     22  C   UNL     1      -4.217  -2.949  23.757  0.00  0.00    +0.164 C 
ATOM     23  C   UNL     1      -4.302  -2.134  23.845  0.00  0.00    +0.124 C 
ENDBRANCH  15  18
ENDBRANCH   9  12
BRANCH   7   6
ATOM      2  N   UNL     1      -3.088   3.911  25.451  0.00  0.00    -0.263 NA
ATOM      3  C   UNL     1      -3.063   4.499  26.028  0.00  0.00    +0.073 C 
ATOM      4  C   UNL     1      -3.717   4.401  26.522  0.00  0.00    +0.019 C 
ATOM      5  C   UNL     1      -4.146   3.751  26.250  0.00  0.00    +0.027 C 
ATOM      6  C   UNL     1      -3.757   3.447  25.588  0.00  0.00    +0.138 C 
BRANCH   2   1
ATOM      1  C   UNL     1      -2.540   3.803  24.844  0.00  0.00    +0.101 C 
BRANCH   1  24
ATOM     24  C   UNL     1      -1.789   4.138  24.902  0.00  0.00    +0.013 A 
ATOM     25  C   UNL     1      -1.677   4.935  24.720  0.00  0.00    +0.000 A 
ATOM     26  C   UNL     1      -0.925   5.270  24.779  0.00  0.00    +0.020 A 
ATOM     27  C   UNL     1      -0.286   4.809  25.020  0.00  0.00    +0.099 A 
ATOM     28  N   UNL     1      -0.397   4.012  25.202  0.00  0.00    -0.243 NA
ATOM     29  C   UNL     1      -1.148   3.677  25.144  0.00  0.00    +0.096 A 
ENDBRANCH   1  24
ENDBRANCH   2   1
ENDBRANCH   7   6
TORSDOF 5
ENDMDL
MODEL 2
REMARK VINA RESULT:      -9.5      2.025      6.270
REMARK  Name = 
REMARK  5 active torsions:
REMARK  status: ('A' for Active; 'I' for Inactive)
REMARK    1  A    between atoms: C_1  and  N_2
REMARK    2  A    between atoms: C_1  and  C_24
REMARK    3  A    between atoms: C_6  and  C_7
REMARK    4  A    between atoms: C_9  and  C_12
REMARK    5  A    between atoms: C_15  and  N_18
REMARK                            x       y       z     vdW  Elec       q    Type
REMARK                         _______ _______ _______ _____ _____    ______ ____
ROOT
ATOM      7  C   UNL     1      -1.112  -0.497  25.327  0.00  0.00    +0.251 A 
ATOM      8  N   UNL     1      -1.165   0.250  24.980  0.00  0.00    -0.190 NA
ATOM      9  C   UNL     1      -1.131   0.813  25.582  0.00  0.00    +0.205 A 
ATOM     10  N   UNL     1      -1.057   0.415  26.300  0.00  0.00    -0.056 NA
ATOM     11  O   UNL     1      -1.045  -0.395  26.142  0.00  0.00    -0.336 OA
ENDROOT
BRANCH   9  12
ATOM     12  C   UNL     1      -1.166   1.632  25.483  0.00  0.00    +0.058 A 
ATOM     13  C   UNL     1      -0.620   2.117  25.867  0.00  0.00    +0.008 A 
ATOM     14  C   UNL     1      -0.655   2.935  25.767  0.00  0.00    +0.034 A 
ATOM     15  C   UNL     1      -1.235   3.268  25.284  0.00  0.00    +0.132 A 
ATOM     16  N   UNL     1      -1.780   2.783  24.900  0.00  0.00    -0.229 NA
ATOM     17  C   UNL     1      -1.746   1.965  24.999  0.00  0.00    +0.103 A 
BRANCH  15  18
ATOM     18  N   UNL     1      -1.269   4.087  25.185  0.00  0.00    -0.288 N 
ATOM     19  C   UNL     1      -1.934   4.505  25.437  0.00  0.00    +0.124 C 
ATOM     20  C   UNL     1      -1.969   5.323  25.337  0.00  0.00    +0.164 C 
ATOM     21  O   UNL     1      -1.338   5.723  24.987  0.00  0.00    -0.350 OA
ATOM     22  C   UNL     1      -0.673   5.304  24.735  0.00  0.00    +0.164 C 
ATOM     23  C   UNL     1      -0.639   4.487  24.834  0.00  0.00    +0.124 C 
ENDBRANCH  15  18
ENDBRANCH   9  12
BRANCH   7   6
ATOM      2  N   UNL     1      -1.786  -1.694  24.804  0.00  0.00    -0.263 NA
ATOM      3  C   UNL     1      -1.546  -2.361  24.382  0.00  0.00    +0.073 C 
ATOM      4  C   UNL     1      -0.735  -2.298  24.244  0.00  0.00    +0.019 C 
ATOM      5  C   UNL     1      -0.473  -1.592  24.581  0.00  0.00    +0.027 C 
ATOM      6  C   UNL     1      -1.123  -1.218  24.927  0.00  0.00    +0.138 C 
BRANCH   2   1
ATOM      1  C   UNL     1      -2.554  -1.531  25.058  0.00  0.00    +0.101 C 
BRANCH   1  24
ATOM     24  C   UNL     1      -3.198  -1.858  24.660  0.00  0.00    +0.013 A 
ATOM     25  C   UNL     1      -3.655  -1.387  24.160  0.00  0.00    +0.000 A 
ATOM     26  C   UNL     1      -4.300  -1.713  23.761  0.00  0.00    +0.020 A 
ATOM     27  C   UNL     1      -4.486  -2.510  23.863  0.00  0.00    +0.099 A 
ATOM     28  N   UNL     1      -4.029  -2.981  24.363  0.00  0.00    -0.243 NA
ATOM     29  C   UNL     1      -3.385  -2.655  24.761  0.00  0.00    +0.096 A 
ENDBRANCH   1  24
ENDBRANCH   2   1
ENDBRANCH   7   6
TORSDOF 5
ENDMDL
MODEL 3
REMARK VINA RESULT:      -9.1      3.402      4.638
REMARK  Name = 
REMARK  5 active torsions:
REMARK  status: ('A' for Active; 'I' for Inactive)
REMARK    1  A    between atoms: C_1  and  N_2
REMARK    2  A    between atoms: C_1  and  C_24
REMARK    3  A    between atoms: C_6  and  C_7
REMARK    4  A    between atoms: C_9  and  C_12
REMARK    5  A    between atoms: C_15  and  N_18
REMARK                            x       y       z     vdW  Elec       q    Type
REMARK                         _______ _______ _______ _____ _____    ______ ____
ROOT
ATOM      7  C   UNL     1      -2.554   0.187  24.904  0.00  0.00    +0.251 A 
ATOM      8  N   UNL     1      -2.010   0.255  24.287  0.00  0.00    -0.190 NA
ATOM      9  C   UNL     1      -1.257   0.114  24.594  0.00  0.00    +0.205 A 
ATOM     10  N   UNL     1      -1.336  -0.041  25.400  0.00  0.00    -0.056 NA
ATOM     11  O   UNL     1      -2.137   0.004  25.592  0.00  0.00    -0.336 OA
ENDROOT
BRANCH   9  12
ATOM     12  C   UNL     1      -0.550   0.126  24.169  0.00  0.00    +0.058 A 
ATOM     13  C   UNL     1      -0.221   0.846  23.937  0.00  0.00    +0.008 A 
ATOM     14  C   UNL     1       0.487   0.858  23.512  0.00  0.00    +0.034 A 
ATOM     15  C   UNL     1       0.864   0.150  23.319  0.00  0.00    +0.132 A 
ATOM     16  N   UNL     1       0.535  -0.570  23.551  0.00  0.00    -0.229 NA
ATOM     17  C   UNL     1      -0.173  -0.582  23.976  0.00  0.00    +0.103 A 
BRANCH  15  18
ATOM     18  N   UNL     1       1.571   0.162  22.894  0.00  0.00    -0.288 N 
ATOM     19  C   UNL     1       2.228   0.558  23.198  0.00  0.00    +0.124 C 
ATOM     20  C   UNL     1       2.935   0.570  22.773  0.00  0.00    +0.164 C 
ATOM     21  O   UNL     1       2.985   0.186  22.044  0.00  0.00    -0.350 OA
ATOM     22  C   UNL     1       2.328  -0.211  21.741  0.00  0.00    +0.164 C 
ATOM     23  C   UNL     1       1.621  -0.223  22.166  0.00  0.00    +0.124 C 
ENDBRANCH  15  18
ENDBRANCH   9  12
BRANCH   7   6
ATOM      2  N   UNL     1      -3.778   1.000  24.898  0.00  0.00    -0.263 NA
ATOM      3  C   UNL     1      -4.583   0.842  24.806  0.00  0.00    +0.073 C 
ATOM      4  C   UNL     1      -4.672   0.030  24.694  0.00  0.00    +0.019 C 
ATOM      5  C   UNL     1      -3.923  -0.315  24.717  0.00  0.00    +0.027 C 
ATOM      6  C   UNL     1      -3.370   0.285  24.843  0.00  0.00    +0.138 C 
BRANCH   2   1
ATOM      1  C   UNL     1      -3.441   1.743  25.024  0.00  0.00    +0.101 C 
BRANCH   1  24
ATOM     24  C   UNL     1      -3.914   2.418  25.013  0.00  0.00    +0.013 A 
ATOM     25  C   UNL     1      -3.967   2.872  24.326  0.00  0.00    +0.000 A 
ATOM     26  C   UNL     1      -4.441   3.549  24.315  0.00  0.00    +0.020 A 
ATOM     27  C   UNL     1      -4.861   3.769  24.989  0.00  0.00    +0.099 A 
ATOM     28  N   UNL     1      -4.808   3.314  25.676  0.00  0.00    -0.243 NA
ATOM     29  C   UNL     1      -4.335   2.639  25.687  0.00  0.00    +0.096 A 
ENDBRANCH   1  24
ENDBRANCH   2   1
ENDBRANCH   7   6
TORSDOF 5
ENDMDL
MODEL 4
REMARK VINA RESULT:      -8.9      1.809      2.605
REMARK  Name = 
REMARK  5 active torsions:
REMARK  status: ('A' for Active; 'I' for Inactive)
REMARK    1  A    between atoms: C_1  and  N_2
REMARK    2  A    between atoms: C_1  and  C_24
REMARK    3  A    between atoms: C_6  and  C_7
REMARK    4  A    between atoms: C_9  and  C_12
REMARK    5  A    between atoms: C_15  and  N_18
REMARK                            x       y       z     vdW  Elec       q    Type
REMARK                         _______ _______ _______ _____ _____    ______ ____
ROOT
ATOM      7  C   UNL     1      -0.417   1.511  25.267  0.00  0.00    +0.251 A 
ATOM      8  N   UNL     1      -1.053   0.997  25.379  0.00  0.00    -0.190 NA
ATOM      9  C   UNL     1      -1.061   0.461  24.752  0.00  0.00    +0.205 A 
ATOM     10  N   UNL     1      -0.431   0.643  24.253  0.00  0.00    -0.056 NA
ATOM     11  O   UNL     1      -0.032   1.292  24.572  0.00  0.00    -0.336 OA
ENDROOT
BRANCH   9  12
ATOM     12  C   UNL     1      -1.605  -0.150  24.644  0.00  0.00    +0.058 A 
ATOM     13  C   UNL     1      -2.412   0.019  24.607  0.00  0.00    +0.008 A 
ATOM     14  C   UNL     1      -2.956  -0.592  24.499  0.00  0.00    +0.034 A 
ATOM     15  C   UNL     1      -2.693  -1.371  24.427  0.00  0.00    +0.132 A 
ATOM     16  N   UNL     1      -1.887  -1.539  24.464  0.00  0.00    -0.229 NA
ATOM     17  C   UNL     1      -1.343  -0.928  24.573  0.00  0.00    +0.103 A 
BRANCH  15  18
ATOM     18  N   UNL     1      -3.238  -1.982  24.319  0.00  0.00    -0.288 N 
ATOM     19  C   UNL     1      -3.913  -1.856  23.862  0.00  0.00    +0.124 C 
ATOM     20  C   UNL     1      -4.457  -2.467  23.754  0.00  0.00    +0.164 C 
ATOM     21  O   UNL     1      -4.326  -3.203  24.102  0.00  0.00    -0.350 OA
ATOM     22  C   UNL     1      -3.650  -3.328  24.559  0.00  0.00    +0.164 C 
ATOM     23  C   UNL     1      -3.106  -2.718  24.667  0.00  0.00    +0.124 C 
ENDBRANCH  15  18
ENDBRANCH   9  12
BRANCH   7   6
ATOM      2  N   UNL     1      -0.390   2.930  25.651  0.00  0.00    -0.263 NA
ATOM      3  C   UNL     1      -0.067   3.358  26.278  0.00  0.00    +0.073 C 
ATOM      4  C   UNL     1       0.319   2.827  26.778  0.00  0.00    +0.019 C 
ATOM      5  C   UNL     1       0.235   2.070  26.460  0.00  0.00    +0.027 C 
ATOM      6  C   UNL     1      -0.203   2.133  25.764  0.00  0.00    +0.138 C 
BRANCH   2   1
ATOM      1  C   UNL     1      -0.823   3.242  25.022  0.00  0.00    +0.101 C 
BRANCH   1  24
ATOM     24  C   UNL     1      -1.170   3.986  25.091  0.00  0.00    +0.013 A 
ATOM     25  C   UNL     1      -0.774   4.654  24.810  0.00  0.00    +0.000 A 
ATOM     26  C   UNL     1      -1.121   5.399  24.879  0.00  0.00    +0.020 A 
ATOM     27  C   UNL     1      -1.865   5.477  25.227  0.00  0.00    +0.099 A 
ATOM     28  N   UNL     1      -2.261   4.810  25.508  0.00  0.00    -0.243 NA
ATOM     29  C   UNL     1      -1.914   4.065  25.439  0.00  0.00    +0.096 A 
ENDBRANCH   1  24
ENDBRANCH   2   1
ENDBRANCH   7   6
TORSDOF 5
ENDMDL
MODEL 5
REMARK VINA RESULT:      -8.1      1.853      2.888
REMARK  Name = 
REMARK  5 active torsions:
REMARK  status: ('A' for Active; 'I' for Inactive)
REMARK    1  A    between atoms: C_1  and  N_2
REMARK    2  A    between atoms: C_1  and  C_24
REMARK    3  A    between atoms: C_6  and  C_7
REMARK    4  A    between atoms: C_9  and  C_12
REMARK    5  A    between atoms: C_15  and  N_18
REMARK                            x       y       z     vdW  Elec       q    Type
REMARK                         _______ _______ _______ _____ _____    ______ ____
ROOT
ATOM      7  C   UNL     1      -1.027   2.958  25.440  0.00  0.00    +0.251 A 
ATOM      8  N   UNL     1      -1.403   2.282  25.152  0.00  0.00    -0.190 NA
ATOM      9  C   UNL     1      -0.945   1.628  25.358  0.00  0.00    +0.205 A 
ATOM     10  N   UNL     1      -0.286   1.899  25.773  0.00  0.00    -0.056 NA
ATOM     11  O   UNL     1      -0.337   2.721  25.824  0.00  0.00    -0.336 OA
ENDROOT
BRANCH   9  12
ATOM     12  C   UNL     1      -1.116   0.841  25.180  0.00  0.00    +0.058 A 
ATOM     13  C   UNL     1      -1.238   0.298  25.788  0.00  0.00    +0.008 A 
ATOM     14  C   UNL     1      -1.409  -0.490  25.610  0.00  0.00    +0.034 A 
ATOM     15  C   UNL     1      -1.457  -0.734  24.824  0.00  0.00    +0.132 A 
ATOM     16  N   UNL     1      -1.335  -0.191  24.215  0.00  0.00    -0.229 NA
ATOM     17  C   UNL     1      -1.164   0.597  24.393  0.00  0.00    +0.103 A 
BRANCH  15  18
ATOM     18  N   UNL     1      -1.628  -1.521  24.645  0.00  0.00    -0.288 N 
ATOM     19  C   UNL     1      -1.016  -2.047  24.473  0.00  0.00    +0.124 C 
ATOM     20  C   UNL     1      -1.187  -2.834  24.295  0.00  0.00    +0.164 C 
ATOM     21  O   UNL     1      -1.970  -3.095  24.289  0.00  0.00    -0.350 OA
ATOM     22  C   UNL     1      -2.581  -2.569  24.461  0.00  0.00    +0.164 C 
ATOM     23  C   UNL     1      -2.411  -1.782  24.639  0.00  0.00    +0.124 C 
ENDBRANCH  15  18
ENDBRANCH   9  12
BRANCH   7   6
ATOM      2  N   UNL     1      -2.042   4.013  25.570  0.00  0.00    -0.263 NA
ATOM      3  C   UNL     1      -2.072   4.819  25.394  0.00  0.00    +0.073 C 
ATOM      4  C   UNL     1      -1.343   5.037  25.073  0.00  0.00    +0.019 C 
ATOM      5  C   UNL     1      -0.863   4.366  25.052  0.00  0.00    +0.027 C 
ATOM      6  C   UNL     1      -1.295   3.734  25.359  0.00  0.00    +0.138 C 
BRANCH   2   1
ATOM      1  C   UNL     1      -2.652   3.566  25.900  0.00  0.00    +0.101 C 
BRANCH   1  24
ATOM     24  C   UNL     1      -3.437   3.745  25.722  0.00  0.00    +0.013 A 
ATOM     25  C   UNL     1      -3.758   3.513  24.998  0.00  0.00    +0.000 A 
ATOM     26  C   UNL     1      -4.544   3.692  24.819  0.00  0.00    +0.020 A 
ATOM     27  C   UNL     1      -5.008   4.102  25.365  0.00  0.00    +0.099 A 
ATOM     28  N   UNL     1      -4.686   4.334  26.088  0.00  0.00    -0.243 NA
ATOM     29  C   UNL     1      -3.901   4.155  26.266  0.00  0.00    +0.096 A 
ENDBRANCH   1  24
ENDBRANCH   2   1
ENDBRANCH   7   6
TORSDOF 5
ENDMDL
MODEL 6
REMARK VINA RESULT:      -7.7     17.617     18.992
REMARK  Name = 
REMARK  5 active torsions:
REMARK  status: ('A' for Active; 'I' for Inactive)
REMARK    1  A    between atoms: C_1  and  N_2
REMARK    2  A    between atoms: C_1  and  C_24
REMARK    3  A    between atoms: C_6  and  C_7
REMARK    4  A    between atoms: C_9  and  C_12
REMARK    5  A    between atoms: C_15  and  N_18
REMARK                            x       y       z     vdW  Elec       q    Type
REMARK                         _______ _______ _______ _____ _____    ______ ____
ROOT
ATOM      7  C   UNL     1      13.331   7.653  20.802  0.00  0.00    +0.251 A 
ATOM      8  N   UNL     1      13.203   8.062  20.097  0.00  0.00    -0.190 NA
ATOM      9  C   UNL     1      12.599   7.679  19.686  0.00  0.00    +0.205 A 
ATOM     10  N   UNL     1      12.354   7.034  20.137  0.00  0.00    -0.056 NA
ATOM     11  O   UNL     1      12.807   7.018  20.827  0.00  0.00    -0.336 OA
ENDROOT
BRANCH   9  12
ATOM     12  C   UNL     1      12.294   7.902  18.953  0.00  0.00    +0.058 A 
ATOM     13  C   UNL     1      11.652   8.419  18.914  0.00  0.00    +0.008 A 
ATOM     14  C   UNL     1      11.347   8.642  18.180  0.00  0.00    +0.034 A 
ATOM     15  C   UNL     1      11.683   8.348  17.486  0.00  0.00    +0.132 A 
ATOM     16  N   UNL     1      12.325   7.831  17.526  0.00  0.00    -0.229 NA
ATOM     17  C   UNL     1      12.630   7.608  18.259  0.00  0.00    +0.103 A 
BRANCH  15  18
ATOM     18  N   UNL     1      11.378   8.571  16.753  0.00  0.00    -0.288 N 
ATOM     19  C   UNL     1      10.570   8.495  16.602  0.00  0.00    +0.124 C 
ATOM     20  C   UNL     1      10.265   8.718  15.868  0.00  0.00    +0.164 C 
ATOM     21  O   UNL     1      10.767   9.017  15.287  0.00  0.00    -0.350 OA
ATOM     22  C   UNL     1      11.574   9.094  15.438  0.00  0.00    +0.164 C 
ATOM     23  C   UNL     1      11.880   8.871  16.171  0.00  0.00    +0.124 C 
ENDBRANCH  15  18
ENDBRANCH   9  12
BRANCH   7   6
ATOM      2  N   UNL     1      14.633   7.505  21.470  0.00  0.00    -0.263 NA
ATOM      3  C   UNL     1      15.001   7.863  22.115  0.00  0.00    +0.073 C 
ATOM      4  C   UNL     1      14.483   8.426  22.425  0.00  0.00    +0.019 C 
ATOM      5  C   UNL     1      13.795   8.416  21.970  0.00  0.00    +0.027 C 
ATOM      6  C   UNL     1      13.887   7.847  21.380  0.00  0.00    +0.138 C 
BRANCH   2   1
ATOM      1  C   UNL     1      14.953   6.909  20.997  0.00  0.00    +0.101 C 
BRANCH   1  24
ATOM     24  C   UNL     1      15.770   6.805  20.964  0.00  0.00    +0.013 A 
ATOM     25  C   UNL     1      16.222   7.255  20.441  0.00  0.00    +0.000 A 
ATOM     26  C   UNL     1      17.041   7.151  20.407  0.00  0.00    +0.020 A 
ATOM     27  C   UNL     1      17.405   6.596  20.896  0.00  0.00    +0.099 A 
ATOM     28  N   UNL     1      16.953   6.145  21.419  0.00  0.00    -0.243 NA
ATOM     29  C   UNL     1      16.136   6.249  21.452  0.00  0.00    +0.096 A 
ENDBRANCH   1  24
ENDBRANCH   2   1
ENDBRANCH   7   6
TORSDOF 5
ENDMDL
