MODEL 1
REMARK VINA RESULT:     -11.9      0.000      0.000
REMARK  Name = 
REMARK  5 active torsions:
REMARK  status: ('A' for Active; 'I' for Inactive)
REMARK    1  A    between atoms: N_4  and  C_5
REMARK    2  A    between atoms: C_8  and  C_11
REMARK    3  A    between atoms: C_11  and  C_13
REMARK    4  A    between atoms: N_19  and  C_20
REMARK    5  A    between atoms: C_20  and  C_21
REMARK                            x       y       z     vdW  Elec       q    Type
REMARK                         _______ _______ _______ _____ _____    ______ ____
ROOT
ATOM     13  C   UNL     1      -4.456   1.720  24.792  0.00  0.00    +0.140 C 
ATOM     14  C   UNL     1      -5.087   1.420  25.231  0.00  0.00    +0.165 C 
ATOM     15  O   UNL     1      -5.542   1.926  25.698  0.00  0.00    -0.343 OA
ATOM     16  C   UNL     1      -5.366   2.731  25.726  0.00  0.00    +0.227 C 
ATOM     17  C   UNL     1      -4.735   3.031  25.287  0.00  0.00    +0.256 C 
ATOM     18  O   UNL     1      -4.559   3.836  25.315  0.00  0.00    -0.272 OA
ATOM     19  N   UNL     1      -4.280   2.526  24.820  0.00  0.00    -0.270 N 
ENDROOT
BRANCH  13  11
ATOM     11  C   UNL     1      -4.001   1.215  24.324  0.00  0.00    +0.195 C 
ATOM     12  O   UNL     1      -3.615   1.507  23.657  0.00  0.00    -0.216 OA
BRANCH  11   8
ATOM      5  C   UNL     1      -3.794  -1.176  24.926  0.00  0.00    +0.073 A 
ATOM      6  C   UNL     1      -4.312  -0.946  24.327  0.00  0.00    +0.016 A 
ATOM      7  C   UNL     1      -4.381  -0.148  24.127  0.00  0.00    -0.000 A 
ATOM      8  C   UNL     1      -3.932   0.418  24.525  0.00  0.00    +0.010 A 
ATOM      9  C   UNL     1      -3.413   0.186  25.123  0.00  0.00    -0.000 A 
ATOM     10  C   UNL     1      -3.344  -0.611  25.324  0.00  0.00    +0.016 A 
BRANCH   5   4
ATOM      1  C   UNL     1      -3.110  -3.250  24.936  0.00  0.00    +0.097 C 
ATOM      2  C   UNL     1      -3.179  -2.452  24.735  0.00  0.00    +0.246 C 
ATOM      3  O   UNL     1      -2.703  -2.134  24.142  0.00  0.00    -0.273 OA
ATOM      4  N   UNL     1      -3.725  -1.974  25.127  0.00  0.00    -0.179 NA
ENDBRANCH   5   4
ENDBRANCH  11   8
ENDBRANCH  13  11
BRANCH  19  20
ATOM     20  C   UNL     1      -3.650   2.826  24.382  0.00  0.00    +0.120 C 
BRANCH  20  21
ATOM     21  C   UNL     1      -3.080   3.298  24.747  0.00  0.00    -0.002 A 
ATOM     22  C   UNL     1      -2.583   2.975  25.321  0.00  0.00    -0.000 A 
ATOM     23  C   UNL     1      -2.014   3.447  25.686  0.00  0.00    +0.029 A 
ATOM     24  C   UNL     1      -1.941   4.242  25.477  0.00  0.00    +0.140 A 
ATOM     25  F   UNL     1      -1.372   4.714  25.842  0.00  0.00    -0.204 F 
ATOM     26  C   UNL     1      -2.438   4.565  24.903  0.00  0.00    +0.029 A 
ATOM     27  C   UNL     1      -3.008   4.092  24.538  0.00  0.00    -0.000 A 
ENDBRANCH  20  21
ENDBRANCH  19  20
TORSDOF 5
ENDMDL
MODEL 2
REMARK VINA RESULT:     -11.5      2.650      5.503
REMARK  Name = 
REMARK  5 active torsions:
REMARK  status: ('A' for Active; 'I' for Inactive)
REMARK    1  A    between atoms: N_4  and  C_5
REMARK    2  A    between atoms: C_8  and  C_11
REMARK    3  A    between atoms: C_11  and  C_13
REMARK    4  A    between atoms: N_19  and  C_20
REMARK    5  A    between atoms: C_20  and  C_21
REMARK                            x       y       z     vdW  Elec       q    Type
REMARK                         _______ _______ _______ _____ _____    ______ ____
ROOT
ATOM     13  C   UNL     1      -0.982   0.080  24.942  0.00  0.00    +0.140 C 
ATOM     14  C   UNL     1      -0.305   0.258  24.505  0.00  0.00    +0.165 C 
ATOM     15  O   UNL     1       0.019  -0.308  23.999  0.00  0.00    -0.343 OA
ATOM     16  C   UNL     1      -0.334  -1.050  23.930  0.00  0.00    +0.227 C 
ATOM     17  C   UNL     1      -1.011  -1.227  24.367  0.00  0.00    +0.256 C 
ATOM     18  O   UNL     1      -1.364  -1.970  24.298  0.00  0.00    -0.272 OA
ATOM     19  N   UNL     1      -1.335  -0.663  24.873  0.00  0.00    -0.270 N 
ENDROOT
BRANCH  13  11
ATOM     11  C   UNL     1      -1.306   0.646  25.449  0.00  0.00    +0.195 C 
ATOM     12  O   UNL     1      -1.734   0.407  26.112  0.00  0.00    -0.216 OA
BRANCH  11   8
ATOM      5  C   UNL     1      -0.993   3.054  24.978  0.00  0.00    +0.073 A 
ATOM      6  C   UNL     1      -0.519   2.679  25.539  0.00  0.00    +0.016 A 
ATOM      7  C   UNL     1      -0.623   1.876  25.696  0.00  0.00    -0.000 A 
ATOM      8  C   UNL     1      -1.202   1.448  25.292  0.00  0.00    +0.010 A 
ATOM      9  C   UNL     1      -1.675   1.824  24.731  0.00  0.00    -0.000 A 
ATOM     10  C   UNL     1      -1.571   2.627  24.574  0.00  0.00    +0.016 A 
BRANCH   5   4
ATOM      1  C   UNL     1      -1.262   5.220  25.036  0.00  0.00    +0.097 C 
ATOM      2  C   UNL     1      -1.366   4.417  25.194  0.00  0.00    +0.246 C 
ATOM      3  O   UNL     1      -1.949   4.173  25.724  0.00  0.00    -0.273 OA
ATOM      4  N   UNL     1      -0.888   3.858  24.820  0.00  0.00    -0.179 NA
ENDBRANCH   5   4
ENDBRANCH  11   8
ENDBRANCH  13  11
BRANCH  19  20
ATOM     20  C   UNL     1      -2.011  -0.840  25.309  0.00  0.00    +0.120 C 
BRANCH  20  21
ATOM     21  C   UNL     1      -2.676  -1.151  24.933  0.00  0.00    -0.002 A 
ATOM     22  C   UNL     1      -3.101  -0.690  24.397  0.00  0.00    -0.000 A 
ATOM     23  C   UNL     1      -3.765  -1.001  24.021  0.00  0.00    +0.029 A 
ATOM     24  C   UNL     1      -4.006  -1.774  24.181  0.00  0.00    +0.140 A 
ATOM     25  F   UNL     1      -4.670  -2.086  23.805  0.00  0.00    -0.204 F 
ATOM     26  C   UNL     1      -3.581  -2.236  24.717  0.00  0.00    +0.029 A 
ATOM     27  C   UNL     1      -2.915  -1.924  25.094  0.00  0.00    -0.000 A 
ENDBRANCH  20  21
ENDBRANCH  19  20
TORSDOF 5
ENDMDL
MODEL 3
REMARK VINA RESULT:     -11.3      2.193      4.822
REMARK  Name = 
REMARK  5 active torsions:
REMARK  status: ('A' for Active; 'I' for Inactive)
REMARK    1  A    between atoms: N_4  and  C_5
REMARK    2  A    between atoms: C_8  and  C_11
REMARK    3  A    between atoms: C_11  and  C_13
REMARK    4  A    between atoms: N_19  and  C_20
REMARK    5  A    between atoms: C_20  and  C_21
REMARK                            x       y       z     vdW  Elec       q    Type
REMARK                         _______ _______ _______ _____ _____    ______ ____
ROOT
ATOM     13  C   UNL     1      -3.501   1.108  24.441  0.00  0.00    +0.140 C 
ATOM     14  C   UNL     1      -4.043   1.714  24.303  0.00  0.00    +0.165 C 
ATOM     15  O   UNL     1      -4.805   1.664  24.617  0.00  0.00    -0.343 OA
ATOM     16  C   UNL     1      -5.024   1.010  25.069  0.00  0.00    +0.227 C 
ATOM     17  C   UNL     1      -4.481   0.404  25.207  0.00  0.00    +0.256 C 
ATOM     18  O   UNL     1      -4.699  -0.251  25.658  0.00  0.00    -0.272 OA
ATOM     19  N   UNL     1      -3.720   0.453  24.893  0.00  0.00    -0.270 N 
ENDROOT
BRANCH  13  11
ATOM     11  C   UNL     1      -2.739   1.157  24.127  0.00  0.00    +0.195 C 
ATOM     12  O   UNL     1      -2.439   0.535  23.676  0.00  0.00    -0.216 OA
BRANCH  11   8
ATOM      5  C   UNL     1      -1.356   3.166  24.541  0.00  0.00    +0.073 A 
ATOM      6  C   UNL     1      -1.720   3.060  23.808  0.00  0.00    +0.016 A 
ATOM      7  C   UNL     1      -2.181   2.390  23.670  0.00  0.00    -0.000 A 
ATOM      8  C   UNL     1      -2.278   1.826  24.265  0.00  0.00    +0.010 A 
ATOM      9  C   UNL     1      -1.914   1.933  24.997  0.00  0.00    -0.000 A 
ATOM     10  C   UNL     1      -1.453   2.603  25.135  0.00  0.00    +0.016 A 
BRANCH   5   4
ATOM      1  C   UNL     1      -0.787   5.203  25.082  0.00  0.00    +0.097 C 
ATOM      2  C   UNL     1      -1.248   4.533  24.944  0.00  0.00    +0.246 C 
ATOM      3  O   UNL     1      -2.062   4.559  25.072  0.00  0.00    -0.273 OA
ATOM      4  N   UNL     1      -0.894   3.837  24.679  0.00  0.00    -0.179 NA
ENDBRANCH   5   4
ENDBRANCH  11   8
ENDBRANCH  13  11
BRANCH  19  20
ATOM     20  C   UNL     1      -3.178  -0.153  25.031  0.00  0.00    +0.120 C 
BRANCH  20  21
ATOM     21  C   UNL     1      -3.379  -0.934  24.860  0.00  0.00    -0.002 A 
ATOM     22  C   UNL     1      -3.737  -1.120  24.140  0.00  0.00    -0.000 A 
ATOM     23  C   UNL     1      -3.937  -1.902  23.970  0.00  0.00    +0.029 A 
ATOM     24  C   UNL     1      -3.781  -2.498  24.519  0.00  0.00    +0.140 A 
ATOM     25  F   UNL     1      -3.982  -3.279  24.349  0.00  0.00    -0.204 F 
ATOM     26  C   UNL     1      -3.423  -2.311  25.239  0.00  0.00    +0.029 A 
ATOM     27  C   UNL     1      -3.222  -1.529  25.409  0.00  0.00    -0.000 A 
ENDBRANCH  20  21
ENDBRANCH  19  20
TORSDOF 5
ENDMDL
MODEL 4
REMARK VINA RESULT:     -10.9      2.134      4.866
REMARK  Name = 
REMARK  5 active torsions:
REMARK  status: ('A' for Active; 'I' for Inactive)
REMARK    1  A    between atoms: N_4  and  C_5
REMARK    2  A    between atoms: C_8  and  C_11
REMARK    3  A    between atoms: C_11  and  C_13
REMARK    4  A    between atoms: N_19  and  C_20
REMARK    5  A    between atoms: C_20  and  C_21
REMARK                            x       y       z     vdW  Elec       q    Type
REMARK                         _______ _______ _______ _____ _____    ______ ____
ROOT
ATOM     13  C   UNL     1      -2.304   0.796  24.519  0.00  0.00    +0.140 C 
ATOM     14  C   UNL     1      -1.957   1.386  24.979  0.00  0.00    +0.165 C 
ATOM     15  O   UNL     1      -1.361   1.193  25.516  0.00  0.00    -0.343 OA
ATOM     16  C   UNL     1      -1.113   0.411  25.593  0.00  0.00    +0.227 C 
ATOM     17  C   UNL     1      -1.459  -0.180  25.133  0.00  0.00    +0.256 C 
ATOM     18  O   UNL     1      -1.211  -0.962  25.210  0.00  0.00    -0.272 OA
ATOM     19  N   UNL     1      -2.055   0.012  24.596  0.00  0.00    -0.270 N 
ENDROOT
BRANCH  13  11
ATOM     11  C   UNL     1      -2.901   0.988  23.982  0.00  0.00    +0.195 C 
ATOM     12  O   UNL     1      -2.936   0.606  23.251  0.00  0.00    -0.216 OA
BRANCH  11   8
ATOM      5  C   UNL     1      -4.582   2.708  24.562  0.00  0.00    +0.073 A 
ATOM      6  C   UNL     1      -4.702   1.923  24.786  0.00  0.00    +0.016 A 
ATOM      7  C   UNL     1      -4.141   1.349  24.593  0.00  0.00    -0.000 A 
ATOM      8  C   UNL     1      -3.461   1.561  24.175  0.00  0.00    +0.010 A 
ATOM      9  C   UNL     1      -3.343   2.346  23.951  0.00  0.00    -0.000 A 
ATOM     10  C   UNL     1      -3.903   2.919  24.145  0.00  0.00    +0.016 A 
BRANCH   5   4
ATOM      1  C   UNL     1      -5.669   4.236  25.679  0.00  0.00    +0.097 C 
ATOM      2  C   UNL     1      -5.108   3.663  25.486  0.00  0.00    +0.246 C 
ATOM      3  O   UNL     1      -4.513   3.470  26.023  0.00  0.00    -0.273 OA
ATOM      4  N   UNL     1      -5.144   3.282  24.755  0.00  0.00    -0.179 NA
ENDBRANCH   5   4
ENDBRANCH  11   8
ENDBRANCH  13  11
BRANCH  19  20
ATOM     20  C   UNL     1      -2.402  -0.577  24.137  0.00  0.00    +0.120 C 
BRANCH  20  21
ATOM     21  C   UNL     1      -2.701  -1.258  24.495  0.00  0.00    -0.002 A 
ATOM     22  C   UNL     1      -3.269  -1.195  25.090  0.00  0.00    -0.000 A 
ATOM     23  C   UNL     1      -3.568  -1.875  25.447  0.00  0.00    +0.029 A 
ATOM     24  C   UNL     1      -3.300  -2.619  25.210  0.00  0.00    +0.140 A 
ATOM     25  F   UNL     1      -3.599  -3.299  25.567  0.00  0.00    -0.204 F 
ATOM     26  C   UNL     1      -2.732  -2.681  24.615  0.00  0.00    +0.029 A 
ATOM     27  C   UNL     1      -2.433  -2.000  24.256  0.00  0.00    -0.000 A 
ENDBRANCH  20  21
ENDBRANCH  19  20
TORSDOF 5
ENDMDL
