REMARK  Name = 
REMARK  6 active torsions:
REMARK  status: ('A' for Active; 'I' for Inactive)
REMARK    1  A    between atoms: N_2  and  C_4
REMARK    2  A    between atoms: C_7  and  C_10
REMARK    3  A    between atoms: N_12  and  C_13
REMARK    4  A    between atoms: C_17  and  N_21
REMARK    5  A    between atoms: C_23  and  C_24
REMARK    6  A    between atoms: C_24  and  C_25
REMARK                            x       y       z     vdW  Elec       q    Type
REMARK                         _______ _______ _______ _____ _____    ______ ____
ROOT
ATOM     13  C   UNL     1       1.270  -0.922   0.000  0.00  0.00    +0.155 C 
ATOM     14  C   UNL     1       0.785  -0.255   0.000  0.00  0.00    +0.166 C 
ATOM     15  O   UNL     1       1.270   0.412   0.000  0.00  0.00    -0.350 OA
ATOM     16  C   UNL     1       2.054   0.158   0.000  0.00  0.00    +0.169 C 
ATOM     17  C   UNL     1       2.839   0.412   0.000  0.00  0.00    +0.166 C 
ATOM     18  C   UNL     1       3.324  -0.255   0.000  0.00  0.00    +0.169 C 
ATOM     19  O   UNL     1       2.839  -0.922   0.000  0.00  0.00    -0.350 OA
ATOM     20  C   UNL     1       2.054  -0.667   0.000  0.00  0.00    +0.167 C 
ENDROOT
BRANCH  17  21
ATOM     21  N   UNL     1       3.094   1.197   0.000  0.00  0.00    -0.227 N 
ATOM     22  C   UNL     1       2.609   1.865   0.000  0.00  0.00    +0.113 A 
ATOM     23  C   UNL     1       3.094   2.532   0.000  0.00  0.00    +0.101 A 
ATOM     31  N   UNL     1       3.878   2.277   0.000  0.00  0.00    -0.133 NA
ATOM     32  N   UNL     1       3.878   1.452   0.000  0.00  0.00    -0.064 NA
BRANCH  23  24
ATOM     24  C   UNL     1       2.839   3.317   0.000  0.00  0.00    +0.049 C 
BRANCH  24  25
ATOM     25  C   UNL     1       3.391   3.930   0.000  0.00  0.00    +0.006 C 
ATOM     26  C   UNL     1       3.136   4.714   0.000  0.00  0.00    +0.000 C 
ATOM     27  C   UNL     1       3.688   5.327   0.000  0.00  0.00    +0.000 C 
ATOM     28  C   UNL     1       4.495   5.156   0.000  0.00  0.00    +0.000 C 
ATOM     29  C   UNL     1       4.750   4.371   0.000  0.00  0.00    +0.000 C 
ATOM     30  C   UNL     1       4.198   3.758   0.000  0.00  0.00    +0.000 C 
ENDBRANCH  24  25
ENDBRANCH  23  24
ENDBRANCH  17  21
BRANCH  13  12
ATOM     10  C   UNL     1       0.208  -1.879   0.000  0.00  0.00    +0.265 C 
ATOM     11  O   UNL     1      -0.344  -1.265   0.000  0.00  0.00    -0.268 OA
ATOM     12  N   UNL     1       1.015  -1.707   0.000  0.00  0.00    -0.198 NA
BRANCH  10   7
ATOM      4  C   UNL     1      -0.557  -4.232   0.000  0.00  0.00    +0.048 A 
ATOM      5  C   UNL     1      -1.109  -3.619   0.000  0.00  0.00    +0.015 A 
ATOM      6  C   UNL     1      -0.854  -2.835   0.000  0.00  0.00    +0.006 A 
ATOM      7  C   UNL     1      -0.047  -2.663   0.000  0.00  0.00    +0.055 A 
ATOM      8  C   UNL     1       0.505  -3.276   0.000  0.00  0.00    +0.006 A 
ATOM      9  C   UNL     1       0.250  -4.061   0.000  0.00  0.00    +0.015 A 
BRANCH   4   2
ATOM      1  C   UNL     1      -0.260  -5.630   0.000  0.00  0.00    +0.112 C 
ATOM      2  N   UNL     1      -0.812  -5.017   0.000  0.00  0.00    -0.304 N 
ATOM      3  C   UNL     1      -1.619  -5.189   0.000  0.00  0.00    +0.112 C 
ENDBRANCH   4   2
ENDBRANCH  10   7
ENDBRANCH  13  12
TORSDOF 6
