REMARK  Name = 
REMARK  10 active torsions:
REMARK  status: ('A' for Active; 'I' for Inactive)
REMARK    1  A    between atoms: O_2  and  C_3
REMARK    2  A    between atoms: C_6  and  C_7
REMARK    3  A    between atoms: C_7  and  N_8
REMARK    4  A    between atoms: N_8  and  C_9
REMARK    5  A    between atoms: N_8  and  C_34
REMARK    6  A    between atoms: C_9  and  C_10
REMARK    7  A    between atoms: C_17  and  C_18
REMARK    8  A    between atoms: C_20  and  C_24
REMARK    9  A    between atoms: C_34  and  C_35
REMARK   10  A    between atoms: C_38  and  O_39
REMARK                            x       y       z     vdW  Elec       q    Type
REMARK                         _______ _______ _______ _____ _____    ______ ____
ROOT
ATOM     10  C   UNL     1      -1.838  -6.006   0.000  0.00  0.00    +0.074 C 
ATOM     11  C   UNL     1      -1.062  -5.946   0.000  0.00  0.00    +0.018 C 
ATOM     12  C   UNL     1      -0.644  -5.252   0.000  0.00  0.00    +0.010 C 
ATOM     13  C   UNL     1       0.241  -5.396   0.000  0.00  0.00    +0.018 C 
ATOM     14  C   UNL     1      -0.390  -5.567   0.000  0.00  0.00    +0.072 C 
ATOM     15  N   UNL     1      -1.404  -5.304   0.000  0.00  0.00    -0.272 NA
ATOM     16  C   UNL     1      -1.660  -4.428   0.000  0.00  0.00    +0.078 C 
ATOM     17  C   UNL     1      -0.897  -4.412   0.000  0.00  0.00    +0.056 C 
ENDROOT
BRANCH  17  18
ATOM     18  C   UNL     1      -0.412  -3.744   0.000  0.00  0.00    +0.058 A 
ATOM     19  C   UNL     1      -0.667  -2.960   0.000  0.00  0.00    +0.035 A 
ATOM     20  C   UNL     1       0.000  -2.475   0.000  0.00  0.00    +0.102 A 
ATOM     21  N   UNL     1       0.667  -2.960   0.000  0.00  0.00    -0.170 NA
ATOM     22  N   UNL     1       0.412  -3.744   0.000  0.00  0.00    -0.253 N 
ATOM     23  C   UNL     1       0.897  -4.412   0.000  0.00  0.00    +0.153 C 
BRANCH  20  24
ATOM     24  C   UNL     1       0.000  -1.650   0.000  0.00  0.00    +0.019 A 
ATOM     25  C   UNL     1       0.715  -1.238   0.000  0.00  0.00    +0.002 A 
ATOM     26  C   UNL     1       0.715  -0.412   0.000  0.00  0.00    +0.000 A 
ATOM     27  C   UNL     1       0.000   0.000   0.000  0.00  0.00    +0.000 A 
ATOM     28  C   UNL     1       0.000   0.825   0.000  0.00  0.00    +0.000 A 
ATOM     29  C   UNL     1       0.715   1.238   0.000  0.00  0.00    +0.000 A 
ATOM     30  C   UNL     1       1.429   0.825   0.000  0.00  0.00    +0.000 A 
ATOM     31  C   UNL     1       1.429   0.000   0.000  0.00  0.00    +0.000 A 
ATOM     32  C   UNL     1      -0.715  -0.412   0.000  0.00  0.00    +0.000 A 
ATOM     33  C   UNL     1      -0.715  -1.238   0.000  0.00  0.00    +0.002 A 
ENDBRANCH  20  24
ENDBRANCH  17  18
BRANCH  10   9
ATOM      9  C   UNL     1      -2.542  -6.435   0.000  0.00  0.00    +0.089 C 
BRANCH   9   8
ATOM      8  N   UNL     1      -3.267  -6.040   0.000  0.00  0.00    -0.264 NA
BRANCH   8   7
ATOM      7  C   UNL     1      -3.971  -6.469   0.000  0.00  0.00    +0.099 C 
BRANCH   7   6
ATOM      3  C   UNL     1      -3.912  -8.944   0.000  0.00  0.00    +0.139 A 
ATOM      4  C   UNL     1      -4.636  -8.548   0.000  0.00  0.00    +0.037 A 
ATOM      5  C   UNL     1      -4.656  -7.723   0.000  0.00  0.00    +0.000 A 
ATOM      6  C   UNL     1      -3.951  -7.294   0.000  0.00  0.00    -0.006 A 
ATOM     43  C   UNL     1      -3.227  -7.689   0.000  0.00  0.00    +0.000 A 
ATOM     44  C   UNL     1      -3.208  -8.514   0.000  0.00  0.00    +0.037 A 
BRANCH   3   2
ATOM      1  C   UNL     1      -3.168 -10.164   0.000  0.00  0.00    +0.252 C 
ATOM      2  O   UNL     1      -3.893  -9.768   0.000  0.00  0.00    -0.471 OA
ENDBRANCH   3   2
ENDBRANCH   7   6
ENDBRANCH   8   7
BRANCH   8  34
ATOM     34  C   UNL     1      -3.286  -5.215   0.000  0.00  0.00    +0.099 C 
BRANCH  34  35
ATOM     35  C   UNL     1      -4.010  -4.820   0.000  0.00  0.00    -0.006 A 
ATOM     36  C   UNL     1      -4.715  -5.249   0.000  0.00  0.00    +0.000 A 
ATOM     37  C   UNL     1      -5.439  -4.854   0.000  0.00  0.00    +0.037 A 
ATOM     38  C   UNL     1      -5.458  -4.029   0.000  0.00  0.00    +0.139 A 
ATOM     41  C   UNL     1      -4.754  -3.600   0.000  0.00  0.00    +0.037 A 
ATOM     42  C   UNL     1      -4.030  -3.995   0.000  0.00  0.00    +0.000 A 
BRANCH  38  39
ATOM     39  O   UNL     1      -6.182  -3.634   0.000  0.00  0.00    -0.471 OA
ATOM     40  C   UNL     1      -6.202  -2.809   0.000  0.00  0.00    +0.252 C 
ENDBRANCH  38  39
ENDBRANCH  34  35
ENDBRANCH   8  34
ENDBRANCH   9   8
ENDBRANCH  10   9
TORSDOF 10
