MODEL 1
REMARK VINA RESULT:      -9.4      0.000      0.000
REMARK  Name = 
REMARK  6 active torsions:
REMARK  status: ('A' for Active; 'I' for Inactive)
REMARK    1  A    between atoms: O_2  and  C_3
REMARK    2  A    between atoms: C_6  and  N_9
REMARK    3  A    between atoms: C_13  and  C_14
REMARK    4  A    between atoms: C_16  and  N_17
REMARK    5  A    between atoms: N_20  and  C_21
REMARK    6  A    between atoms: C_21  and  C_22
REMARK                            x       y       z     vdW  Elec       q    Type
REMARK                         _______ _______ _______ _____ _____    ______ ____
ROOT
ATOM     14  C   UNL     1      -1.451   1.025  23.820  0.00  0.00    +0.048 C 
ATOM     15  C   UNL     1      -0.718   1.403  23.802  0.00  0.00    +0.035 C 
ATOM     16  C   UNL     1      -0.131   0.825  23.848  0.00  0.00    +0.119 C 
ATOM     28  C   UNL     1      -0.502   0.089  23.895  0.00  0.00    -0.009 C 
ATOM     29  C   UNL     1      -1.318   0.213  23.877  0.00  0.00    -0.025 C 
ENDROOT
BRANCH  14  13
ATOM      9  N   UNL     1      -3.376   1.891  24.137  0.00  0.00    -0.234 N 
ATOM     10  N   UNL     1      -3.267   2.036  23.332  0.00  0.00    -0.170 NA
ATOM     11  C   UNL     1      -2.533   1.729  23.115  0.00  0.00    +0.077 A 
ATOM     12  C   UNL     1      -2.202   1.752  22.360  0.00  0.00    +0.054 C 
ATOM     13  C   UNL     1      -2.188   1.395  23.786  0.00  0.00    +0.010 A 
ATOM     30  C   UNL     1      -2.709   1.495  24.418  0.00  0.00    +0.058 A 
ATOM     31  C   UNL     1      -2.585   1.243  25.194  0.00  0.00    +0.052 C 
BRANCH   9   6
ATOM      3  C   UNL     1      -5.356   2.534  25.475  0.00  0.00    +0.139 A 
ATOM      4  C   UNL     1      -5.331   1.798  25.103  0.00  0.00    +0.038 A 
ATOM      5  C   UNL     1      -4.671   1.584  24.657  0.00  0.00    +0.022 A 
ATOM      6  C   UNL     1      -4.036   2.105  24.583  0.00  0.00    +0.083 A 
ATOM      7  C   UNL     1      -4.061   2.842  24.955  0.00  0.00    +0.022 A 
ATOM      8  C   UNL     1      -4.722   3.056  25.401  0.00  0.00    +0.038 A 
BRANCH   3   2
ATOM      1  C   UNL     1      -6.371   2.197  26.424  0.00  0.00    +0.252 C 
ATOM      2  O   UNL     1      -6.016   2.748  25.921  0.00  0.00    -0.471 OA
ENDBRANCH   3   2
ENDBRANCH   9   6
ENDBRANCH  14  13
BRANCH  16  17
ATOM     17  N   UNL     1       0.683   0.959  23.848  0.00  0.00    -0.184 NA
ATOM     18  C   UNL     1       1.169   0.544  23.327  0.00  0.00    +0.340 C 
ATOM     19  O   UNL     1       0.841  -0.006  22.806  0.00  0.00    -0.249 OA
ATOM     20  N   UNL     1       1.983   0.677  23.327  0.00  0.00    -0.182 NA
BRANCH  20  21
ATOM     21  C   UNL     1       2.469   0.262  22.806  0.00  0.00    +0.143 C 
BRANCH  21  22
ATOM     22  C   UNL     1       3.288   0.273  22.907  0.00  0.00    -0.001 A 
ATOM     23  C   UNL     1       3.723   0.934  22.676  0.00  0.00    -0.003 A 
ATOM     24  C   UNL     1       4.541   0.945  22.778  0.00  0.00    -0.000 A 
ATOM     25  C   UNL     1       4.925   0.295  23.110  0.00  0.00    -0.000 A 
ATOM     26  C   UNL     1       4.489  -0.367  23.341  0.00  0.00    -0.000 A 
ATOM     27  C   UNL     1       3.671  -0.378  23.240  0.00  0.00    -0.003 A 
ENDBRANCH  21  22
ENDBRANCH  20  21
ENDBRANCH  16  17
TORSDOF 6
ENDMDL
MODEL 2
REMARK VINA RESULT:      -8.1      4.012      5.505
REMARK  Name = 
REMARK  6 active torsions:
REMARK  status: ('A' for Active; 'I' for Inactive)
REMARK    1  A    between atoms: O_2  and  C_3
REMARK    2  A    between atoms: C_6  and  N_9
REMARK    3  A    between atoms: C_13  and  C_14
REMARK    4  A    between atoms: C_16  and  N_17
REMARK    5  A    between atoms: N_20  and  C_21
REMARK    6  A    between atoms: C_21  and  C_22
REMARK                            x       y       z     vdW  Elec       q    Type
REMARK                         _______ _______ _______ _____ _____    ______ ____
ROOT
ATOM     14  C   UNL     1      -4.566   2.306  25.097  0.00  0.00    +0.048 C 
ATOM     15  C   UNL     1      -4.341   1.522  25.224  0.00  0.00    +0.035 C 
ATOM     16  C   UNL     1      -4.936   1.035  24.927  0.00  0.00    +0.119 C 
ATOM     28  C   UNL     1      -5.530   1.517  24.617  0.00  0.00    -0.009 C 
ATOM     29  C   UNL     1      -5.301   2.303  24.721  0.00  0.00    -0.025 C 
ENDROOT
BRANCH  14  13
ATOM      9  N   UNL     1      -3.160   3.886  25.382  0.00  0.00    -0.234 N 
ATOM     10  N   UNL     1      -3.769   4.124  25.883  0.00  0.00    -0.170 NA
ATOM     11  C   UNL     1      -4.371   3.561  25.838  0.00  0.00    +0.077 A 
ATOM     12  C   UNL     1      -5.085   3.580  26.250  0.00  0.00    +0.054 C 
ATOM     13  C   UNL     1      -4.132   2.975  25.308  0.00  0.00    +0.010 A 
ATOM     30  C   UNL     1      -3.383   3.176  25.026  0.00  0.00    +0.058 A 
ATOM     31  C   UNL     1      -2.937   2.743  24.483  0.00  0.00    +0.052 C 
BRANCH   9   6
ATOM      3  C   UNL     1      -1.030   5.091  25.009  0.00  0.00    +0.139 A 
ATOM      4  C   UNL     1      -1.746   5.445  24.804  0.00  0.00    +0.038 A 
ATOM      5  C   UNL     1      -2.456   5.044  24.928  0.00  0.00    +0.022 A 
ATOM      6  C   UNL     1      -2.450   4.288  25.258  0.00  0.00    +0.083 A 
ATOM      7  C   UNL     1      -1.733   3.933  25.463  0.00  0.00    +0.022 A 
ATOM      8  C   UNL     1      -1.024   4.335  25.339  0.00  0.00    +0.038 A 
BRANCH   3   2
ATOM      1  C   UNL     1       0.117   5.356  24.198  0.00  0.00    +0.252 C 
ATOM      2  O   UNL     1      -0.321   5.493  24.885  0.00  0.00    -0.471 OA
ENDBRANCH   3   2
ENDBRANCH   9   6
ENDBRANCH  14  13
BRANCH  16  17
ATOM     17  N   UNL     1      -4.938   0.210  24.939  0.00  0.00    -0.184 NA
ATOM     18  C   UNL     1      -4.478  -0.212  24.400  0.00  0.00    +0.340 C 
ATOM     19  O   UNL     1      -4.015   0.192  23.849  0.00  0.00    -0.249 OA
ATOM     20  N   UNL     1      -4.480  -1.036  24.412  0.00  0.00    -0.182 NA
BRANCH  20  21
ATOM     21  C   UNL     1      -4.020  -1.458  23.872  0.00  0.00    +0.143 C 
BRANCH  21  22
ATOM     22  C   UNL     1      -3.577  -2.107  24.126  0.00  0.00    -0.001 A 
ATOM     23  C   UNL     1      -2.769  -2.025  24.265  0.00  0.00    -0.003 A 
ATOM     24  C   UNL     1      -2.326  -2.673  24.519  0.00  0.00    -0.000 A 
ATOM     25  C   UNL     1      -2.692  -3.404  24.632  0.00  0.00    -0.000 A 
ATOM     26  C   UNL     1      -3.502  -3.485  24.493  0.00  0.00    -0.000 A 
ATOM     27  C   UNL     1      -3.944  -2.837  24.239  0.00  0.00    -0.003 A 
ENDBRANCH  21  22
ENDBRANCH  20  21
ENDBRANCH  16  17
TORSDOF 6
ENDMDL
MODEL 3
REMARK VINA RESULT:      -7.8      3.616      4.316
REMARK  Name = 
REMARK  6 active torsions:
REMARK  status: ('A' for Active; 'I' for Inactive)
REMARK    1  A    between atoms: O_2  and  C_3
REMARK    2  A    between atoms: C_6  and  N_9
REMARK    3  A    between atoms: C_13  and  C_14
REMARK    4  A    between atoms: C_16  and  N_17
REMARK    5  A    between atoms: N_20  and  C_21
REMARK    6  A    between atoms: C_21  and  C_22
REMARK                            x       y       z     vdW  Elec       q    Type
REMARK                         _______ _______ _______ _____ _____    ______ ____
ROOT
ATOM     14  C   UNL     1      -1.427   1.953  24.894  0.00  0.00    +0.048 C 
ATOM     15  C   UNL     1      -0.913   1.818  25.526  0.00  0.00    +0.035 C 
ATOM     16  C   UNL     1      -0.262   2.317  25.436  0.00  0.00    +0.119 C 
ATOM     28  C   UNL     1      -0.374   2.760  24.749  0.00  0.00    -0.009 C 
ATOM     29  C   UNL     1      -1.094   2.535  24.414  0.00  0.00    -0.025 C 
ENDROOT
BRANCH  14  13
ATOM      9  N   UNL     1      -3.060   0.623  24.547  0.00  0.00    -0.234 N 
ATOM     10  N   UNL     1      -3.451   1.347  24.590  0.00  0.00    -0.170 NA
ATOM     11  C   UNL     1      -2.887   1.934  24.725  0.00  0.00    +0.077 A 
ATOM     12  C   UNL     1      -3.037   2.741  24.806  0.00  0.00    +0.054 C 
ATOM     13  C   UNL     1      -2.147   1.572  24.766  0.00  0.00    +0.010 A 
ATOM     30  C   UNL     1      -2.254   0.761  24.655  0.00  0.00    +0.058 A 
ATOM     31  C   UNL     1      -1.658   0.189  24.654  0.00  0.00    +0.052 C 
BRANCH   9   6
ATOM      3  C   UNL     1      -4.117  -1.581  24.159  0.00  0.00    +0.139 A 
ATOM      4  C   UNL     1      -3.928  -1.344  24.926  0.00  0.00    +0.038 A 
ATOM      5  C   UNL     1      -3.575  -0.609  25.055  0.00  0.00    +0.022 A 
ATOM      6  C   UNL     1      -3.412  -0.111  24.418  0.00  0.00    +0.083 A 
ATOM      7  C   UNL     1      -3.602  -0.349  23.650  0.00  0.00    +0.022 A 
ATOM      8  C   UNL     1      -3.955  -1.084  23.521  0.00  0.00    +0.038 A 
BRANCH   3   2
ATOM      1  C   UNL     1      -4.003  -2.994  23.979  0.00  0.00    +0.252 C 
ATOM      2  O   UNL     1      -4.470  -2.315  24.030  0.00  0.00    -0.471 OA
ENDBRANCH   3   2
ENDBRANCH   9   6
ENDBRANCH  14  13
BRANCH  16  17
ATOM     17  N   UNL     1       0.386   2.365  25.944  0.00  0.00    -0.184 NA
ATOM     18  C   UNL     1       0.272   2.527  26.745  0.00  0.00    +0.340 C 
ATOM     19  O   UNL     1      -0.491   2.641  27.038  0.00  0.00    -0.249 OA
ATOM     20  N   UNL     1       0.920   2.575  27.252  0.00  0.00    -0.182 NA
BRANCH  20  21
ATOM     21  C   UNL     1       0.805   2.736  28.054  0.00  0.00    +0.143 C 
BRANCH  21  22
ATOM     22  C   UNL     1       1.433   2.659  28.584  0.00  0.00    -0.001 A 
ATOM     23  C   UNL     1       2.180   2.943  28.383  0.00  0.00    -0.003 A 
ATOM     24  C   UNL     1       2.807   2.865  28.913  0.00  0.00    -0.000 A 
ATOM     25  C   UNL     1       2.687   2.503  29.644  0.00  0.00    -0.000 A 
ATOM     26  C   UNL     1       1.939   2.218  29.845  0.00  0.00    -0.000 A 
ATOM     27  C   UNL     1       1.311   2.295  29.315  0.00  0.00    -0.003 A 
ENDBRANCH  21  22
ENDBRANCH  20  21
ENDBRANCH  16  17
TORSDOF 6
ENDMDL
