MODEL 1
REMARK VINA RESULT:     -10.7      0.000      0.000
REMARK  Name = 
REMARK  5 active torsions:
REMARK  status: ('A' for Active; 'I' for Inactive)
REMARK    1  A    between atoms: C_3  and  C_4
REMARK    2  A    between atoms: C_4  and  N_5
REMARK    3  A    between atoms: N_8  and  C_9
REMARK    4  A    between atoms: C_16  and  C_17
REMARK    5  A    between atoms: C_17  and  C_18
REMARK                            x       y       z     vdW  Elec       q    Type
REMARK                         _______ _______ _______ _____ _____    ______ ____
ROOT
ATOM      1  O   UNL     1      -6.194   3.762  25.940  0.00  0.00    -0.218 OA
ATOM      2  C   UNL     1      -5.675   3.200  25.631  0.00  0.00    +0.213 C 
ATOM      3  C   UNL     1      -4.869   3.307  25.495  0.00  0.00    +0.170 C 
ATOM     15  O   UNL     1      -4.567   2.606  25.183  0.00  0.00    -0.351 OA
ATOM     16  C   UNL     1      -5.187   2.064  25.126  0.00  0.00    +0.157 C 
ATOM     32  C   UNL     1      -5.872   2.432  25.402  0.00  0.00    +0.212 C 
ATOM     33  O   UNL     1      -6.622   2.091  25.443  0.00  0.00    -0.218 OA
ENDROOT
BRANCH   3   4
ATOM      4  C   UNL     1      -4.439   3.996  25.646  0.00  0.00    +0.149 C 
BRANCH   4   5
ATOM      5  N   UNL     1      -3.681   3.948  25.967  0.00  0.00    -0.184 NA
ATOM      6  C   UNL     1      -3.032   4.215  25.534  0.00  0.00    +0.344 C 
ATOM      7  O   UNL     1      -3.141   4.530  24.779  0.00  0.00    -0.249 OA
ATOM      8  N   UNL     1      -2.273   4.166  25.855  0.00  0.00    -0.161 NA
BRANCH   8   9
ATOM      9  C   UNL     1      -1.624   4.433  25.422  0.00  0.00    +0.075 A 
ATOM     10  C   UNL     1      -1.533   5.238  25.268  0.00  0.00    +0.017 A 
ATOM     11  C   UNL     1      -0.884   5.505  24.835  0.00  0.00    +0.001 A 
ATOM     12  C   UNL     1      -0.325   4.966  24.556  0.00  0.00    +0.000 A 
ATOM     13  C   UNL     1      -0.415   4.161  24.710  0.00  0.00    +0.001 A 
ATOM     14  C   UNL     1      -1.065   3.894  25.143  0.00  0.00    +0.017 A 
ENDBRANCH   8   9
ENDBRANCH   4   5
ENDBRANCH   3   4
BRANCH  16  17
ATOM     17  C   UNL     1      -5.131   1.292  24.842  0.00  0.00    +0.117 C 
BRANCH  17  18
ATOM     18  C   UNL     1      -4.515   1.082  24.335  0.00  0.00    +0.228 C 
ATOM     19  O   UNL     1      -4.257   1.613  23.757  0.00  0.00    -0.275 OA
ATOM     20  N   UNL     1      -4.157   0.343  24.405  0.00  0.00    -0.276 N 
ATOM     21  C   UNL     1      -3.540   0.133  23.898  0.00  0.00    +0.115 C 
ATOM     22  C   UNL     1      -3.182  -0.606  23.969  0.00  0.00    +0.114 C 
ATOM     23  N   UNL     1      -3.440  -1.137  24.546  0.00  0.00    -0.290 N 
ATOM     24  C   UNL     1      -4.056  -0.926  25.053  0.00  0.00    +0.114 C 
ATOM     25  C   UNL     1      -4.414  -0.187  24.982  0.00  0.00    +0.115 C 
ATOM     26  C   UNL     1      -3.081  -1.876  24.617  0.00  0.00    +0.132 A 
ATOM     27  N   UNL     1      -2.465  -2.086  24.110  0.00  0.00    -0.229 NA
ATOM     28  C   UNL     1      -2.106  -2.826  24.180  0.00  0.00    +0.100 A 
ATOM     29  C   UNL     1      -2.364  -3.355  24.757  0.00  0.00    +0.021 A 
ATOM     30  C   UNL     1      -2.980  -3.146  25.264  0.00  0.00    +0.004 A 
ATOM     31  C   UNL     1      -3.339  -2.406  25.194  0.00  0.00    +0.034 A 
ENDBRANCH  17  18
ENDBRANCH  16  17
TORSDOF 5
ENDMDL
MODEL 2
REMARK VINA RESULT:     -10.6      2.538      6.320
REMARK  Name = 
REMARK  5 active torsions:
REMARK  status: ('A' for Active; 'I' for Inactive)
REMARK    1  A    between atoms: C_3  and  C_4
REMARK    2  A    between atoms: C_4  and  N_5
REMARK    3  A    between atoms: N_8  and  C_9
REMARK    4  A    between atoms: C_16  and  C_17
REMARK    5  A    between atoms: C_17  and  C_18
REMARK                            x       y       z     vdW  Elec       q    Type
REMARK                         _______ _______ _______ _____ _____    ______ ____
ROOT
ATOM      1  O   UNL     1       1.303  -0.241  23.428  0.00  0.00    -0.218 OA
ATOM      2  C   UNL     1       0.765   0.286  23.764  0.00  0.00    +0.213 C 
ATOM      3  C   UNL     1       0.040   0.089  24.104  0.00  0.00    +0.170 C 
ATOM     15  O   UNL     1      -0.316   0.785  24.368  0.00  0.00    -0.351 OA
ATOM     16  C   UNL     1       0.190   1.413  24.191  0.00  0.00    +0.157 C 
ATOM     32  C   UNL     1       0.858   1.105  23.817  0.00  0.00    +0.212 C 
ATOM     33  O   UNL     1       1.504   1.538  23.545  0.00  0.00    -0.218 OA
ENDROOT
BRANCH   3   4
ATOM      4  C   UNL     1      -0.274  -0.671  24.169  0.00  0.00    +0.149 C 
BRANCH   4   5
ATOM      5  N   UNL     1      -0.911  -0.813  24.674  0.00  0.00    -0.184 NA
ATOM      6  C   UNL     1      -1.547  -1.270  24.418  0.00  0.00    +0.344 C 
ATOM      7  O   UNL     1      -1.548  -1.586  23.656  0.00  0.00    -0.249 OA
ATOM      8  N   UNL     1      -2.184  -1.412  24.923  0.00  0.00    -0.161 NA
BRANCH   8   9
ATOM      9  C   UNL     1      -2.821  -1.869  24.667  0.00  0.00    +0.075 A 
ATOM     10  C   UNL     1      -3.464  -1.510  24.296  0.00  0.00    +0.017 A 
ATOM     11  C   UNL     1      -4.101  -1.967  24.040  0.00  0.00    +0.001 A 
ATOM     12  C   UNL     1      -4.094  -2.784  24.154  0.00  0.00    +0.000 A 
ATOM     13  C   UNL     1      -3.451  -3.144  24.525  0.00  0.00    +0.001 A 
ATOM     14  C   UNL     1      -2.814  -2.686  24.781  0.00  0.00    +0.017 A 
ENDBRANCH   8   9
ENDBRANCH   4   5
ENDBRANCH   3   4
BRANCH  16  17
ATOM     17  C   UNL     1       0.052   2.209  24.358  0.00  0.00    +0.117 C 
BRANCH  17  18
ATOM     18  C   UNL     1      -0.272   2.427  25.086  0.00  0.00    +0.228 C 
ATOM     19  O   UNL     1       0.183   2.372  25.773  0.00  0.00    -0.275 OA
ATOM     20  N   UNL     1      -1.049   2.701  25.126  0.00  0.00    -0.276 N 
ATOM     21  C   UNL     1      -1.372   2.919  25.853  0.00  0.00    +0.115 C 
ATOM     22  C   UNL     1      -2.149   3.192  25.893  0.00  0.00    +0.114 C 
ATOM     23  N   UNL     1      -2.604   3.247  25.206  0.00  0.00    -0.290 N 
ATOM     24  C   UNL     1      -2.280   3.029  24.480  0.00  0.00    +0.114 C 
ATOM     25  C   UNL     1      -1.503   2.756  24.440  0.00  0.00    +0.115 C 
ATOM     26  C   UNL     1      -3.381   3.521  25.247  0.00  0.00    +0.132 A 
ATOM     27  N   UNL     1      -3.704   3.739  25.974  0.00  0.00    -0.229 NA
ATOM     28  C   UNL     1      -4.482   4.013  26.015  0.00  0.00    +0.100 A 
ATOM     29  C   UNL     1      -4.935   4.067  25.328  0.00  0.00    +0.021 A 
ATOM     30  C   UNL     1      -4.612   3.849  24.601  0.00  0.00    +0.004 A 
ATOM     31  C   UNL     1      -3.835   3.576  24.560  0.00  0.00    +0.034 A 
ENDBRANCH  17  18
ENDBRANCH  16  17
TORSDOF 5
ENDMDL
MODEL 3
REMARK VINA RESULT:     -10.6      3.278      5.278
REMARK  Name = 
REMARK  5 active torsions:
REMARK  status: ('A' for Active; 'I' for Inactive)
REMARK    1  A    between atoms: C_3  and  C_4
REMARK    2  A    between atoms: C_4  and  N_5
REMARK    3  A    between atoms: N_8  and  C_9
REMARK    4  A    between atoms: C_16  and  C_17
REMARK    5  A    between atoms: C_17  and  C_18
REMARK                            x       y       z     vdW  Elec       q    Type
REMARK                         _______ _______ _______ _____ _____    ______ ____
ROOT
ATOM      1  O   UNL     1      -3.612  -2.344  24.990  0.00  0.00    -0.218 OA
ATOM      2  C   UNL     1      -3.063  -1.766  24.779  0.00  0.00    +0.213 C 
ATOM      3  C   UNL     1      -3.208  -0.956  24.725  0.00  0.00    +0.170 C 
ATOM     15  O   UNL     1      -2.506  -0.586  24.497  0.00  0.00    -0.351 OA
ATOM     16  C   UNL     1      -1.928  -1.168  24.409  0.00  0.00    +0.157 C 
ATOM     32  C   UNL     1      -2.272  -1.897  24.583  0.00  0.00    +0.212 C 
ATOM     33  O   UNL     1      -1.892  -2.629  24.566  0.00  0.00    -0.218 OA
ENDROOT
BRANCH   3   4
ATOM      4  C   UNL     1      -3.928  -0.581  24.874  0.00  0.00    +0.149 C 
BRANCH   4   5
ATOM      5  N   UNL     1      -4.123   0.112  24.471  0.00  0.00    -0.184 NA
ATOM      6  C   UNL     1      -4.485   0.734  24.873  0.00  0.00    +0.344 C 
ATOM      7  O   UNL     1      -4.652   0.664  25.678  0.00  0.00    -0.249 OA
ATOM      8  N   UNL     1      -4.681   1.428  24.471  0.00  0.00    -0.161 NA
BRANCH   8   9
ATOM      9  C   UNL     1      -5.043   2.050  24.873  0.00  0.00    +0.075 A 
ATOM     10  C   UNL     1      -4.607   2.721  25.075  0.00  0.00    +0.017 A 
ATOM     11  C   UNL     1      -4.969   3.343  25.476  0.00  0.00    +0.001 A 
ATOM     12  C   UNL     1      -5.768   3.295  25.676  0.00  0.00    +0.000 A 
ATOM     13  C   UNL     1      -6.204   2.625  25.475  0.00  0.00    +0.001 A 
ATOM     14  C   UNL     1      -5.842   2.002  25.073  0.00  0.00    +0.017 A 
ENDBRANCH   8   9
ENDBRANCH   4   5
ENDBRANCH   3   4
BRANCH  16  17
ATOM     17  C   UNL     1      -1.144  -1.042  24.187  0.00  0.00    +0.117 C 
BRANCH  17  18
ATOM     18  C   UNL     1      -0.765  -0.338  24.391  0.00  0.00    +0.228 C 
ATOM     19  O   UNL     1      -1.109   0.171  24.942  0.00  0.00    -0.275 OA
ATOM     20  N   UNL     1      -0.043  -0.143  24.044  0.00  0.00    -0.276 N 
ATOM     21  C   UNL     1       0.336   0.561  24.248  0.00  0.00    +0.115 C 
ATOM     22  C   UNL     1       1.059   0.756  23.901  0.00  0.00    +0.114 C 
ATOM     23  N   UNL     1       1.403   0.247  23.350  0.00  0.00    -0.290 N 
ATOM     24  C   UNL     1       1.024  -0.457  23.146  0.00  0.00    +0.114 C 
ATOM     25  C   UNL     1       0.301  -0.652  23.493  0.00  0.00    +0.115 C 
ATOM     26  C   UNL     1       2.125   0.442  23.002  0.00  0.00    +0.132 A 
ATOM     27  N   UNL     1       2.504   1.146  23.207  0.00  0.00    -0.229 NA
ATOM     28  C   UNL     1       3.227   1.341  22.860  0.00  0.00    +0.100 A 
ATOM     29  C   UNL     1       3.570   0.832  22.309  0.00  0.00    +0.021 A 
ATOM     30  C   UNL     1       3.192   0.129  22.105  0.00  0.00    +0.004 A 
ATOM     31  C   UNL     1       2.469  -0.067  22.452  0.00  0.00    +0.034 A 
ENDBRANCH  17  18
ENDBRANCH  16  17
TORSDOF 5
ENDMDL
MODEL 4
REMARK VINA RESULT:     -10.0      1.890      3.801
REMARK  Name = 
REMARK  5 active torsions:
REMARK  status: ('A' for Active; 'I' for Inactive)
REMARK    1  A    between atoms: C_3  and  C_4
REMARK    2  A    between atoms: C_4  and  N_5
REMARK    3  A    between atoms: N_8  and  C_9
REMARK    4  A    between atoms: C_16  and  C_17
REMARK    5  A    between atoms: C_17  and  C_18
REMARK                            x       y       z     vdW  Elec       q    Type
REMARK                         _______ _______ _______ _____ _____    ______ ____
ROOT
ATOM      1  O   UNL     1      -0.273   4.174  24.499  0.00  0.00    -0.218 OA
ATOM      2  C   UNL     1      -0.567   3.413  24.624  0.00  0.00    +0.213 C 
ATOM      3  C   UNL     1      -1.339   3.221  24.839  0.00  0.00    +0.170 C 
ATOM     15  O   UNL     1      -1.389   2.400  24.904  0.00  0.00    -0.351 OA
ATOM     16  C   UNL     1      -0.647   2.085  24.728  0.00  0.00    +0.157 C 
ATOM     32  C   UNL     1      -0.139   2.711  24.555  0.00  0.00    +0.212 C 
ATOM     33  O   UNL     1       0.657   2.647  24.349  0.00  0.00    -0.218 OA
ENDROOT
BRANCH   3   4
ATOM      4  C   UNL     1      -1.954   3.756  24.968  0.00  0.00    +0.149 C 
BRANCH   4   5
ATOM      5  N   UNL     1      -2.666   3.673  24.559  0.00  0.00    -0.184 NA
ATOM      6  C   UNL     1      -3.362   3.508  24.971  0.00  0.00    +0.344 C 
ATOM      7  O   UNL     1      -3.345   3.426  25.791  0.00  0.00    -0.249 OA
ATOM      8  N   UNL     1      -4.073   3.425  24.562  0.00  0.00    -0.161 NA
BRANCH   8   9
ATOM      9  C   UNL     1      -4.769   3.260  24.973  0.00  0.00    +0.075 A 
ATOM     10  C   UNL     1      -5.041   2.483  25.030  0.00  0.00    +0.017 A 
ATOM     11  C   UNL     1      -5.736   2.318  25.441  0.00  0.00    +0.001 A 
ATOM     12  C   UNL     1      -6.160   2.930  25.796  0.00  0.00    +0.000 A 
ATOM     13  C   UNL     1      -5.889   3.707  25.740  0.00  0.00    +0.001 A 
ATOM     14  C   UNL     1      -5.192   3.872  25.329  0.00  0.00    +0.017 A 
ENDBRANCH   8   9
ENDBRANCH   4   5
ENDBRANCH   3   4
BRANCH  16  17
ATOM     17  C   UNL     1      -0.449   1.284  24.726  0.00  0.00    +0.117 C 
BRANCH  17  18
ATOM     18  C   UNL     1      -0.685   0.799  25.350  0.00  0.00    +0.228 C 
ATOM     19  O   UNL     1      -0.408   0.944  26.114  0.00  0.00    -0.275 OA
ATOM     20  N   UNL     1      -1.199   0.169  25.210  0.00  0.00    -0.276 N 
ATOM     21  C   UNL     1      -1.436  -0.316  25.835  0.00  0.00    +0.115 C 
ATOM     22  C   UNL     1      -1.950  -0.946  25.695  0.00  0.00    +0.114 C 
ATOM     23  N   UNL     1      -2.227  -1.091  24.931  0.00  0.00    -0.290 N 
ATOM     24  C   UNL     1      -1.990  -0.605  24.308  0.00  0.00    +0.114 C 
ATOM     25  C   UNL     1      -1.476   0.024  24.448  0.00  0.00    +0.115 C 
ATOM     26  C   UNL     1      -2.741  -1.721  24.791  0.00  0.00    +0.132 A 
ATOM     27  N   UNL     1      -2.978  -2.206  25.416  0.00  0.00    -0.229 NA
ATOM     28  C   UNL     1      -3.492  -2.836  25.276  0.00  0.00    +0.100 A 
ATOM     29  C   UNL     1      -3.769  -2.981  24.513  0.00  0.00    +0.021 A 
ATOM     30  C   UNL     1      -3.533  -2.496  23.889  0.00  0.00    +0.004 A 
ATOM     31  C   UNL     1      -3.018  -1.866  24.028  0.00  0.00    +0.034 A 
ENDBRANCH  17  18
ENDBRANCH  16  17
TORSDOF 5
ENDMDL
MODEL 5
REMARK VINA RESULT:      -9.9      1.894      4.052
REMARK  Name = 
REMARK  5 active torsions:
REMARK  status: ('A' for Active; 'I' for Inactive)
REMARK    1  A    between atoms: C_3  and  C_4
REMARK    2  A    between atoms: C_4  and  N_5
REMARK    3  A    between atoms: N_8  and  C_9
REMARK    4  A    between atoms: C_16  and  C_17
REMARK    5  A    between atoms: C_17  and  C_18
REMARK                            x       y       z     vdW  Elec       q    Type
REMARK                         _______ _______ _______ _____ _____    ______ ____
ROOT
ATOM      1  O   UNL     1      -1.781   5.701  25.218  0.00  0.00    -0.218 OA
ATOM      2  C   UNL     1      -1.616   4.894  25.172  0.00  0.00    +0.213 C 
ATOM      3  C   UNL     1      -2.171   4.284  25.194  0.00  0.00    +0.170 C 
ATOM     15  O   UNL     1      -1.765   3.568  25.132  0.00  0.00    -0.351 OA
ATOM     16  C   UNL     1      -0.959   3.735  25.073  0.00  0.00    +0.157 C 
ATOM     32  C   UNL     1      -0.867   4.555  25.097  0.00  0.00    +0.212 C 
ATOM     33  O   UNL     1      -0.153   4.964  25.055  0.00  0.00    -0.218 OA
ENDROOT
BRANCH   3   4
ATOM      4  C   UNL     1      -2.988   4.373  25.264  0.00  0.00    +0.149 C 
BRANCH   4   5
ATOM      5  N   UNL     1      -3.420   3.857  25.741  0.00  0.00    -0.184 NA
ATOM      6  C   UNL     1      -4.059   3.441  25.427  0.00  0.00    +0.344 C 
ATOM      7  O   UNL     1      -4.266   3.542  24.635  0.00  0.00    -0.249 OA
ATOM      8  N   UNL     1      -4.491   2.925  25.904  0.00  0.00    -0.161 NA
BRANCH   8   9
ATOM      9  C   UNL     1      -5.130   2.510  25.589  0.00  0.00    +0.075 A 
ATOM     10  C   UNL     1      -5.004   1.800  25.187  0.00  0.00    +0.017 A 
ATOM     11  C   UNL     1      -5.643   1.385  24.872  0.00  0.00    +0.001 A 
ATOM     12  C   UNL     1      -6.409   1.679  24.960  0.00  0.00    +0.000 A 
ATOM     13  C   UNL     1      -6.536   2.388  25.362  0.00  0.00    +0.001 A 
ATOM     14  C   UNL     1      -5.896   2.803  25.677  0.00  0.00    +0.017 A 
ENDBRANCH   8   9
ENDBRANCH   4   5
ENDBRANCH   3   4
BRANCH  16  17
ATOM     17  C   UNL     1      -0.352   3.182  25.001  0.00  0.00    +0.117 C 
BRANCH  17  18
ATOM     18  C   UNL     1      -0.336   2.669  24.354  0.00  0.00    +0.228 C 
ATOM     19  O   UNL     1      -0.219   2.968  23.593  0.00  0.00    -0.275 OA
ATOM     20  N   UNL     1      -0.438   1.859  24.468  0.00  0.00    -0.276 N 
ATOM     21  C   UNL     1      -0.422   1.346  23.821  0.00  0.00    +0.115 C 
ATOM     22  C   UNL     1      -0.524   0.536  23.936  0.00  0.00    +0.114 C 
ATOM     23  N   UNL     1      -0.642   0.237  24.696  0.00  0.00    -0.290 N 
ATOM     24  C   UNL     1      -0.658   0.750  25.342  0.00  0.00    +0.114 C 
ATOM     25  C   UNL     1      -0.556   1.561  25.228  0.00  0.00    +0.115 C 
ATOM     26  C   UNL     1      -0.744  -0.573  24.810  0.00  0.00    +0.132 A 
ATOM     27  N   UNL     1      -0.728  -1.086  24.164  0.00  0.00    -0.229 NA
ATOM     28  C   UNL     1      -0.830  -1.897  24.277  0.00  0.00    +0.100 A 
ATOM     29  C   UNL     1      -0.947  -2.194  25.038  0.00  0.00    +0.021 A 
ATOM     30  C   UNL     1      -0.963  -1.683  25.684  0.00  0.00    +0.004 A 
ATOM     31  C   UNL     1      -0.861  -0.871  25.570  0.00  0.00    +0.034 A 
ENDBRANCH  17  18
ENDBRANCH  16  17
TORSDOF 5
ENDMDL
MODEL 6
REMARK VINA RESULT:      -9.6      2.241      5.368
REMARK  Name = 
REMARK  5 active torsions:
REMARK  status: ('A' for Active; 'I' for Inactive)
REMARK    1  A    between atoms: C_3  and  C_4
REMARK    2  A    between atoms: C_4  and  N_5
REMARK    3  A    between atoms: N_8  and  C_9
REMARK    4  A    between atoms: C_16  and  C_17
REMARK    5  A    between atoms: C_17  and  C_18
REMARK                            x       y       z     vdW  Elec       q    Type
REMARK                         _______ _______ _______ _____ _____    ______ ____
ROOT
ATOM      1  O   UNL     1      -2.981  -2.735  24.834  0.00  0.00    -0.218 OA
ATOM      2  C   UNL     1      -2.579  -2.016  24.879  0.00  0.00    +0.213 C 
ATOM      3  C   UNL     1      -2.923  -1.266  24.868  0.00  0.00    +0.170 C 
ATOM     15  O   UNL     1      -2.319  -0.707  24.926  0.00  0.00    -0.351 OA
ATOM     16  C   UNL     1      -1.601  -1.112  24.973  0.00  0.00    +0.157 C 
ATOM     32  C   UNL     1      -1.762  -1.921  24.944  0.00  0.00    +0.212 C 
ATOM     33  O   UNL     1      -1.204  -2.527  24.975  0.00  0.00    -0.218 OA
ENDROOT
BRANCH   3   4
ATOM      4  C   UNL     1      -3.730  -1.104  24.809  0.00  0.00    +0.149 C 
BRANCH   4   5
ATOM      5  N   UNL     1      -3.989  -0.441  24.392  0.00  0.00    -0.184 NA
ATOM      6  C   UNL     1      -4.378   0.170  24.786  0.00  0.00    +0.344 C 
ATOM      7  O   UNL     1      -4.509   0.118  25.599  0.00  0.00    -0.249 OA
ATOM      8  N   UNL     1      -4.636   0.833  24.368  0.00  0.00    -0.161 NA
BRANCH   8   9
ATOM      9  C   UNL     1      -5.025   1.443  24.763  0.00  0.00    +0.075 A 
ATOM     10  C   UNL     1      -5.835   1.389  24.912  0.00  0.00    +0.017 A 
ATOM     11  C   UNL     1      -6.224   1.999  25.307  0.00  0.00    +0.001 A 
ATOM     12  C   UNL     1      -5.803   2.665  25.552  0.00  0.00    +0.000 A 
ATOM     13  C   UNL     1      -4.994   2.721  25.403  0.00  0.00    +0.001 A 
ATOM     14  C   UNL     1      -4.604   2.109  25.008  0.00  0.00    +0.017 A 
ENDBRANCH   8   9
ENDBRANCH   4   5
ENDBRANCH   3   4
BRANCH  16  17
ATOM     17  C   UNL     1      -0.854  -0.768  25.037  0.00  0.00    +0.117 C 
BRANCH  17  18
ATOM     18  C   UNL     1      -0.575  -0.273  24.438  0.00  0.00    +0.228 C 
ATOM     19  O   UNL     1      -0.271  -0.598  23.742  0.00  0.00    -0.275 OA
ATOM     20  N   UNL     1      -0.600   0.545  24.535  0.00  0.00    -0.276 N 
ATOM     21  C   UNL     1      -0.322   1.040  23.936  0.00  0.00    +0.115 C 
ATOM     22  C   UNL     1      -0.347   1.859  24.033  0.00  0.00    +0.114 C 
ATOM     23  N   UNL     1      -0.651   2.183  24.728  0.00  0.00    -0.290 N 
ATOM     24  C   UNL     1      -0.929   1.688  25.327  0.00  0.00    +0.114 C 
ATOM     25  C   UNL     1      -0.904   0.870  25.230  0.00  0.00    +0.115 C 
ATOM     26  C   UNL     1      -0.676   3.002  24.826  0.00  0.00    +0.132 A 
ATOM     27  N   UNL     1      -0.397   3.497  24.227  0.00  0.00    -0.229 NA
ATOM     28  C   UNL     1      -0.422   4.316  24.323  0.00  0.00    +0.100 A 
ATOM     29  C   UNL     1      -0.726   4.640  25.018  0.00  0.00    +0.021 A 
ATOM     30  C   UNL     1      -1.005   4.146  25.617  0.00  0.00    +0.004 A 
ATOM     31  C   UNL     1      -0.980   3.326  25.520  0.00  0.00    +0.034 A 
ENDBRANCH  17  18
ENDBRANCH  16  17
TORSDOF 5
ENDMDL
MODEL 7
REMARK VINA RESULT:      -9.1      2.116      2.980
REMARK  Name = 
REMARK  5 active torsions:
REMARK  status: ('A' for Active; 'I' for Inactive)
REMARK    1  A    between atoms: C_3  and  C_4
REMARK    2  A    between atoms: C_4  and  N_5
REMARK    3  A    between atoms: N_8  and  C_9
REMARK    4  A    between atoms: C_16  and  C_17
REMARK    5  A    between atoms: C_17  and  C_18
REMARK                            x       y       z     vdW  Elec       q    Type
REMARK                         _______ _______ _______ _____ _____    ______ ____
ROOT
ATOM      1  O   UNL     1      -2.016   4.632  25.699  0.00  0.00    -0.218 OA
ATOM      2  C   UNL     1      -2.331   3.909  25.460  0.00  0.00    +0.213 C 
ATOM      3  C   UNL     1      -1.929   3.315  25.052  0.00  0.00    +0.170 C 
ATOM     15  O   UNL     1      -2.453   2.691  24.926  0.00  0.00    -0.351 OA
ATOM     16  C   UNL     1      -3.180   2.898  25.256  0.00  0.00    +0.157 C 
ATOM     32  C   UNL     1      -3.105   3.651  25.586  0.00  0.00    +0.212 C 
ATOM     33  O   UNL     1      -3.699   4.071  25.974  0.00  0.00    -0.218 OA
ENDROOT
BRANCH   3   4
ATOM      4  C   UNL     1      -1.139   3.342  24.812  0.00  0.00    +0.149 C 
BRANCH   4   5
ATOM      5  N   UNL     1      -0.621   2.737  25.029  0.00  0.00    -0.184 NA
ATOM      6  C   UNL     1      -0.296   2.247  24.452  0.00  0.00    +0.344 C 
ATOM      7  O   UNL     1      -0.487   2.360  23.658  0.00  0.00    -0.249 OA
ATOM      8  N   UNL     1       0.222   1.642  24.668  0.00  0.00    -0.161 NA
BRANCH   8   9
ATOM      9  C   UNL     1       0.548   1.151  24.092  0.00  0.00    +0.075 A 
ATOM     10  C   UNL     1       0.136   0.483  23.837  0.00  0.00    +0.017 A 
ATOM     11  C   UNL     1       0.462  -0.008  23.260  0.00  0.00    +0.001 A 
ATOM     12  C   UNL     1       1.201   0.169  22.937  0.00  0.00    +0.000 A 
ATOM     13  C   UNL     1       1.613   0.837  23.192  0.00  0.00    +0.001 A 
ATOM     14  C   UNL     1       1.287   1.328  23.769  0.00  0.00    +0.017 A 
ENDBRANCH   8   9
ENDBRANCH   4   5
ENDBRANCH   3   4
BRANCH  16  17
ATOM     17  C   UNL     1      -3.863   2.435  25.256  0.00  0.00    +0.117 C 
BRANCH  17  18
ATOM     18  C   UNL     1      -4.069   2.004  24.583  0.00  0.00    +0.228 C 
ATOM     19  O   UNL     1      -4.338   2.396  23.909  0.00  0.00    -0.275 OA
ATOM     20  N   UNL     1      -4.005   1.182  24.584  0.00  0.00    -0.276 N 
ATOM     21  C   UNL     1      -4.211   0.751  23.911  0.00  0.00    +0.115 C 
ATOM     22  C   UNL     1      -4.147  -0.071  23.913  0.00  0.00    +0.114 C 
ATOM     23  N   UNL     1      -3.877  -0.464  24.587  0.00  0.00    -0.290 N 
ATOM     24  C   UNL     1      -3.671  -0.032  25.260  0.00  0.00    +0.114 C 
ATOM     25  C   UNL     1      -3.735   0.790  25.258  0.00  0.00    +0.115 C 
ATOM     26  C   UNL     1      -3.813  -1.286  24.588  0.00  0.00    +0.132 A 
ATOM     27  N   UNL     1      -4.019  -1.716  23.915  0.00  0.00    -0.229 NA
ATOM     28  C   UNL     1      -3.955  -2.540  23.916  0.00  0.00    +0.100 A 
ATOM     29  C   UNL     1      -3.686  -2.930  24.590  0.00  0.00    +0.021 A 
ATOM     30  C   UNL     1      -3.480  -2.501  25.263  0.00  0.00    +0.004 A 
ATOM     31  C   UNL     1      -3.544  -1.678  25.262  0.00  0.00    +0.034 A 
ENDBRANCH  17  18
ENDBRANCH  16  17
TORSDOF 5
ENDMDL
MODEL 8
REMARK VINA RESULT:      -9.1      3.634      5.746
REMARK  Name = 
REMARK  5 active torsions:
REMARK  status: ('A' for Active; 'I' for Inactive)
REMARK    1  A    between atoms: C_3  and  C_4
REMARK    2  A    between atoms: C_4  and  N_5
REMARK    3  A    between atoms: N_8  and  C_9
REMARK    4  A    between atoms: C_16  and  C_17
REMARK    5  A    between atoms: C_17  and  C_18
REMARK                            x       y       z     vdW  Elec       q    Type
REMARK                         _______ _______ _______ _____ _____    ______ ____
ROOT
ATOM      1  O   UNL     1      -0.267  -1.866  25.100  0.00  0.00    -0.218 OA
ATOM      2  C   UNL     1      -0.635  -1.201  24.778  0.00  0.00    +0.213 C 
ATOM      3  C   UNL     1      -0.317  -0.701  24.205  0.00  0.00    +0.170 C 
ATOM     15  O   UNL     1      -0.871  -0.110  24.046  0.00  0.00    -0.351 OA
ATOM     16  C   UNL     1      -1.532  -0.246  24.522  0.00  0.00    +0.157 C 
ATOM     32  C   UNL     1      -1.386  -0.920  24.974  0.00  0.00    +0.212 C 
ATOM     33  O   UNL     1      -1.900  -1.254  25.526  0.00  0.00    -0.218 OA
ENDROOT
BRANCH   3   4
ATOM      4  C   UNL     1       0.425  -0.778  23.852  0.00  0.00    +0.149 C 
BRANCH   4   5
ATOM      5  N   UNL     1       0.724  -0.168  23.383  0.00  0.00    -0.184 NA
ATOM      6  C   UNL     1       1.531  -0.132  23.218  0.00  0.00    +0.344 C 
ATOM      7  O   UNL     1       2.040  -0.706  23.522  0.00  0.00    -0.249 OA
ATOM      8  N   UNL     1       1.830   0.477  22.750  0.00  0.00    -0.161 NA
BRANCH   8   9
ATOM      9  C   UNL     1       2.637   0.513  22.585  0.00  0.00    +0.075 A 
ATOM     10  C   UNL     1       3.138   0.954  23.070  0.00  0.00    +0.017 A 
ATOM     11  C   UNL     1       3.945   0.990  22.905  0.00  0.00    +0.001 A 
ATOM     12  C   UNL     1       4.252   0.585  22.255  0.00  0.00    +0.000 A 
ATOM     13  C   UNL     1       3.752   0.144  21.770  0.00  0.00    +0.001 A 
ATOM     14  C   UNL     1       2.944   0.108  21.935  0.00  0.00    +0.017 A 
ENDBRANCH   8   9
ENDBRANCH   4   5
ENDBRANCH   3   4
BRANCH  16  17
ATOM     17  C   UNL     1      -2.217   0.212  24.541  0.00  0.00    +0.117 C 
BRANCH  17  18
ATOM     18  C   UNL     1      -2.163   1.035  24.568  0.00  0.00    +0.228 C 
ATOM     19  O   UNL     1      -1.442   1.406  24.411  0.00  0.00    -0.275 OA
ATOM     20  N   UNL     1      -2.828   1.487  24.752  0.00  0.00    -0.276 N 
ATOM     21  C   UNL     1      -2.773   2.310  24.779  0.00  0.00    +0.115 C 
ATOM     22  C   UNL     1      -3.438   2.761  24.963  0.00  0.00    +0.114 C 
ATOM     23  N   UNL     1      -4.159   2.390  25.120  0.00  0.00    -0.290 N 
ATOM     24  C   UNL     1      -4.213   1.567  25.093  0.00  0.00    +0.114 C 
ATOM     25  C   UNL     1      -3.547   1.116  24.909  0.00  0.00    +0.115 C 
ATOM     26  C   UNL     1      -4.824   2.841  25.304  0.00  0.00    +0.132 A 
ATOM     27  N   UNL     1      -4.769   3.665  25.331  0.00  0.00    -0.229 NA
ATOM     28  C   UNL     1      -5.435   4.117  25.515  0.00  0.00    +0.100 A 
ATOM     29  C   UNL     1      -6.154   3.745  25.672  0.00  0.00    +0.021 A 
ATOM     30  C   UNL     1      -6.209   2.923  25.646  0.00  0.00    +0.004 A 
ATOM     31  C   UNL     1      -5.544   2.471  25.461  0.00  0.00    +0.034 A 
ENDBRANCH  17  18
ENDBRANCH  16  17
TORSDOF 5
ENDMDL
MODEL 9
REMARK VINA RESULT:      -9.0      1.528      4.766
REMARK  Name = 
REMARK  5 active torsions:
REMARK  status: ('A' for Active; 'I' for Inactive)
REMARK    1  A    between atoms: C_3  and  C_4
REMARK    2  A    between atoms: C_4  and  N_5
REMARK    3  A    between atoms: N_8  and  C_9
REMARK    4  A    between atoms: C_16  and  C_17
REMARK    5  A    between atoms: C_17  and  C_18
REMARK                            x       y       z     vdW  Elec       q    Type
REMARK                         _______ _______ _______ _____ _____    ______ ____
ROOT
ATOM      1  O   UNL     1      -6.378   2.491  25.684  0.00  0.00    -0.218 OA
ATOM      2  C   UNL     1      -5.580   2.598  25.500  0.00  0.00    +0.213 C 
ATOM      3  C   UNL     1      -5.046   2.005  25.296  0.00  0.00    +0.170 C 
ATOM     15  O   UNL     1      -4.313   2.358  25.157  0.00  0.00    -0.351 OA
ATOM     16  C   UNL     1      -4.395   3.170  25.276  0.00  0.00    +0.157 C 
ATOM     32  C   UNL     1      -5.178   3.319  25.488  0.00  0.00    +0.212 C 
ATOM     33  O   UNL     1      -5.502   4.058  25.657  0.00  0.00    -0.218 OA
ENDROOT
BRANCH   3   4
ATOM      4  C   UNL     1      -5.214   1.199  25.240  0.00  0.00    +0.149 C 
BRANCH   4   5
ATOM      5  N   UNL     1      -4.897   0.752  24.623  0.00  0.00    -0.184 NA
ATOM      6  C   UNL     1      -4.579   0.007  24.773  0.00  0.00    +0.344 C 
ATOM      7  O   UNL     1      -4.579  -0.294  25.542  0.00  0.00    -0.249 OA
ATOM      8  N   UNL     1      -4.262  -0.440  24.156  0.00  0.00    -0.161 NA
BRANCH   8   9
ATOM      9  C   UNL     1      -3.944  -1.186  24.307  0.00  0.00    +0.075 A 
ATOM     10  C   UNL     1      -3.249  -1.258  24.746  0.00  0.00    +0.017 A 
ATOM     11  C   UNL     1      -2.932  -2.004  24.897  0.00  0.00    +0.001 A 
ATOM     12  C   UNL     1      -3.309  -2.678  24.609  0.00  0.00    +0.000 A 
ATOM     13  C   UNL     1      -4.004  -2.607  24.170  0.00  0.00    +0.001 A 
ATOM     14  C   UNL     1      -4.322  -1.860  24.019  0.00  0.00    +0.017 A 
ENDBRANCH   8   9
ENDBRANCH   4   5
ENDBRANCH   3   4
BRANCH  16  17
ATOM     17  C   UNL     1      -3.798   3.734  25.197  0.00  0.00    +0.117 C 
BRANCH  17  18
ATOM     18  C   UNL     1      -3.130   3.699  25.681  0.00  0.00    +0.228 C 
ATOM     19  O   UNL     1      -3.156   4.014  26.443  0.00  0.00    -0.275 OA
ATOM     20  N   UNL     1      -2.438   3.349  25.402  0.00  0.00    -0.276 N 
ATOM     21  C   UNL     1      -1.770   3.313  25.886  0.00  0.00    +0.115 C 
ATOM     22  C   UNL     1      -1.077   2.963  25.607  0.00  0.00    +0.114 C 
ATOM     23  N   UNL     1      -1.052   2.648  24.844  0.00  0.00    -0.290 N 
ATOM     24  C   UNL     1      -1.720   2.684  24.361  0.00  0.00    +0.114 C 
ATOM     25  C   UNL     1      -2.412   3.034  24.640  0.00  0.00    +0.115 C 
ATOM     26  C   UNL     1      -0.359   2.298  24.565  0.00  0.00    +0.132 A 
ATOM     27  N   UNL     1       0.309   2.263  25.049  0.00  0.00    -0.229 NA
ATOM     28  C   UNL     1       1.002   1.913  24.770  0.00  0.00    +0.100 A 
ATOM     29  C   UNL     1       1.027   1.598  24.008  0.00  0.00    +0.021 A 
ATOM     30  C   UNL     1       0.360   1.634  23.525  0.00  0.00    +0.004 A 
ATOM     31  C   UNL     1      -0.333   1.984  23.803  0.00  0.00    +0.034 A 
ENDBRANCH  17  18
ENDBRANCH  16  17
TORSDOF 5
ENDMDL
MODEL 10
REMARK VINA RESULT:      -8.1     14.950     17.118
REMARK  Name = 
REMARK  5 active torsions:
REMARK  status: ('A' for Active; 'I' for Inactive)
REMARK    1  A    between atoms: C_3  and  C_4
REMARK    2  A    between atoms: C_4  and  N_5
REMARK    3  A    between atoms: N_8  and  C_9
REMARK    4  A    between atoms: C_16  and  C_17
REMARK    5  A    between atoms: C_17  and  C_18
REMARK                            x       y       z     vdW  Elec       q    Type
REMARK                         _______ _______ _______ _____ _____    ______ ____
ROOT
ATOM      1  O   UNL     1      -9.829  -9.798  12.115  0.00  0.00    -0.218 OA
ATOM      2  C   UNL     1      -9.042  -9.799  12.362  0.00  0.00    +0.213 C 
ATOM      3  C   UNL     1      -8.777  -9.709  13.138  0.00  0.00    +0.170 C 
ATOM     15  O   UNL     1      -7.953  -9.744  13.133  0.00  0.00    -0.351 OA
ATOM     16  C   UNL     1      -7.708  -9.856  12.353  0.00  0.00    +0.157 C 
ATOM     32  C   UNL     1      -8.381  -9.890  11.876  0.00  0.00    +0.212 C 
ATOM     33  O   UNL     1      -8.391  -9.996  11.059  0.00  0.00    -0.218 OA
ENDROOT
BRANCH   3   4
ATOM      4  C   UNL     1      -9.254  -9.602  13.804  0.00  0.00    +0.149 C 
BRANCH   4   5
ATOM      5  N   UNL     1      -9.002  -9.110  14.417  0.00  0.00    -0.184 NA
ATOM      6  C   UNL     1      -9.479  -9.001  15.080  0.00  0.00    +0.344 C 
ATOM      7  O   UNL     1     -10.209  -9.383  15.131  0.00  0.00    -0.249 OA
ATOM      8  N   UNL     1      -9.228  -8.509  15.693  0.00  0.00    -0.161 NA
BRANCH   8   9
ATOM      9  C   UNL     1      -9.705  -8.400  16.357  0.00  0.00    +0.075 A 
ATOM     10  C   UNL     1      -9.693  -8.951  16.970  0.00  0.00    +0.017 A 
ATOM     11  C   UNL     1     -10.170  -8.842  17.633  0.00  0.00    +0.001 A 
ATOM     12  C   UNL     1     -10.660  -8.180  17.684  0.00  0.00    +0.000 A 
ATOM     13  C   UNL     1     -10.673  -7.628  17.071  0.00  0.00    +0.001 A 
ATOM     14  C   UNL     1     -10.195  -7.738  16.407  0.00  0.00    +0.017 A 
ENDBRANCH   8   9
ENDBRANCH   4   5
ENDBRANCH   3   4
BRANCH  16  17
ATOM     17  C   UNL     1      -6.927  -9.923  12.094  0.00  0.00    +0.117 C 
BRANCH  17  18
ATOM     18  C   UNL     1      -6.374 -10.326  12.555  0.00  0.00    +0.228 C 
ATOM     19  O   UNL     1      -6.624 -10.781  13.197  0.00  0.00    -0.275 OA
ATOM     20  N   UNL     1      -5.571 -10.274  12.373  0.00  0.00    -0.276 N 
ATOM     21  C   UNL     1      -5.017 -10.678  12.834  0.00  0.00    +0.115 C 
ATOM     22  C   UNL     1      -4.214 -10.626  12.652  0.00  0.00    +0.114 C 
ATOM     23  N   UNL     1      -3.964 -10.171  12.010  0.00  0.00    -0.290 N 
ATOM     24  C   UNL     1      -4.519  -9.768  11.550  0.00  0.00    +0.114 C 
ATOM     25  C   UNL     1      -5.321  -9.820  11.732  0.00  0.00    +0.115 C 
ATOM     26  C   UNL     1      -3.162 -10.119  11.828  0.00  0.00    +0.132 A 
ATOM     27  N   UNL     1      -2.608 -10.523  12.289  0.00  0.00    -0.229 NA
ATOM     28  C   UNL     1      -1.804 -10.471  12.107  0.00  0.00    +0.100 A 
ATOM     29  C   UNL     1      -1.556 -10.016  11.466  0.00  0.00    +0.021 A 
ATOM     30  C   UNL     1      -2.108  -9.613  11.006  0.00  0.00    +0.004 A 
ATOM     31  C   UNL     1      -2.912  -9.665  11.187  0.00  0.00    +0.034 A 
ENDBRANCH  17  18
ENDBRANCH  16  17
TORSDOF 5
ENDMDL
