MODEL 1
REMARK VINA RESULT:     -10.2      0.000      0.000
REMARK  Name = 
REMARK  12 active torsions:
REMARK  status: ('A' for Active; 'I' for Inactive)
REMARK    1  A    between atoms: C_2  and  C_4
REMARK    2  A    between atoms: C_4  and  C_5
REMARK    3  A    between atoms: C_4  and  N_12
REMARK    4  A    between atoms: C_5  and  C_6
REMARK    5  A    between atoms: C_13  and  C_15
REMARK    6  A    between atoms: C_17  and  N_29
REMARK    7  A    between atoms: C_21  and  C_23
REMARK    8  A    between atoms: C_23  and  S_24
REMARK    9  A    between atoms: S_24  and  C_25
REMARK   10  A    between atoms: C_25  and  C_26
REMARK   11  A    between atoms: N_29  and  S_30
REMARK   12  A    between atoms: S_30  and  C_33
REMARK                            x       y       z     vdW  Elec       q    Type
REMARK                         _______ _______ _______ _____ _____    ______ ____
ROOT
ATOM     15  C   UNL     1      -0.861   0.515  24.552  0.00  0.00    +0.155 C 
ATOM     16  C   UNL     1      -1.446   0.100  24.960  0.00  0.00    +0.049 C 
ATOM     17  C   UNL     1      -1.417  -0.724  24.997  0.00  0.00    +0.102 C 
ATOM     18  C   UNL     1      -0.804  -1.133  24.625  0.00  0.00    +0.041 C 
ATOM     19  C   UNL     1      -0.220  -0.717  24.217  0.00  0.00    +0.095 C 
ATOM     20  N   UNL     1      -0.248   0.106  24.180  0.00  0.00    -0.272 N 
ATOM     21  C   UNL     1       0.336   0.521  23.772  0.00  0.00    +0.237 C 
ATOM     22  O   UNL     1       0.308   1.346  23.736  0.00  0.00    -0.274 OA
ENDROOT
BRANCH  15  13
ATOM     12  N   UNL     1      -1.404   1.756  25.007  0.00  0.00    -0.196 NA
ATOM     13  C   UNL     1      -0.889   1.339  24.515  0.00  0.00    +0.260 C 
ATOM     14  O   UNL     1      -0.402   1.745  23.988  0.00  0.00    -0.272 OA
BRANCH  12   4
ATOM      4  C   UNL     1      -1.432   2.580  24.970  0.00  0.00    +0.179 C 
BRANCH   4   2
ATOM      1  N   UNL     1      -0.592   3.711  25.207  0.00  0.00    -0.086 NA
ATOM      2  C   UNL     1      -0.970   3.032  25.484  0.00  0.00    +0.281 C 
ATOM      3  O   UNL     1      -0.888   2.805  26.271  0.00  0.00    -0.270 OA
ENDBRANCH   4   2
BRANCH   4   5
ATOM      5  C   UNL     1      -1.923   2.952  24.420  0.00  0.00    +0.057 C 
BRANCH   5   6
ATOM      6  C   UNL     1      -2.735   2.990  24.551  0.00  0.00    -0.020 A 
ATOM      7  C   UNL     1      -3.258   2.654  24.008  0.00  0.00    -0.004 A 
ATOM      8  C   UNL     1      -4.071   2.692  24.139  0.00  0.00    -0.000 A 
ATOM      9  C   UNL     1      -4.362   3.067  24.815  0.00  0.00    -0.000 A 
ATOM     10  C   UNL     1      -3.841   3.403  25.358  0.00  0.00    -0.000 A 
ATOM     11  C   UNL     1      -3.028   3.364  25.226  0.00  0.00    -0.004 A 
ENDBRANCH   5   6
ENDBRANCH   4   5
ENDBRANCH  12   4
ENDBRANCH  15  13
BRANCH  21  23
ATOM     23  C   UNL     1       0.949   0.113  23.400  0.00  0.00    +0.143 C 
BRANCH  23  24
ATOM     24  S   UNL     1       1.616   0.520  23.137  0.00  0.00    -0.119 S 
BRANCH  24  25
ATOM     25  C   UNL     1       2.257   0.104  22.825  0.00  0.00    +0.172 C 
BRANCH  25  26
ATOM     26  C   UNL     1       2.931   0.510  22.578  0.00  0.00    +0.376 C 
ATOM     27  O   UNL     1       3.318   1.022  23.097  0.00  0.00    -0.245 OA
ATOM     28  O   UNL     1       3.219   0.403  21.812  0.00  0.00    -0.245 OA
ENDBRANCH  25  26
ENDBRANCH  24  25
ENDBRANCH  23  24
ENDBRANCH  21  23
BRANCH  17  29
ATOM     29  N   UNL     1      -2.002  -1.139  25.405  0.00  0.00    -0.079 NA
BRANCH  29  30
ATOM     30  S   UNL     1      -2.653  -1.441  25.000  0.00  0.00    +0.082 S 
ATOM     31  O   UNL     1      -2.195  -2.079  24.741  0.00  0.00    -0.151 OA
ATOM     32  O   UNL     1      -3.110  -0.805  25.258  0.00  0.00    -0.151 OA
BRANCH  30  33
ATOM     33  C   UNL     1      -3.305  -1.744  24.593  0.00  0.00    +0.153 A 
ATOM     34  C   UNL     1      -3.889  -1.301  24.216  0.00  0.00    +0.027 A 
ATOM     35  C   UNL     1      -4.431  -1.827  23.883  0.00  0.00    +0.009 A 
ATOM     36  C   UNL     1      -4.181  -2.594  24.054  0.00  0.00    +0.037 A 
ATOM     37  S   UNL     1      -3.485  -2.543  24.493  0.00  0.00    -0.067 S 
ENDBRANCH  30  33
ENDBRANCH  29  30
ENDBRANCH  17  29
TORSDOF 12
ENDMDL
MODEL 2
REMARK VINA RESULT:      -9.2      1.910      3.856
REMARK  Name = 
REMARK  12 active torsions:
REMARK  status: ('A' for Active; 'I' for Inactive)
REMARK    1  A    between atoms: C_2  and  C_4
REMARK    2  A    between atoms: C_4  and  C_5
REMARK    3  A    between atoms: C_4  and  N_12
REMARK    4  A    between atoms: C_5  and  C_6
REMARK    5  A    between atoms: C_13  and  C_15
REMARK    6  A    between atoms: C_17  and  N_29
REMARK    7  A    between atoms: C_21  and  C_23
REMARK    8  A    between atoms: C_23  and  S_24
REMARK    9  A    between atoms: S_24  and  C_25
REMARK   10  A    between atoms: C_25  and  C_26
REMARK   11  A    between atoms: N_29  and  S_30
REMARK   12  A    between atoms: S_30  and  C_33
REMARK                            x       y       z     vdW  Elec       q    Type
REMARK                         _______ _______ _______ _____ _____    ______ ____
ROOT
ATOM     15  C   UNL     1      -1.218   1.105  24.840  0.00  0.00    +0.155 C 
ATOM     16  C   UNL     1      -1.372   1.740  25.344  0.00  0.00    +0.049 C 
ATOM     17  C   UNL     1      -0.753   2.217  25.606  0.00  0.00    +0.102 C 
ATOM     18  C   UNL     1       0.021   2.060  25.365  0.00  0.00    +0.041 C 
ATOM     19  C   UNL     1       0.174   1.425  24.861  0.00  0.00    +0.095 C 
ATOM     20  N   UNL     1      -0.446   0.947  24.599  0.00  0.00    -0.272 N 
ATOM     21  C   UNL     1      -0.292   0.313  24.095  0.00  0.00    +0.237 C 
ATOM     22  O   UNL     1      -0.912  -0.165  23.833  0.00  0.00    -0.274 OA
ENDROOT
BRANCH  15  13
ATOM     12  N   UNL     1      -2.532   0.571  25.020  0.00  0.00    -0.196 NA
ATOM     13  C   UNL     1      -1.838   0.627  24.577  0.00  0.00    +0.260 C 
ATOM     14  O   UNL     1      -1.764   0.205  23.873  0.00  0.00    -0.272 OA
BRANCH  12   4
ATOM      4  C   UNL     1      -3.151   0.094  24.758  0.00  0.00    +0.179 C 
BRANCH   4   2
ATOM      1  N   UNL     1      -3.397  -1.290  24.498  0.00  0.00    -0.086 NA
ATOM      2  C   UNL     1      -3.216  -0.684  25.028  0.00  0.00    +0.281 C 
ATOM      3  O   UNL     1      -3.101  -0.854  25.826  0.00  0.00    -0.270 OA
ENDBRANCH   4   2
BRANCH   4   5
ATOM      5  C   UNL     1      -3.707   0.393  24.225  0.00  0.00    +0.057 C 
BRANCH   5   6
ATOM      6  C   UNL     1      -4.265   0.944  24.478  0.00  0.00    -0.020 A 
ATOM      7  C   UNL     1      -4.810   0.741  25.064  0.00  0.00    -0.004 A 
ATOM      8  C   UNL     1      -5.369   1.292  25.316  0.00  0.00    -0.000 A 
ATOM      9  C   UNL     1      -5.383   2.047  24.983  0.00  0.00    -0.000 A 
ATOM     10  C   UNL     1      -4.839   2.251  24.399  0.00  0.00    -0.000 A 
ATOM     11  C   UNL     1      -4.280   1.699  24.146  0.00  0.00    -0.004 A 
ENDBRANCH   5   6
ENDBRANCH   4   5
ENDBRANCH  12   4
ENDBRANCH  15  13
BRANCH  21  23
ATOM     23  C   UNL     1       0.481   0.155  23.854  0.00  0.00    +0.143 C 
BRANCH  23  24
ATOM     24  S   UNL     1       0.629  -0.100  23.084  0.00  0.00    -0.119 S 
BRANCH  24  25
ATOM     25  C   UNL     1       1.364  -0.421  22.889  0.00  0.00    +0.172 C 
BRANCH  25  26
ATOM     26  C   UNL     1       1.716  -0.237  22.166  0.00  0.00    +0.376 C 
ATOM     27  O   UNL     1       2.442   0.154  22.148  0.00  0.00    -0.245 OA
ATOM     28  O   UNL     1       1.341  -0.444  21.460  0.00  0.00    -0.245 OA
ENDBRANCH  25  26
ENDBRANCH  24  25
ENDBRANCH  23  24
ENDBRANCH  21  23
BRANCH  17  29
ATOM     29  N   UNL     1      -0.907   2.853  26.111  0.00  0.00    -0.079 NA
BRANCH  29  30
ATOM     30  S   UNL     1      -1.163   3.572  25.801  0.00  0.00    +0.082 S 
ATOM     31  O   UNL     1      -0.411   3.706  25.489  0.00  0.00    -0.151 OA
ATOM     32  O   UNL     1      -1.915   3.438  26.113  0.00  0.00    -0.151 OA
BRANCH  30  33
ATOM     33  C   UNL     1      -1.421   4.293  25.490  0.00  0.00    +0.153 A 
ATOM     34  C   UNL     1      -0.955   4.840  25.087  0.00  0.00    +0.027 A 
ATOM     35  C   UNL     1      -1.435   5.477  24.876  0.00  0.00    +0.009 A 
ATOM     36  C   UNL     1      -2.198   5.323  25.151  0.00  0.00    +0.037 A 
ATOM     37  S   UNL     1      -2.189   4.590  25.530  0.00  0.00    -0.067 S 
ENDBRANCH  30  33
ENDBRANCH  29  30
ENDBRANCH  17  29
TORSDOF 12
ENDMDL
MODEL 3
REMARK VINA RESULT:      -9.1      1.783      4.145
REMARK  Name = 
REMARK  12 active torsions:
REMARK  status: ('A' for Active; 'I' for Inactive)
REMARK    1  A    between atoms: C_2  and  C_4
REMARK    2  A    between atoms: C_4  and  C_5
REMARK    3  A    between atoms: C_4  and  N_12
REMARK    4  A    between atoms: C_5  and  C_6
REMARK    5  A    between atoms: C_13  and  C_15
REMARK    6  A    between atoms: C_17  and  N_29
REMARK    7  A    between atoms: C_21  and  C_23
REMARK    8  A    between atoms: C_23  and  S_24
REMARK    9  A    between atoms: S_24  and  C_25
REMARK   10  A    between atoms: C_25  and  C_26
REMARK   11  A    between atoms: N_29  and  S_30
REMARK   12  A    between atoms: S_30  and  C_33
REMARK                            x       y       z     vdW  Elec       q    Type
REMARK                         _______ _______ _______ _____ _____    ______ ____
ROOT
ATOM     15  C   UNL     1      -2.201   0.896  24.217  0.00  0.00    +0.155 C 
ATOM     16  C   UNL     1      -2.876   1.356  24.099  0.00  0.00    +0.049 C 
ATOM     17  C   UNL     1      -2.836   2.035  23.633  0.00  0.00    +0.102 C 
ATOM     18  C   UNL     1      -2.120   2.254  23.284  0.00  0.00    +0.041 C 
ATOM     19  C   UNL     1      -1.446   1.794  23.402  0.00  0.00    +0.095 C 
ATOM     20  N   UNL     1      -1.487   1.115  23.868  0.00  0.00    -0.272 N 
ATOM     21  C   UNL     1      -0.813   0.655  23.986  0.00  0.00    +0.237 C 
ATOM     22  O   UNL     1      -0.853  -0.025  24.453  0.00  0.00    -0.274 OA
ENDROOT
BRANCH  15  13
ATOM     12  N   UNL     1      -2.918  -0.257  24.666  0.00  0.00    -0.196 NA
ATOM     13  C   UNL     1      -2.242   0.216  24.684  0.00  0.00    +0.260 C 
ATOM     14  O   UNL     1      -1.607   0.010  25.167  0.00  0.00    -0.272 OA
BRANCH  12   4
ATOM      4  C   UNL     1      -2.958  -0.936  25.132  0.00  0.00    +0.179 C 
BRANCH   4   2
ATOM      1  N   UNL     1      -2.790  -1.217  26.523  0.00  0.00    -0.086 NA
ATOM      2  C   UNL     1      -3.232  -0.887  25.910  0.00  0.00    +0.281 C 
ATOM      3  O   UNL     1      -3.945  -0.508  26.073  0.00  0.00    -0.270 OA
ENDBRANCH   4   2
BRANCH   4   5
ATOM      5  C   UNL     1      -2.726  -1.665  24.822  0.00  0.00    +0.057 C 
BRANCH   5   6
ATOM      6  C   UNL     1      -3.278  -2.150  24.451  0.00  0.00    -0.020 A 
ATOM      7  C   UNL     1      -3.284  -2.961  24.603  0.00  0.00    -0.004 A 
ATOM      8  C   UNL     1      -3.837  -3.448  24.232  0.00  0.00    -0.000 A 
ATOM      9  C   UNL     1      -4.385  -3.122  23.708  0.00  0.00    -0.000 A 
ATOM     10  C   UNL     1      -4.380  -2.312  23.555  0.00  0.00    -0.000 A 
ATOM     11  C   UNL     1      -3.827  -1.826  23.927  0.00  0.00    -0.004 A 
ENDBRANCH   5   6
ENDBRANCH   4   5
ENDBRANCH  12   4
ENDBRANCH  15  13
BRANCH  21  23
ATOM     23  C   UNL     1      -0.097   0.873  23.638  0.00  0.00    +0.143 C 
BRANCH  23  24
ATOM     24  S   UNL     1       0.452   0.296  23.425  0.00  0.00    -0.119 S 
BRANCH  24  25
ATOM     25  C   UNL     1       1.171   0.515  23.086  0.00  0.00    +0.172 C 
BRANCH  25  26
ATOM     26  C   UNL     1       1.624  -0.042  22.681  0.00  0.00    +0.376 C 
ATOM     27  O   UNL     1       1.396  -0.292  21.928  0.00  0.00    -0.245 OA
ATOM     28  O   UNL     1       2.306  -0.351  23.029  0.00  0.00    -0.245 OA
ENDBRANCH  25  26
ENDBRANCH  24  25
ENDBRANCH  23  24
ENDBRANCH  21  23
BRANCH  17  29
ATOM     29  N   UNL     1      -3.511   2.496  23.514  0.00  0.00    -0.079 NA
BRANCH  29  30
ATOM     30  S   UNL     1      -3.904   2.823  24.160  0.00  0.00    +0.082 S 
ATOM     31  O   UNL     1      -3.301   3.380  24.246  0.00  0.00    -0.151 OA
ATOM     32  O   UNL     1      -4.508   2.267  24.074  0.00  0.00    -0.151 OA
BRANCH  30  33
ATOM     33  C   UNL     1      -4.299   3.151  24.807  0.00  0.00    +0.153 A 
ATOM     34  C   UNL     1      -4.029   3.775  25.273  0.00  0.00    +0.027 A 
ATOM     35  C   UNL     1      -4.596   3.921  25.855  0.00  0.00    +0.009 A 
ATOM     36  C   UNL     1      -5.216   3.388  25.748  0.00  0.00    +0.037 A 
ATOM     37  S   UNL     1      -5.032   2.911  25.099  0.00  0.00    -0.067 S 
ENDBRANCH  30  33
ENDBRANCH  29  30
ENDBRANCH  17  29
TORSDOF 12
ENDMDL
