MODEL 1
REMARK VINA RESULT:     -12.1      0.000      0.000
REMARK  Name = 
REMARK  8 active torsions:
REMARK  status: ('A' for Active; 'I' for Inactive)
REMARK    1  A    between atoms: C_3  and  C_4
REMARK    2  A    between atoms: C_4  and  N_5
REMARK    3  A    between atoms: C_6  and  C_8
REMARK    4  A    between atoms: C_14  and  C_15
REMARK    5  A    between atoms: C_15  and  C_16
REMARK    6  A    between atoms: C_18  and  C_21
REMARK    7  A    between atoms: C_24  and  O_25
REMARK    8  A    between atoms: O_25  and  C_26
REMARK                            x       y       z     vdW  Elec       q    Type
REMARK                         _______ _______ _______ _____ _____    ______ ____
ROOT
ATOM     15  C   UNL     1      -0.893   2.046  24.803  0.00  0.00    +0.120 C 
ENDROOT
BRANCH  15  14
ATOM      1  O   UNL     1      -1.731   4.758  25.419  0.00  0.00    -0.218 OA
ATOM      2  C   UNL     1      -1.748   3.949  25.254  0.00  0.00    +0.213 C 
ATOM      3  C   UNL     1      -2.423   3.479  25.203  0.00  0.00    +0.170 C 
ATOM     13  O   UNL     1      -2.186   2.709  25.028  0.00  0.00    -0.351 OA
ATOM     14  C   UNL     1      -1.362   2.703  24.970  0.00  0.00    +0.157 C 
ATOM     32  C   UNL     1      -1.093   3.470  25.110  0.00  0.00    +0.212 C 
ATOM     33  O   UNL     1      -0.304   3.714  25.106  0.00  0.00    -0.218 OA
BRANCH   3   4
ATOM      4  C   UNL     1      -3.201   3.733  25.309  0.00  0.00    +0.148 C 
BRANCH   4   5
ATOM      5  N   UNL     1      -3.804   3.181  25.418  0.00  0.00    -0.196 NA
ATOM      6  C   UNL     1      -4.591   3.426  25.435  0.00  0.00    +0.300 C 
ATOM      7  O   UNL     1      -4.776   4.224  25.343  0.00  0.00    -0.265 OA
BRANCH   6   8
ATOM      8  C   UNL     1      -5.194   2.873  25.544  0.00  0.00    +0.200 A 
ATOM      9  C   UNL     1      -5.453   2.321  24.988  0.00  0.00    +0.046 A 
ATOM     10  C   UNL     1      -6.062   1.882  25.328  0.00  0.00    +0.044 A 
ATOM     11  C   UNL     1      -6.180   2.162  26.095  0.00  0.00    +0.180 A 
ATOM     12  O   UNL     1      -5.644   2.774  26.229  0.00  0.00    -0.446 OA
ENDBRANCH   6   8
ENDBRANCH   4   5
ENDBRANCH   3   4
ENDBRANCH  15  14
BRANCH  15  16
ATOM     16  C   UNL     1      -1.096   1.306  25.106  0.00  0.00    +0.239 A 
ATOM     17  N   UNL     1      -1.670   0.798  24.801  0.00  0.00    -0.191 NA
ATOM     18  C   UNL     1      -1.690   0.122  25.274  0.00  0.00    +0.203 A 
ATOM     19  N   UNL     1      -1.127   0.213  25.872  0.00  0.00    -0.056 NA
ATOM     20  O   UNL     1      -0.761   0.945  25.767  0.00  0.00    -0.337 OA
BRANCH  18  21
ATOM     21  C   UNL     1      -2.183  -0.530  25.168  0.00  0.00    +0.039 A 
ATOM     22  C   UNL     1      -2.958  -0.511  25.452  0.00  0.00    +0.006 A 
ATOM     23  C   UNL     1      -3.452  -1.162  25.347  0.00  0.00    +0.037 A 
ATOM     24  C   UNL     1      -3.172  -1.834  24.957  0.00  0.00    +0.147 A 
ATOM     30  C   UNL     1      -2.397  -1.854  24.674  0.00  0.00    +0.037 A 
ATOM     31  C   UNL     1      -1.903  -1.201  24.780  0.00  0.00    +0.006 A 
BRANCH  24  25
ATOM     25  O   UNL     1      -3.666  -2.486  24.852  0.00  0.00    -0.404 OA
BRANCH  25  26
ATOM     26  C   UNL     1      -4.029  -2.616  24.122  0.00  0.00    +0.575 C 
ATOM     27  F   UNL     1      -4.392  -2.746  23.393  0.00  0.00    -0.133 F 
ATOM     28  F   UNL     1      -4.574  -2.019  24.287  0.00  0.00    -0.133 F 
ATOM     29  F   UNL     1      -3.484  -3.213  23.958  0.00  0.00    -0.133 F 
ENDBRANCH  25  26
ENDBRANCH  24  25
ENDBRANCH  18  21
ENDBRANCH  15  16
TORSDOF 8
ENDMDL
MODEL 2
REMARK VINA RESULT:     -11.6      1.458      3.504
REMARK  Name = 
REMARK  8 active torsions:
REMARK  status: ('A' for Active; 'I' for Inactive)
REMARK    1  A    between atoms: C_3  and  C_4
REMARK    2  A    between atoms: C_4  and  N_5
REMARK    3  A    between atoms: C_6  and  C_8
REMARK    4  A    between atoms: C_14  and  C_15
REMARK    5  A    between atoms: C_15  and  C_16
REMARK    6  A    between atoms: C_18  and  C_21
REMARK    7  A    between atoms: C_24  and  O_25
REMARK    8  A    between atoms: O_25  and  C_26
REMARK                            x       y       z     vdW  Elec       q    Type
REMARK                         _______ _______ _______ _____ _____    ______ ____
ROOT
ATOM     15  C   UNL     1      -3.874   2.884  24.535  0.00  0.00    +0.120 C 
ENDROOT
BRANCH  15  14
ATOM      1  O   UNL     1      -1.470   4.331  25.283  0.00  0.00    -0.218 OA
ATOM      2  C   UNL     1      -1.978   3.741  25.008  0.00  0.00    +0.213 C 
ATOM      3  C   UNL     1      -1.751   3.004  24.718  0.00  0.00    +0.170 C 
ATOM     13  O   UNL     1      -2.433   2.592  24.505  0.00  0.00    -0.351 OA
ATOM     14  C   UNL     1      -3.083   3.077  24.664  0.00  0.00    +0.157 C 
ATOM     32  C   UNL     1      -2.800   3.787  24.975  0.00  0.00    +0.212 C 
ATOM     33  O   UNL     1      -3.261   4.429  25.211  0.00  0.00    -0.218 OA
BRANCH   3   4
ATOM      4  C   UNL     1      -0.977   2.724  24.651  0.00  0.00    +0.148 C 
BRANCH   4   5
ATOM      5  N   UNL     1      -0.835   1.977  24.332  0.00  0.00    -0.196 NA
ATOM      6  C   UNL     1      -0.098   1.621  24.428  0.00  0.00    +0.300 C 
ATOM      7  O   UNL     1       0.498   2.012  24.842  0.00  0.00    -0.265 OA
BRANCH   6   8
ATOM      8  C   UNL     1       0.044   0.873  24.109  0.00  0.00    +0.200 A 
ATOM      9  C   UNL     1      -0.283   0.162  24.373  0.00  0.00    +0.046 A 
ATOM     10  C   UNL     1       0.009  -0.445  23.898  0.00  0.00    +0.044 A 
ATOM     11  C   UNL     1       0.516  -0.111  23.341  0.00  0.00    +0.180 A 
ATOM     12  O   UNL     1       0.539   0.703  23.470  0.00  0.00    -0.446 OA
ENDBRANCH   6   8
ENDBRANCH   4   5
ENDBRANCH   3   4
ENDBRANCH  15  14
BRANCH  15  16
ATOM     16  C   UNL     1      -4.158   2.139  24.751  0.00  0.00    +0.239 A 
ATOM     17  N   UNL     1      -3.844   1.414  24.516  0.00  0.00    -0.191 NA
ATOM     18  C   UNL     1      -4.297   0.816  24.859  0.00  0.00    +0.203 A 
ATOM     19  N   UNL     1      -4.891   1.173  25.306  0.00  0.00    -0.056 NA
ATOM     20  O   UNL     1      -4.805   1.991  25.239  0.00  0.00    -0.337 OA
BRANCH  18  21
ATOM     21  C   UNL     1      -4.177   0.005  24.770  0.00  0.00    +0.039 A 
ATOM     22  C   UNL     1      -3.915  -0.445  25.410  0.00  0.00    +0.006 A 
ATOM     23  C   UNL     1      -3.795  -1.257  25.322  0.00  0.00    +0.037 A 
ATOM     24  C   UNL     1      -3.938  -1.618  24.593  0.00  0.00    +0.147 A 
ATOM     30  C   UNL     1      -4.200  -1.168  23.954  0.00  0.00    +0.037 A 
ATOM     31  C   UNL     1      -4.319  -0.356  24.043  0.00  0.00    +0.006 A 
BRANCH  24  25
ATOM     25  O   UNL     1      -3.818  -2.429  24.506  0.00  0.00    -0.404 OA
BRANCH  25  26
ATOM     26  C   UNL     1      -3.073  -2.755  24.647  0.00  0.00    +0.575 C 
ATOM     27  F   UNL     1      -2.328  -3.080  24.788  0.00  0.00    -0.133 F 
ATOM     28  F   UNL     1      -3.320  -2.994  25.397  0.00  0.00    -0.133 F 
ATOM     29  F   UNL     1      -2.826  -2.516  23.897  0.00  0.00    -0.133 F 
ENDBRANCH  25  26
ENDBRANCH  24  25
ENDBRANCH  18  21
ENDBRANCH  15  16
TORSDOF 8
ENDMDL
MODEL 3
REMARK VINA RESULT:     -11.5      2.098      4.655
REMARK  Name = 
REMARK  8 active torsions:
REMARK  status: ('A' for Active; 'I' for Inactive)
REMARK    1  A    between atoms: C_3  and  C_4
REMARK    2  A    between atoms: C_4  and  N_5
REMARK    3  A    between atoms: C_6  and  C_8
REMARK    4  A    between atoms: C_14  and  C_15
REMARK    5  A    between atoms: C_15  and  C_16
REMARK    6  A    between atoms: C_18  and  C_21
REMARK    7  A    between atoms: C_24  and  O_25
REMARK    8  A    between atoms: O_25  and  C_26
REMARK                            x       y       z     vdW  Elec       q    Type
REMARK                         _______ _______ _______ _____ _____    ______ ____
ROOT
ATOM     15  C   UNL     1      -0.690   1.879  24.254  0.00  0.00    +0.120 C 
ENDROOT
BRANCH  15  14
ATOM      1  O   UNL     1       0.827  -0.517  23.627  0.00  0.00    -0.218 OA
ATOM      2  C   UNL     1       0.232  -0.012  23.899  0.00  0.00    +0.213 C 
ATOM      3  C   UNL     1      -0.468  -0.243  24.268  0.00  0.00    +0.170 C 
ATOM     13  O   UNL     1      -0.899   0.437  24.446  0.00  0.00    -0.351 OA
ATOM     14  C   UNL     1      -0.464   1.090  24.187  0.00  0.00    +0.157 C 
ATOM     32  C   UNL     1       0.235   0.811  23.849  0.00  0.00    +0.212 C 
ATOM     33  O   UNL     1       0.831   1.275  23.519  0.00  0.00    -0.218 OA
BRANCH   3   4
ATOM      4  C   UNL     1      -0.699  -1.018  24.431  0.00  0.00    +0.148 C 
BRANCH   4   5
ATOM      5  N   UNL     1      -1.498  -1.222  24.418  0.00  0.00    -0.196 NA
ATOM      6  C   UNL     1      -1.737  -1.971  24.664  0.00  0.00    +0.300 C 
ATOM      7  O   UNL     1      -1.177  -2.519  24.923  0.00  0.00    -0.265 OA
BRANCH   6   8
ATOM      8  C   UNL     1      -2.537  -2.175  24.651  0.00  0.00    +0.200 A 
ATOM      9  C   UNL     1      -3.140  -1.800  25.071  0.00  0.00    +0.046 A 
ATOM     10  C   UNL     1      -3.850  -2.181  24.895  0.00  0.00    +0.044 A 
ATOM     11  C   UNL     1      -3.685  -2.793  24.367  0.00  0.00    +0.180 A 
ATOM     12  O   UNL     1      -2.875  -2.790  24.215  0.00  0.00    -0.446 OA
ENDBRANCH   6   8
ENDBRANCH   4   5
ENDBRANCH   3   4
ENDBRANCH  15  14
BRANCH  15  16
ATOM     16  C   UNL     1      -1.459   2.107  24.060  0.00  0.00    +0.239 A 
ATOM     17  N   UNL     1      -2.106   2.117  24.572  0.00  0.00    -0.191 NA
ATOM     18  C   UNL     1      -2.763   2.381  24.148  0.00  0.00    +0.203 A 
ATOM     19  N   UNL     1      -2.521   2.533  23.374  0.00  0.00    -0.056 NA
ATOM     20  O   UNL     1      -1.715   2.364  23.320  0.00  0.00    -0.337 OA
BRANCH  18  21
ATOM     21  C   UNL     1      -3.526   2.475  24.446  0.00  0.00    +0.039 A 
ATOM     22  C   UNL     1      -3.724   3.158  24.864  0.00  0.00    +0.006 A 
ATOM     23  C   UNL     1      -4.487   3.253  25.162  0.00  0.00    +0.037 A 
ATOM     24  C   UNL     1      -5.053   2.664  25.041  0.00  0.00    +0.147 A 
ATOM     30  C   UNL     1      -4.855   1.981  24.622  0.00  0.00    +0.037 A 
ATOM     31  C   UNL     1      -4.091   1.887  24.325  0.00  0.00    +0.006 A 
BRANCH  24  25
ATOM     25  O   UNL     1      -5.817   2.759  25.339  0.00  0.00    -0.404 OA
BRANCH  25  26
ATOM     26  C   UNL     1      -6.105   2.237  25.909  0.00  0.00    +0.575 C 
ATOM     27  F   UNL     1      -6.394   1.716  26.479  0.00  0.00    -0.133 F 
ATOM     28  F   UNL     1      -5.741   2.683  26.500  0.00  0.00    -0.133 F 
ATOM     29  F   UNL     1      -6.470   1.792  25.317  0.00  0.00    -0.133 F 
ENDBRANCH  25  26
ENDBRANCH  24  25
ENDBRANCH  18  21
ENDBRANCH  15  16
TORSDOF 8
ENDMDL
MODEL 4
REMARK VINA RESULT:     -11.4      1.411      3.386
REMARK  Name = 
REMARK  8 active torsions:
REMARK  status: ('A' for Active; 'I' for Inactive)
REMARK    1  A    between atoms: C_3  and  C_4
REMARK    2  A    between atoms: C_4  and  N_5
REMARK    3  A    between atoms: C_6  and  C_8
REMARK    4  A    between atoms: C_14  and  C_15
REMARK    5  A    between atoms: C_15  and  C_16
REMARK    6  A    between atoms: C_18  and  C_21
REMARK    7  A    between atoms: C_24  and  O_25
REMARK    8  A    between atoms: O_25  and  C_26
REMARK                            x       y       z     vdW  Elec       q    Type
REMARK                         _______ _______ _______ _____ _____    ______ ____
ROOT
ATOM     15  C   UNL     1      -5.000   2.198  24.572  0.00  0.00    +0.120 C 
ENDROOT
BRANCH  15  14
ATOM      1  O   UNL     1      -4.197   4.691  25.825  0.00  0.00    -0.218 OA
ATOM      2  C   UNL     1      -4.169   3.961  25.440  0.00  0.00    +0.213 C 
ATOM      3  C   UNL     1      -3.488   3.572  25.189  0.00  0.00    +0.170 C 
ATOM     13  O   UNL     1      -3.715   2.863  24.833  0.00  0.00    -0.351 OA
ATOM     14  C   UNL     1      -4.539   2.815  24.864  0.00  0.00    +0.157 C 
ATOM     32  C   UNL     1      -4.819   3.495  25.240  0.00  0.00    +0.212 C 
ATOM     33  O   UNL     1      -5.610   3.674  25.388  0.00  0.00    -0.218 OA
BRANCH   3   4
ATOM      4  C   UNL     1      -2.713   3.841  25.278  0.00  0.00    +0.148 C 
BRANCH   4   5
ATOM      5  N   UNL     1      -2.087   3.304  25.278  0.00  0.00    -0.196 NA
ATOM      6  C   UNL     1      -1.309   3.576  25.300  0.00  0.00    +0.300 C 
ATOM      7  O   UNL     1      -1.157   4.386  25.321  0.00  0.00    -0.265 OA
BRANCH   6   8
ATOM      8  C   UNL     1      -0.683   3.039  25.300  0.00  0.00    +0.200 A 
ATOM      9  C   UNL     1      -0.320   2.716  25.968  0.00  0.00    +0.046 A 
ATOM     10  C   UNL     1       0.277   2.208  25.714  0.00  0.00    +0.044 A 
ATOM     11  C   UNL     1       0.283   2.215  24.889  0.00  0.00    +0.180 A 
ATOM     12  O   UNL     1      -0.309   2.728  24.632  0.00  0.00    -0.446 OA
ENDBRANCH   6   8
ENDBRANCH   4   5
ENDBRANCH   3   4
ENDBRANCH  15  14
BRANCH  15  16
ATOM     16  C   UNL     1      -4.916   1.438  24.883  0.00  0.00    +0.239 A 
ATOM     17  N   UNL     1      -4.413   0.850  24.598  0.00  0.00    -0.191 NA
ATOM     18  C   UNL     1      -4.507   0.181  25.072  0.00  0.00    +0.203 A 
ATOM     19  N   UNL     1      -5.070   0.357  25.650  0.00  0.00    -0.056 NA
ATOM     20  O   UNL     1      -5.322   1.133  25.533  0.00  0.00    -0.337 OA
BRANCH  18  21
ATOM     21  C   UNL     1      -4.110  -0.536  24.984  0.00  0.00    +0.039 A 
ATOM     22  C   UNL     1      -4.230  -0.994  24.309  0.00  0.00    +0.006 A 
ATOM     23  C   UNL     1      -3.833  -1.711  24.220  0.00  0.00    +0.037 A 
ATOM     24  C   UNL     1      -3.315  -1.971  24.808  0.00  0.00    +0.147 A 
ATOM     30  C   UNL     1      -3.194  -1.513  25.483  0.00  0.00    +0.037 A 
ATOM     31  C   UNL     1      -3.592  -0.795  25.571  0.00  0.00    +0.006 A 
BRANCH  24  25
ATOM     25  O   UNL     1      -2.917  -2.688  24.719  0.00  0.00    -0.404 OA
BRANCH  25  26
ATOM     26  C   UNL     1      -2.164  -2.705  24.383  0.00  0.00    +0.575 C 
ATOM     27  F   UNL     1      -1.411  -2.721  24.046  0.00  0.00    -0.133 F 
ATOM     28  F   UNL     1      -2.500  -2.825  23.638  0.00  0.00    -0.133 F 
ATOM     29  F   UNL     1      -1.829  -2.584  25.127  0.00  0.00    -0.133 F 
ENDBRANCH  25  26
ENDBRANCH  24  25
ENDBRANCH  18  21
ENDBRANCH  15  16
TORSDOF 8
ENDMDL
MODEL 5
REMARK VINA RESULT:     -11.2      2.663      4.659
REMARK  Name = 
REMARK  8 active torsions:
REMARK  status: ('A' for Active; 'I' for Inactive)
REMARK    1  A    between atoms: C_3  and  C_4
REMARK    2  A    between atoms: C_4  and  N_5
REMARK    3  A    between atoms: C_6  and  C_8
REMARK    4  A    between atoms: C_14  and  C_15
REMARK    5  A    between atoms: C_15  and  C_16
REMARK    6  A    between atoms: C_18  and  C_21
REMARK    7  A    between atoms: C_24  and  O_25
REMARK    8  A    between atoms: O_25  and  C_26
REMARK                            x       y       z     vdW  Elec       q    Type
REMARK                         _______ _______ _______ _____ _____    ______ ____
ROOT
ATOM     15  C   UNL     1      -1.687  -0.807  25.076  0.00  0.00    +0.120 C 
ENDROOT
BRANCH  15  14
ATOM      1  O   UNL     1      -4.358  -1.640  24.299  0.00  0.00    -0.218 OA
ATOM      2  C   UNL     1      -3.723  -1.181  24.563  0.00  0.00    +0.213 C 
ATOM      3  C   UNL     1      -3.761  -0.392  24.796  0.00  0.00    +0.170 C 
ATOM     13  O   UNL     1      -3.003  -0.154  25.017  0.00  0.00    -0.351 OA
ATOM     14  C   UNL     1      -2.496  -0.799  24.920  0.00  0.00    +0.157 C 
ATOM     32  C   UNL     1      -2.943  -1.433  24.639  0.00  0.00    +0.212 C 
ATOM     33  O   UNL     1      -2.656  -2.187  24.466  0.00  0.00    -0.218 OA
BRANCH   3   4
ATOM      4  C   UNL     1      -4.438   0.080  24.807  0.00  0.00    +0.148 C 
BRANCH   4   5
ATOM      5  N   UNL     1      -4.378   0.881  24.994  0.00  0.00    -0.196 NA
ATOM      6  C   UNL     1      -5.038   1.372  24.925  0.00  0.00    +0.300 C 
ATOM      7  O   UNL     1      -5.758   1.060  24.669  0.00  0.00    -0.265 OA
BRANCH   6   8
ATOM      8  C   UNL     1      -4.978   2.173  25.111  0.00  0.00    +0.200 A 
ATOM      9  C   UNL     1      -4.563   2.742  24.681  0.00  0.00    +0.046 A 
ATOM     10  C   UNL     1      -4.651   3.467  25.064  0.00  0.00    +0.044 A 
ATOM     11  C   UNL     1      -5.121   3.346  25.731  0.00  0.00    +0.180 A 
ATOM     12  O   UNL     1      -5.323   2.547  25.761  0.00  0.00    -0.446 OA
ENDBRANCH   6   8
ENDBRANCH   4   5
ENDBRANCH   3   4
ENDBRANCH  15  14
BRANCH  15  16
ATOM     16  C   UNL     1      -1.227  -0.143  24.905  0.00  0.00    +0.239 A 
ATOM     17  N   UNL     1      -1.372   0.627  25.162  0.00  0.00    -0.191 NA
ATOM     18  C   UNL     1      -0.777   1.113  24.862  0.00  0.00    +0.203 A 
ATOM     19  N   UNL     1      -0.264   0.642  24.419  0.00  0.00    -0.056 NA
ATOM     20  O   UNL     1      -0.542  -0.134  24.446  0.00  0.00    -0.337 OA
BRANCH  18  21
ATOM     21  C   UNL     1      -0.707   1.926  24.983  0.00  0.00    +0.039 A 
ATOM     22  C   UNL     1      -0.705   2.440  24.338  0.00  0.00    +0.006 A 
ATOM     23  C   UNL     1      -0.635   3.253  24.458  0.00  0.00    +0.037 A 
ATOM     24  C   UNL     1      -0.566   3.552  25.224  0.00  0.00    +0.147 A 
ATOM     30  C   UNL     1      -0.568   3.038  25.869  0.00  0.00    +0.037 A 
ATOM     31  C   UNL     1      -0.638   2.225  25.748  0.00  0.00    +0.006 A 
BRANCH  24  25
ATOM     25  O   UNL     1      -0.496   4.365  25.344  0.00  0.00    -0.404 OA
BRANCH  25  26
ATOM     26  C   UNL     1      -1.111   4.870  25.125  0.00  0.00    +0.575 C 
ATOM     27  F   UNL     1      -1.726   5.374  24.906  0.00  0.00    -0.133 F 
ATOM     28  F   UNL     1      -0.687   5.096  24.455  0.00  0.00    -0.133 F 
ATOM     29  F   UNL     1      -1.535   4.643  25.796  0.00  0.00    -0.133 F 
ENDBRANCH  25  26
ENDBRANCH  24  25
ENDBRANCH  18  21
ENDBRANCH  15  16
TORSDOF 8
ENDMDL
MODEL 6
REMARK VINA RESULT:     -11.1      2.381      4.897
REMARK  Name = 
REMARK  8 active torsions:
REMARK  status: ('A' for Active; 'I' for Inactive)
REMARK    1  A    between atoms: C_3  and  C_4
REMARK    2  A    between atoms: C_4  and  N_5
REMARK    3  A    between atoms: C_6  and  C_8
REMARK    4  A    between atoms: C_14  and  C_15
REMARK    5  A    between atoms: C_15  and  C_16
REMARK    6  A    between atoms: C_18  and  C_21
REMARK    7  A    between atoms: C_24  and  O_25
REMARK    8  A    between atoms: O_25  and  C_26
REMARK                            x       y       z     vdW  Elec       q    Type
REMARK                         _______ _______ _______ _____ _____    ______ ____
ROOT
ATOM     15  C   UNL     1      -2.763  -1.401  25.052  0.00  0.00    +0.120 C 
ENDROOT
BRANCH  15  14
ATOM      1  O   UNL     1       0.117  -1.497  24.690  0.00  0.00    -0.218 OA
ATOM      2  C   UNL     1      -0.655  -1.216  24.780  0.00  0.00    +0.213 C 
ATOM      3  C   UNL     1      -0.884  -0.424  24.787  0.00  0.00    +0.170 C 
ATOM     13  O   UNL     1      -1.702  -0.396  24.890  0.00  0.00    -0.351 OA
ATOM     14  C   UNL     1      -1.978  -1.173  24.946  0.00  0.00    +0.157 C 
ATOM     32  C   UNL     1      -1.330  -1.678  24.878  0.00  0.00    +0.212 C 
ATOM     33  O   UNL     1      -1.355  -2.503  24.904  0.00  0.00    -0.218 OA
BRANCH   3   4
ATOM      4  C   UNL     1      -0.385   0.227  24.706  0.00  0.00    +0.148 C 
BRANCH   4   5
ATOM      5  N   UNL     1      -0.674   0.988  24.842  0.00  0.00    -0.196 NA
ATOM      6  C   UNL     1      -0.208   1.645  24.665  0.00  0.00    +0.300 C 
ATOM      7  O   UNL     1       0.548   1.541  24.352  0.00  0.00    -0.265 OA
BRANCH   6   8
ATOM      8  C   UNL     1      -0.498   2.405  24.802  0.00  0.00    +0.200 A 
ATOM      9  C   UNL     1      -0.542   2.784  25.534  0.00  0.00    +0.046 A 
ATOM     10  C   UNL     1      -0.865   3.533  25.415  0.00  0.00    +0.044 A 
ATOM     11  C   UNL     1      -1.020   3.618  24.609  0.00  0.00    +0.180 A 
ATOM     12  O   UNL     1      -0.794   2.922  24.230  0.00  0.00    -0.446 OA
ENDBRANCH   6   8
ENDBRANCH   4   5
ENDBRANCH   3   4
ENDBRANCH  15  14
BRANCH  15  16
ATOM     16  C   UNL     1      -3.374  -0.908  24.797  0.00  0.00    +0.239 A 
ATOM     17  N   UNL     1      -3.533  -0.148  25.076  0.00  0.00    -0.191 NA
ATOM     18  C   UNL     1      -4.190   0.142  24.670  0.00  0.00    +0.203 A 
ATOM     19  N   UNL     1      -4.437  -0.441  24.139  0.00  0.00    -0.056 NA
ATOM     20  O   UNL     1      -3.933  -1.088  24.218  0.00  0.00    -0.337 OA
BRANCH  18  21
ATOM     21  C   UNL     1      -4.538   0.881  24.775  0.00  0.00    +0.039 A 
ATOM     22  C   UNL     1      -4.261   1.532  24.350  0.00  0.00    +0.006 A 
ATOM     23  C   UNL     1      -4.609   2.272  24.455  0.00  0.00    +0.037 A 
ATOM     24  C   UNL     1      -5.235   2.362  24.986  0.00  0.00    +0.147 A 
ATOM     30  C   UNL     1      -5.512   1.711  25.411  0.00  0.00    +0.037 A 
ATOM     31  C   UNL     1      -5.163   0.971  25.305  0.00  0.00    +0.006 A 
BRANCH  24  25
ATOM     25  O   UNL     1      -5.583   3.102  25.091  0.00  0.00    -0.404 OA
BRANCH  25  26
ATOM     26  C   UNL     1      -5.203   3.677  25.545  0.00  0.00    +0.575 C 
ATOM     27  F   UNL     1      -4.823   4.251  25.999  0.00  0.00    -0.133 F 
ATOM     28  F   UNL     1      -4.837   3.971  24.866  0.00  0.00    -0.133 F 
ATOM     29  F   UNL     1      -5.569   3.383  26.223  0.00  0.00    -0.133 F 
ENDBRANCH  25  26
ENDBRANCH  24  25
ENDBRANCH  18  21
ENDBRANCH  15  16
TORSDOF 8
ENDMDL
