MODEL 1
REMARK VINA RESULT:     -12.1      0.000      0.000
REMARK  Name = 
REMARK  6 active torsions:
REMARK  status: ('A' for Active; 'I' for Inactive)
REMARK    1  A    between atoms: C_5  and  S_8
REMARK    2  A    between atoms: S_8  and  C_11
REMARK    3  A    between atoms: C_11  and  C_12
REMARK    4  A    between atoms: C_15  and  C_17
REMARK    5  A    between atoms: N_22  and  C_23
REMARK    6  A    between atoms: C_23  and  C_24
REMARK                            x       y       z     vdW  Elec       q    Type
REMARK                         _______ _______ _______ _____ _____    ______ ____
ROOT
ATOM     12  C   UNL     1      -0.761   0.688  24.746  0.00  0.00    +0.205 A 
ATOM     13  N   UNL     1      -0.621   0.874  23.954  0.00  0.00    -0.059 NA
ATOM     14  O   UNL     1      -0.772   1.679  23.851  0.00  0.00    -0.336 OA
ATOM     15  C   UNL     1      -1.004   1.990  24.579  0.00  0.00    +0.251 A 
ATOM     16  N   UNL     1      -0.998   1.377  25.132  0.00  0.00    -0.192 NA
ENDROOT
BRANCH  15  17
ATOM     17  C   UNL     1      -1.208   2.775  24.728  0.00  0.00    +0.140 C 
ATOM     18  C   UNL     1      -0.684   3.385  24.912  0.00  0.00    +0.060 C 
ATOM     19  C   UNL     1      -1.123   4.076  25.018  0.00  0.00    +0.170 C 
ATOM     20  O   UNL     1      -0.820   4.819  25.208  0.00  0.00    -0.222 OA
ATOM     21  C   UNL     1      -1.919   3.892  24.899  0.00  0.00    +0.106 C 
ATOM     22  N   UNL     1      -1.971   3.088  24.720  0.00  0.00    -0.260 NA
BRANCH  22  23
ATOM     23  C   UNL     1      -2.665   2.672  24.561  0.00  0.00    +0.100 C 
BRANCH  23  24
ATOM     24  C   UNL     1      -3.393   2.979  24.794  0.00  0.00    -0.006 A 
ATOM     25  C   UNL     1      -3.677   2.836  25.556  0.00  0.00    -0.002 A 
ATOM     26  C   UNL     1      -4.406   3.144  25.790  0.00  0.00    +0.011 A 
ATOM     27  C   UNL     1      -4.852   3.594  25.261  0.00  0.00    +0.058 A 
ATOM     28 CL   UNL     1      -5.581   3.901  25.495  0.00  0.00    -0.082 Cl
ATOM     29  C   UNL     1      -4.569   3.736  24.500  0.00  0.00    +0.011 A 
ATOM     30  C   UNL     1      -3.840   3.429  24.266  0.00  0.00    -0.002 A 
ENDBRANCH  23  24
ENDBRANCH  22  23
ENDBRANCH  15  17
BRANCH  12  11
ATOM     11  C   UNL     1      -0.678  -0.057  25.091  0.00  0.00    +0.224 C 
BRANCH  11   8
ATOM      8  S   UNL     1      -1.278  -0.618  25.009  0.00  0.00    +0.016 S 
ATOM      9  O   UNL     1      -0.998  -0.807  24.256  0.00  0.00    -0.168 OA
ATOM     10  O   UNL     1      -1.558  -0.429  25.761  0.00  0.00    -0.168 OA
BRANCH   8   5
ATOM      1  C   UNL     1      -3.673  -2.863  24.676  0.00  0.00    +0.031 C 
ATOM      2  C   UNL     1      -3.075  -2.301  24.760  0.00  0.00    -0.022 A 
ATOM      3  C   UNL     1      -3.238  -1.573  25.110  0.00  0.00    -0.003 A 
ATOM      4  C   UNL     1      -2.640  -1.011  25.193  0.00  0.00    +0.018 A 
ATOM      5  C   UNL     1      -1.877  -1.179  24.926  0.00  0.00    +0.106 A 
ATOM      6  C   UNL     1      -1.713  -1.908  24.575  0.00  0.00    +0.018 A 
ATOM      7  C   UNL     1      -2.313  -2.469  24.492  0.00  0.00    -0.003 A 
ENDBRANCH   8   5
ENDBRANCH  11   8
ENDBRANCH  12  11
TORSDOF 6
ENDMDL
MODEL 2
REMARK VINA RESULT:     -11.7      1.755      4.472
REMARK  Name = 
REMARK  6 active torsions:
REMARK  status: ('A' for Active; 'I' for Inactive)
REMARK    1  A    between atoms: C_5  and  S_8
REMARK    2  A    between atoms: S_8  and  C_11
REMARK    3  A    between atoms: C_11  and  C_12
REMARK    4  A    between atoms: C_15  and  C_17
REMARK    5  A    between atoms: N_22  and  C_23
REMARK    6  A    between atoms: C_23  and  C_24
REMARK                            x       y       z     vdW  Elec       q    Type
REMARK                         _______ _______ _______ _____ _____    ______ ____
ROOT
ATOM     12  C   UNL     1      -1.068   2.677  25.326  0.00  0.00    +0.205 A 
ATOM     13  N   UNL     1      -0.637   2.405  25.975  0.00  0.00    -0.059 NA
ATOM     14  O   UNL     1      -0.386   1.636  25.810  0.00  0.00    -0.336 OA
ATOM     15  C   UNL     1      -0.661   1.434  25.059  0.00  0.00    +0.251 A 
ATOM     16  N   UNL     1      -1.083   2.077  24.760  0.00  0.00    -0.192 NA
ENDROOT
BRANCH  15  17
ATOM     17  C   UNL     1      -0.537   0.715  24.675  0.00  0.00    +0.140 C 
ATOM     18  C   UNL     1       0.087   0.540  24.164  0.00  0.00    +0.060 C 
ATOM     19  C   UNL     1      -0.005  -0.238  23.906  0.00  0.00    +0.170 C 
ATOM     20  O   UNL     1       0.496  -0.640  23.388  0.00  0.00    -0.222 OA
ATOM     21  C   UNL     1      -0.686  -0.545  24.258  0.00  0.00    +0.106 C 
ATOM     22  N   UNL     1      -1.015   0.045  24.733  0.00  0.00    -0.260 NA
BRANCH  22  23
ATOM     23  C   UNL     1      -1.701  -0.024  25.185  0.00  0.00    +0.100 C 
BRANCH  23  24
ATOM     24  C   UNL     1      -2.288  -0.560  24.966  0.00  0.00    -0.006 A 
ATOM     25  C   UNL     1      -2.257  -1.339  25.234  0.00  0.00    -0.002 A 
ATOM     26  C   UNL     1      -2.845  -1.875  25.014  0.00  0.00    +0.011 A 
ATOM     27  C   UNL     1      -3.464  -1.631  24.526  0.00  0.00    +0.058 A 
ATOM     28 CL   UNL     1      -4.052  -2.167  24.307  0.00  0.00    -0.082 Cl
ATOM     29  C   UNL     1      -3.495  -0.851  24.259  0.00  0.00    +0.011 A 
ATOM     30  C   UNL     1      -2.908  -0.316  24.478  0.00  0.00    -0.002 A 
ENDBRANCH  23  24
ENDBRANCH  22  23
ENDBRANCH  15  17
BRANCH  12  11
ATOM     11  C   UNL     1      -1.422   3.419  25.256  0.00  0.00    +0.224 C 
BRANCH  11   8
ATOM      8  S   UNL     1      -2.243   3.490  25.299  0.00  0.00    +0.016 S 
ATOM      9  O   UNL     1      -2.289   3.453  24.476  0.00  0.00    -0.168 OA
ATOM     10  O   UNL     1      -2.197   3.526  26.122  0.00  0.00    -0.168 OA
BRANCH   8   5
ATOM      1  C   UNL     1      -5.527   3.771  25.465  0.00  0.00    +0.031 C 
ATOM      2  C   UNL     1      -4.706   3.701  25.425  0.00  0.00    -0.022 A 
ATOM      3  C   UNL     1      -4.242   3.896  26.077  0.00  0.00    -0.003 A 
ATOM      4  C   UNL     1      -3.420   3.826  26.037  0.00  0.00    +0.018 A 
ATOM      5  C   UNL     1      -3.064   3.560  25.342  0.00  0.00    +0.106 A 
ATOM      6  C   UNL     1      -3.528   3.365  24.687  0.00  0.00    +0.018 A 
ATOM      7  C   UNL     1      -4.349   3.436  24.729  0.00  0.00    -0.003 A 
ENDBRANCH   8   5
ENDBRANCH  11   8
ENDBRANCH  12  11
TORSDOF 6
ENDMDL
MODEL 3
REMARK VINA RESULT:     -11.7      2.110      3.012
REMARK  Name = 
REMARK  6 active torsions:
REMARK  status: ('A' for Active; 'I' for Inactive)
REMARK    1  A    between atoms: C_5  and  S_8
REMARK    2  A    between atoms: S_8  and  C_11
REMARK    3  A    between atoms: C_11  and  C_12
REMARK    4  A    between atoms: C_15  and  C_17
REMARK    5  A    between atoms: N_22  and  C_23
REMARK    6  A    between atoms: C_23  and  C_24
REMARK                            x       y       z     vdW  Elec       q    Type
REMARK                         _______ _______ _______ _____ _____    ______ ____
ROOT
ATOM     12  C   UNL     1      -4.270   0.058  24.880  0.00  0.00    +0.205 A 
ATOM     13  N   UNL     1      -4.377   0.299  24.098  0.00  0.00    -0.059 NA
ATOM     14  O   UNL     1      -4.547   1.106  24.100  0.00  0.00    -0.336 OA
ATOM     15  C   UNL     1      -4.546   1.365  24.884  0.00  0.00    +0.251 A 
ATOM     16  N   UNL     1      -4.374   0.717  25.366  0.00  0.00    -0.192 NA
ENDROOT
BRANCH  15  17
ATOM     17  C   UNL     1      -4.690   2.135  25.141  0.00  0.00    +0.140 C 
ATOM     18  C   UNL     1      -5.425   2.447  25.348  0.00  0.00    +0.060 C 
ATOM     19  C   UNL     1      -5.315   3.233  25.571  0.00  0.00    +0.170 C 
ATOM     20  O   UNL     1      -5.905   3.755  25.819  0.00  0.00    -0.222 OA
ATOM     21  C   UNL     1      -4.511   3.408  25.502  0.00  0.00    +0.106 C 
ATOM     22  N   UNL     1      -4.125   2.728  25.236  0.00  0.00    -0.260 NA
BRANCH  22  23
ATOM     23  C   UNL     1      -3.316   2.656  25.092  0.00  0.00    +0.100 C 
BRANCH  23  24
ATOM     24  C   UNL     1      -2.830   3.321  25.124  0.00  0.00    -0.006 A 
ATOM     25  C   UNL     1      -2.746   3.804  24.461  0.00  0.00    -0.002 A 
ATOM     26  C   UNL     1      -2.259   4.470  24.493  0.00  0.00    +0.011 A 
ATOM     27  C   UNL     1      -1.857   4.652  25.190  0.00  0.00    +0.058 A 
ATOM     28 CL   UNL     1      -1.370   5.318  25.222  0.00  0.00    -0.082 Cl
ATOM     29  C   UNL     1      -1.941   4.169  25.853  0.00  0.00    +0.011 A 
ATOM     30  C   UNL     1      -2.427   3.504  25.821  0.00  0.00    -0.002 A 
ENDBRANCH  23  24
ENDBRANCH  22  23
ENDBRANCH  15  17
BRANCH  12  11
ATOM     11  C   UNL     1      -4.090  -0.706  25.132  0.00  0.00    +0.224 C 
BRANCH  11   8
ATOM      8  S   UNL     1      -3.306  -0.964  25.138  0.00  0.00    +0.016 S 
ATOM      9  O   UNL     1      -3.267  -0.824  25.951  0.00  0.00    -0.168 OA
ATOM     10  O   UNL     1      -3.345  -1.105  24.327  0.00  0.00    -0.168 OA
BRANCH   8   5
ATOM      1  C   UNL     1      -0.172  -1.998  25.166  0.00  0.00    +0.031 C 
ATOM      2  C   UNL     1      -0.955  -1.739  25.159  0.00  0.00    -0.022 A 
ATOM      3  C   UNL     1      -1.167  -1.054  25.566  0.00  0.00    -0.003 A 
ATOM      4  C   UNL     1      -1.951  -0.795  25.559  0.00  0.00    +0.018 A 
ATOM      5  C   UNL     1      -2.522  -1.222  25.146  0.00  0.00    +0.106 A 
ATOM      6  C   UNL     1      -2.311  -1.909  24.738  0.00  0.00    +0.018 A 
ATOM      7  C   UNL     1      -1.527  -2.166  24.746  0.00  0.00    -0.003 A 
ENDBRANCH   8   5
ENDBRANCH  11   8
ENDBRANCH  12  11
TORSDOF 6
ENDMDL
MODEL 4
REMARK VINA RESULT:     -11.7      2.543      5.394
REMARK  Name = 
REMARK  6 active torsions:
REMARK  status: ('A' for Active; 'I' for Inactive)
REMARK    1  A    between atoms: C_5  and  S_8
REMARK    2  A    between atoms: S_8  and  C_11
REMARK    3  A    between atoms: C_11  and  C_12
REMARK    4  A    between atoms: C_15  and  C_17
REMARK    5  A    between atoms: N_22  and  C_23
REMARK    6  A    between atoms: C_23  and  C_24
REMARK                            x       y       z     vdW  Elec       q    Type
REMARK                         _______ _______ _______ _____ _____    ______ ____
ROOT
ATOM     12  C   UNL     1      -4.681   1.669  24.843  0.00  0.00    +0.205 A 
ATOM     13  N   UNL     1      -5.040   1.329  25.504  0.00  0.00    -0.059 NA
ATOM     14  O   UNL     1      -4.890   0.517  25.486  0.00  0.00    -0.336 OA
ATOM     15  C   UNL     1      -4.440   0.356  24.814  0.00  0.00    +0.251 A 
ATOM     16  N   UNL     1      -4.311   1.068  24.417  0.00  0.00    -0.192 NA
ENDROOT
BRANCH  15  17
ATOM     17  C   UNL     1      -4.166  -0.386  24.580  0.00  0.00    +0.140 C 
ATOM     18  C   UNL     1      -4.595  -0.949  24.155  0.00  0.00    +0.060 C 
ATOM     19  C   UNL     1      -4.110  -1.607  24.042  0.00  0.00    +0.170 C 
ATOM     20  O   UNL     1      -4.317  -2.299  23.644  0.00  0.00    -0.222 OA
ATOM     21  C   UNL     1      -3.381  -1.450  24.397  0.00  0.00    +0.106 C 
ATOM     22  N   UNL     1      -3.416  -0.696  24.730  0.00  0.00    -0.260 NA
BRANCH  22  23
ATOM     23  C   UNL     1      -2.808  -0.318  25.139  0.00  0.00    +0.100 C 
BRANCH  23  24
ATOM     24  C   UNL     1      -2.023  -0.519  24.989  0.00  0.00    -0.006 A 
ATOM     25  C   UNL     1      -1.663  -1.125  25.417  0.00  0.00    -0.002 A 
ATOM     26  C   UNL     1      -0.876  -1.327  25.267  0.00  0.00    +0.011 A 
ATOM     27  C   UNL     1      -0.451  -0.920  24.688  0.00  0.00    +0.058 A 
ATOM     28 CL   UNL     1       0.336  -1.122  24.538  0.00  0.00    -0.082 Cl
ATOM     29  C   UNL     1      -0.811  -0.314  24.261  0.00  0.00    +0.011 A 
ATOM     30  C   UNL     1      -1.596  -0.113  24.411  0.00  0.00    -0.002 A 
ENDBRANCH  23  24
ENDBRANCH  22  23
ENDBRANCH  15  17
BRANCH  12  11
ATOM     11  C   UNL     1      -4.692   2.469  24.643  0.00  0.00    +0.224 C 
BRANCH  11   8
ATOM      8  S   UNL     1      -4.028   2.939  24.786  0.00  0.00    +0.016 S 
ATOM      9  O   UNL     1      -3.814   2.875  23.991  0.00  0.00    -0.168 OA
ATOM     10  O   UNL     1      -4.243   3.002  25.579  0.00  0.00    -0.168 OA
BRANCH   8   5
ATOM      1  C   UNL     1      -1.374   4.815  25.353  0.00  0.00    +0.031 C 
ATOM      2  C   UNL     1      -2.037   4.346  25.210  0.00  0.00    -0.022 A 
ATOM      3  C   UNL     1      -2.068   3.866  24.541  0.00  0.00    -0.003 A 
ATOM      4  C   UNL     1      -2.731   3.396  24.399  0.00  0.00    +0.018 A 
ATOM      5  C   UNL     1      -3.365   3.407  24.927  0.00  0.00    +0.106 A 
ATOM      6  C   UNL     1      -3.335   3.888  25.598  0.00  0.00    +0.018 A 
ATOM      7  C   UNL     1      -2.671   4.357  25.739  0.00  0.00    -0.003 A 
ENDBRANCH   8   5
ENDBRANCH  11   8
ENDBRANCH  12  11
TORSDOF 6
ENDMDL
MODEL 5
REMARK VINA RESULT:     -11.4      1.644      4.116
REMARK  Name = 
REMARK  6 active torsions:
REMARK  status: ('A' for Active; 'I' for Inactive)
REMARK    1  A    between atoms: C_5  and  S_8
REMARK    2  A    between atoms: S_8  and  C_11
REMARK    3  A    between atoms: C_11  and  C_12
REMARK    4  A    between atoms: C_15  and  C_17
REMARK    5  A    between atoms: N_22  and  C_23
REMARK    6  A    between atoms: C_23  and  C_24
REMARK                            x       y       z     vdW  Elec       q    Type
REMARK                         _______ _______ _______ _____ _____    ______ ____
ROOT
ATOM     12  C   UNL     1      -1.069   0.288  25.080  0.00  0.00    +0.205 A 
ATOM     13  N   UNL     1      -1.121  -0.240  25.713  0.00  0.00    -0.059 NA
ATOM     14  O   UNL     1      -1.840  -0.641  25.651  0.00  0.00    -0.336 OA
ATOM     15  C   UNL     1      -2.232  -0.360  24.981  0.00  0.00    +0.251 A 
ATOM     16  N   UNL     1      -1.755   0.214  24.629  0.00  0.00    -0.192 NA
ENDROOT
BRANCH  15  17
ATOM     17  C   UNL     1      -2.970  -0.610  24.712  0.00  0.00    +0.140 C 
ATOM     18  C   UNL     1      -3.118  -1.279  24.251  0.00  0.00    +0.060 C 
ATOM     19  C   UNL     1      -3.929  -1.317  24.109  0.00  0.00    +0.170 C 
ATOM     20  O   UNL     1      -4.318  -1.898  23.671  0.00  0.00    -0.222 OA
ATOM     21  C   UNL     1      -4.284  -0.672  24.482  0.00  0.00    +0.106 C 
ATOM     22  N   UNL     1      -3.691  -0.235  24.854  0.00  0.00    -0.260 NA
BRANCH  22  23
ATOM     23  C   UNL     1      -3.800   0.456  25.292  0.00  0.00    +0.100 C 
BRANCH  23  24
ATOM     24  C   UNL     1      -4.465   0.926  25.163  0.00  0.00    -0.006 A 
ATOM     25  C   UNL     1      -5.161   0.781  25.581  0.00  0.00    -0.002 A 
ATOM     26  C   UNL     1      -5.827   1.251  25.452  0.00  0.00    +0.011 A 
ATOM     27  C   UNL     1      -5.796   1.866  24.903  0.00  0.00    +0.058 A 
ATOM     28 CL   UNL     1      -6.462   2.337  24.773  0.00  0.00    -0.082 Cl
ATOM     29  C   UNL     1      -5.100   2.011  24.484  0.00  0.00    +0.011 A 
ATOM     30  C   UNL     1      -4.435   1.541  24.614  0.00  0.00    -0.002 A 
ENDBRANCH  23  24
ENDBRANCH  22  23
ENDBRANCH  15  17
BRANCH  12  11
ATOM     11  C   UNL     1      -0.441   0.800  24.927  0.00  0.00    +0.224 C 
BRANCH  11   8
ATOM      8  S   UNL     1      -0.559   1.617  24.951  0.00  0.00    +0.016 S 
ATOM      9  O   UNL     1      -0.656   1.626  24.131  0.00  0.00    -0.168 OA
ATOM     10  O   UNL     1      -0.463   1.607  25.770  0.00  0.00    -0.168 OA
BRANCH   8   5
ATOM      1  C   UNL     1      -1.035   4.881  25.044  0.00  0.00    +0.031 C 
ATOM      2  C   UNL     1      -0.916   4.065  25.020  0.00  0.00    -0.022 A 
ATOM      3  C   UNL     1      -0.610   3.712  24.341  0.00  0.00    -0.003 A 
ATOM      4  C   UNL     1      -0.491   2.895  24.317  0.00  0.00    +0.018 A 
ATOM      5  C   UNL     1      -0.678   2.433  24.973  0.00  0.00    +0.106 A 
ATOM      6  C   UNL     1      -0.984   2.786  25.654  0.00  0.00    +0.018 A 
ATOM      7  C   UNL     1      -1.103   3.602  25.677  0.00  0.00    -0.003 A 
ENDBRANCH   8   5
ENDBRANCH  11   8
ENDBRANCH  12  11
TORSDOF 6
ENDMDL
