REMARK  Name = 
REMARK  8 active torsions:
REMARK  status: ('A' for Active; 'I' for Inactive)
REMARK    1  A    between atoms: O_2  and  C_3
REMARK    2  A    between atoms: C_6  and  C_7
REMARK    3  A    between atoms: C_7  and  N_8
REMARK    4  A    between atoms: C_17  and  C_18
REMARK    5  A    between atoms: C_18  and  C_19
REMARK    6  A    between atoms: C_19  and  C_20
REMARK    7  A    between atoms: N_22  and  C_23
REMARK    8  A    between atoms: C_23  and  C_24
REMARK                            x       y       z     vdW  Elec       q    Type
REMARK                         _______ _______ _______ _____ _____    ______ ____
ROOT
ATOM      8  N   UNL     1       0.190  -1.999   0.000  0.00  0.00    -0.262 NA
ATOM      9  C   UNL     1       0.778  -2.578   0.000  0.00  0.00    +0.074 C 
ATOM     10  C   UNL     1       1.510  -2.198   0.000  0.00  0.00    +0.035 C 
ATOM     11  C   UNL     1       1.375  -1.384   0.000  0.00  0.00    +0.083 C 
ATOM     12  C   UNL     1       0.559  -1.261   0.000  0.00  0.00    +0.151 C 
ATOM     13  C   UNL     1       0.146  -0.546   0.000  0.00  0.00    +0.257 C 
ATOM     14  O   UNL     1      -0.676  -0.608   0.000  0.00  0.00    -0.272 OA
ATOM     15  N   UNL     1       0.448   0.222   0.000  0.00  0.00    -0.203 NA
ATOM     16  C   UNL     1       1.236   0.465   0.000  0.00  0.00    +0.131 C 
ATOM     17  C   UNL     1       1.918   0.000   0.000  0.00  0.00    +0.080 C 
ATOM     29  N   UNL     1       1.980  -0.823   0.000  0.00  0.00    -0.271 NA
ATOM     30  C   UNL     1       2.747  -1.124   0.000  0.00  0.00    +0.090 C 
ENDROOT
BRANCH   8   7
ATOM      7  C   UNL     1      -0.624  -2.134   0.000  0.00  0.00    +0.100 C 
BRANCH   7   6
ATOM      3  C   UNL     1      -1.494  -4.451   0.000  0.00  0.00    +0.139 A 
ATOM      4  C   UNL     1      -2.018  -3.814   0.000  0.00  0.00    +0.037 A 
ATOM      5  C   UNL     1      -1.728  -3.041   0.000  0.00  0.00    +0.000 A 
ATOM      6  C   UNL     1      -0.914  -2.906   0.000  0.00  0.00    -0.006 A 
ATOM     31  C   UNL     1      -0.390  -3.543   0.000  0.00  0.00    +0.000 A 
ATOM     32  C   UNL     1      -0.680  -4.316   0.000  0.00  0.00    +0.037 A 
BRANCH   3   2
ATOM      1  C   UNL     1      -1.260  -5.861   0.000  0.00  0.00    +0.252 C 
ATOM      2  O   UNL     1      -1.784  -5.223   0.000  0.00  0.00    -0.471 OA
ENDBRANCH   3   2
ENDBRANCH   7   6
ENDBRANCH   8   7
BRANCH  17  18
ATOM     18  C   UNL     1       2.632   0.412   0.000  0.00  0.00    +0.027 C 
BRANCH  18  19
ATOM     19  C   UNL     1       3.347   0.000   0.000  0.00  0.00    +0.088 C 
BRANCH  19  20
ATOM     20  C   UNL     1       4.061   0.412   0.000  0.00  0.00    +0.242 C 
ATOM     21  O   UNL     1       4.061   1.238   0.000  0.00  0.00    -0.273 OA
ATOM     22  N   UNL     1       4.776   0.000   0.000  0.00  0.00    -0.200 NA
BRANCH  22  23
ATOM     23  C   UNL     1       5.490   0.412   0.000  0.00  0.00    +0.148 C 
BRANCH  23  24
ATOM     24  C   UNL     1       6.205   0.000   0.000  0.00  0.00    +0.029 A 
ATOM     25  C   UNL     1       6.958   0.336   0.000  0.00  0.00    +0.004 A 
ATOM     26  C   UNL     1       7.510  -0.278   0.000  0.00  0.00    +0.007 A 
ATOM     27  C   UNL     1       7.098  -0.992   0.000  0.00  0.00    +0.035 A 
ATOM     28  S   UNL     1       6.291  -0.821   0.000  0.00  0.00    -0.089 S 
ENDBRANCH  23  24
ENDBRANCH  22  23
ENDBRANCH  19  20
ENDBRANCH  18  19
ENDBRANCH  17  18
TORSDOF 8
