MODEL 1
REMARK VINA RESULT:      -9.5      0.000      0.000
REMARK  Name = 
REMARK  7 active torsions:
REMARK  status: ('A' for Active; 'I' for Inactive)
REMARK    1  A    between atoms: C_5  and  S_8
REMARK    2  A    between atoms: S_8  and  N_11
REMARK    3  A    between atoms: N_11  and  C_12
REMARK    4  A    between atoms: C_12  and  C_13
REMARK    5  A    between atoms: C_16  and  N_17
REMARK    6  A    between atoms: N_17  and  C_18
REMARK    7  A    between atoms: C_18  and  C_19
REMARK                            x       y       z     vdW  Elec       q    Type
REMARK                         _______ _______ _______ _____ _____    ______ ____
ROOT
ATOM     12  C   UNL     1      -2.334   0.777  24.575  0.00  0.00    +0.148 C 
ENDROOT
BRANCH  12  13
ATOM     13  C   UNL     1      -2.017   1.497  24.824  0.00  0.00    +0.166 C 
ATOM     14  O   UNL     1      -1.547   1.615  25.491  0.00  0.00    -0.350 OA
ATOM     15  C   UNL     1      -1.354   2.417  25.529  0.00  0.00    +0.162 C 
ATOM     16  C   UNL     1      -1.705   2.794  24.885  0.00  0.00    +0.135 C 
ATOM     23  C   UNL     1      -2.115   2.226  24.449  0.00  0.00    +0.199 C 
ATOM     24  O   UNL     1      -2.546   2.361  23.759  0.00  0.00    -0.219 OA
BRANCH  16  17
ATOM     17  N   UNL     1      -1.655   3.598  24.707  0.00  0.00    -0.214 NA
BRANCH  17  18
ATOM     18  C   UNL     1      -1.306   4.118  25.243  0.00  0.00    +0.089 C 
BRANCH  18  19
ATOM     19  C   UNL     1      -1.272   4.925  25.073  0.00  0.00    +0.016 C 
ATOM     20  C   UNL     1      -1.238   5.731  24.903  0.00  0.00    +0.001 C 
ATOM     21  C   UNL     1      -0.531   4.820  24.726  0.00  0.00    +0.001 C 
ATOM     22  C   UNL     1      -2.013   5.028  25.420  0.00  0.00    +0.001 C 
ENDBRANCH  18  19
ENDBRANCH  17  18
ENDBRANCH  16  17
ENDBRANCH  12  13
BRANCH  12  11
ATOM     11  N   UNL     1      -2.496   0.186  25.126  0.00  0.00    -0.075 NA
BRANCH  11   8
ATOM      8  S   UNL     1      -2.860  -0.514  24.884  0.00  0.00    +0.077 S 
ATOM      9  O   UNL     1      -3.532  -0.315  25.319  0.00  0.00    -0.152 OA
ATOM     10  O   UNL     1      -2.188  -0.714  24.449  0.00  0.00    -0.152 OA
BRANCH   8   5
ATOM      1  C   UNL     1      -4.315  -3.314  23.919  0.00  0.00    +0.031 C 
ATOM      2  C   UNL     1      -3.952  -2.614  24.160  0.00  0.00    -0.022 A 
ATOM      3  C   UNL     1      -3.326  -2.639  24.697  0.00  0.00    -0.003 A 
ATOM      4  C   UNL     1      -2.962  -1.939  24.939  0.00  0.00    +0.020 A 
ATOM      5  C   UNL     1      -3.224  -1.214  24.643  0.00  0.00    +0.124 A 
ATOM      6  C   UNL     1      -3.850  -1.190  24.106  0.00  0.00    +0.020 A 
ATOM      7  C   UNL     1      -4.213  -1.890  23.865  0.00  0.00    -0.003 A 
ENDBRANCH   8   5
ENDBRANCH  11   8
ENDBRANCH  12  11
TORSDOF 7
ENDMDL
MODEL 2
REMARK VINA RESULT:      -9.3      1.274      5.773
REMARK  Name = 
REMARK  7 active torsions:
REMARK  status: ('A' for Active; 'I' for Inactive)
REMARK    1  A    between atoms: C_5  and  S_8
REMARK    2  A    between atoms: S_8  and  N_11
REMARK    3  A    between atoms: N_11  and  C_12
REMARK    4  A    between atoms: C_12  and  C_13
REMARK    5  A    between atoms: C_16  and  N_17
REMARK    6  A    between atoms: N_17  and  C_18
REMARK    7  A    between atoms: C_18  and  C_19
REMARK                            x       y       z     vdW  Elec       q    Type
REMARK                         _______ _______ _______ _____ _____    ______ ____
ROOT
ATOM     12  C   UNL     1      -3.108   1.891  24.494  0.00  0.00    +0.148 C 
ENDROOT
BRANCH  12  13
ATOM     13  C   UNL     1      -3.453   1.146  24.578  0.00  0.00    +0.166 C 
ATOM     14  O   UNL     1      -4.060   0.949  25.101  0.00  0.00    -0.350 OA
ATOM     15  C   UNL     1      -4.233   0.148  25.001  0.00  0.00    +0.162 C 
ATOM     16  C   UNL     1      -3.733  -0.150  24.416  0.00  0.00    +0.135 C 
ATOM     23  C   UNL     1      -3.250   0.467  24.155  0.00  0.00    +0.199 C 
ATOM     24  O   UNL     1      -2.668   0.414  23.573  0.00  0.00    -0.219 OA
BRANCH  16  17
ATOM     17  N   UNL     1      -3.717  -0.927  24.141  0.00  0.00    -0.214 NA
BRANCH  17  18
ATOM     18  C   UNL     1      -3.945  -1.545  24.637  0.00  0.00    +0.089 C 
BRANCH  18  19
ATOM     19  C   UNL     1      -3.833  -2.328  24.400  0.00  0.00    +0.016 C 
ATOM     20  C   UNL     1      -3.722  -3.109  24.162  0.00  0.00    +0.001 C 
ATOM     21  C   UNL     1      -4.355  -2.211  23.772  0.00  0.00    +0.001 C 
ATOM     22  C   UNL     1      -3.311  -2.443  25.028  0.00  0.00    +0.001 C 
ENDBRANCH  18  19
ENDBRANCH  17  18
ENDBRANCH  16  17
ENDBRANCH  12  13
BRANCH  12  11
ATOM     11  N   UNL     1      -3.034   2.387  25.147  0.00  0.00    -0.075 NA
BRANCH  11   8
ATOM      8  S   UNL     1      -2.559   3.060  25.102  0.00  0.00    +0.077 S 
ATOM      9  O   UNL     1      -3.065   3.379  24.534  0.00  0.00    -0.152 OA
ATOM     10  O   UNL     1      -2.053   2.741  25.670  0.00  0.00    -0.152 OA
BRANCH   8   5
ATOM      1  C   UNL     1      -0.659   5.753  24.921  0.00  0.00    +0.031 C 
ATOM      2  C   UNL     1      -1.134   5.080  24.967  0.00  0.00    -0.022 A 
ATOM      3  C   UNL     1      -1.907   5.139  25.249  0.00  0.00    -0.003 A 
ATOM      4  C   UNL     1      -2.382   4.466  25.294  0.00  0.00    +0.020 A 
ATOM      5  C   UNL     1      -2.084   3.733  25.057  0.00  0.00    +0.124 A 
ATOM      6  C   UNL     1      -1.311   3.675  24.775  0.00  0.00    +0.020 A 
ATOM      7  C   UNL     1      -0.836   4.348  24.730  0.00  0.00    -0.003 A 
ENDBRANCH   8   5
ENDBRANCH  11   8
ENDBRANCH  12  11
TORSDOF 7
ENDMDL
