MODEL 1
REMARK VINA RESULT:     -16.7      0.000      0.000
REMARK  Name = 
REMARK  3 active torsions:
REMARK  status: ('A' for Active; 'I' for Inactive)
REMARK    1  A    between atoms: O_2  and  C_3
REMARK    2  A    between atoms: C_8  and  N_9
REMARK    3  A    between atoms: C_21  and  C_22
REMARK                            x       y       z     vdW  Elec       q    Type
REMARK                         _______ _______ _______ _____ _____    ______ ____
ROOT
ATOM      9  N   UNL     1      -3.085   0.960  24.450  0.00  0.00    -0.159 NA
ATOM     10  C   UNL     1      -2.466   1.581  24.104  0.00  0.00    +0.328 C 
ATOM     11  O   UNL     1      -1.720   1.880  23.766  0.00  0.00    -0.250 OA
ATOM     12  N   UNL     1      -3.044   2.134  24.228  0.00  0.00    -0.262 N 
ATOM     13  C   UNL     1      -3.124   2.958  24.114  0.00  0.00    +0.097 C 
ATOM     14  C   UNL     1      -4.047   3.082  24.445  0.00  0.00    +0.043 C 
ATOM     15  C   UNL     1      -4.780   3.348  24.680  0.00  0.00    +0.011 C 
ATOM     16  C   UNL     1      -4.433   2.738  24.654  0.00  0.00    +0.058 C 
ATOM     17  C   UNL     1      -3.541   2.634  24.330  0.00  0.00    +0.101 C 
ATOM     18  C   UNL     1      -4.530   1.845  24.848  0.00  0.00    +0.041 A 
ATOM     19  C   UNL     1      -5.080   1.312  25.152  0.00  0.00    +0.013 A 
ATOM     20  C   UNL     1      -4.886   0.512  25.218  0.00  0.00    +0.002 A 
ATOM     21  C   UNL     1      -4.142   0.247  24.980  0.00  0.00    +0.034 A 
ATOM     28  C   UNL     1      -3.592   0.780  24.676  0.00  0.00    +0.257 A 
ATOM     29  O   UNL     1      -2.622   0.731  24.313  0.00  0.00    -0.267 OA
ATOM     30  N   UNL     1      -3.786   1.579  24.609  0.00  0.00    -0.299 N 
ATOM     31  C   UNL     1      -4.138   2.147  24.645  0.00  0.00    +0.110 C 
ENDROOT
BRANCH   9   8
ATOM      3  C   UNL     1      -2.368  -0.315  24.850  0.00  0.00    +0.154 A 
ATOM      4  C   UNL     1      -2.019  -1.136  24.979  0.00  0.00    +0.038 A 
ATOM      5  C   UNL     1      -2.376  -1.616  24.411  0.00  0.00    +0.003 A 
ATOM      6  C   UNL     1      -2.926  -1.295  23.886  0.00  0.00    +0.002 A 
ATOM      7  C   UNL     1      -3.119  -0.494  23.930  0.00  0.00    +0.020 A 
ATOM      8  C   UNL     1      -2.762  -0.014  24.498  0.00  0.00    +0.109 A 
BRANCH   3   2
ATOM      1  C   UNL     1      -1.195  -0.207  25.557  0.00  0.00    +0.253 C 
ATOM      2  O   UNL     1      -2.058  -0.001  25.308  0.00  0.00    -0.470 OA
ENDBRANCH   3   2
ENDBRANCH   9   8
BRANCH  21  22
ATOM     22  C   UNL     1      -3.950  -0.552  25.047  0.00  0.00    +0.027 C 
ATOM     23  C   UNL     1      -3.625  -0.841  25.748  0.00  0.00    +0.005 C 
ATOM     24  C   UNL     1      -3.432  -1.640  25.816  0.00  0.00    +0.000 C 
ATOM     25  C   UNL     1      -3.564  -2.151  25.182  0.00  0.00    +0.000 C 
ATOM     26  C   UNL     1      -3.888  -1.863  24.480  0.00  0.00    +0.000 C 
ATOM     27  C   UNL     1      -4.082  -1.063  24.413  0.00  0.00    +0.005 C 
ENDBRANCH  21  22
TORSDOF 3
ENDMDL
MODEL 2
REMARK VINA RESULT:     -16.2      1.124      3.378
REMARK  Name = 
REMARK  3 active torsions:
REMARK  status: ('A' for Active; 'I' for Inactive)
REMARK    1  A    between atoms: O_2  and  C_3
REMARK    2  A    between atoms: C_8  and  N_9
REMARK    3  A    between atoms: C_21  and  C_22
REMARK                            x       y       z     vdW  Elec       q    Type
REMARK                         _______ _______ _______ _____ _____    ______ ____
ROOT
ATOM      9  N   UNL     1      -2.199  -0.155  24.410  0.00  0.00    -0.159 NA
ATOM     10  C   UNL     1      -1.421  -0.681  24.482  0.00  0.00    +0.328 C 
ATOM     11  O   UNL     1      -0.571  -0.872  24.512  0.00  0.00    -0.250 OA
ATOM     12  N   UNL     1      -1.926  -1.309  24.561  0.00  0.00    -0.262 N 
ATOM     13  C   UNL     1      -1.850  -2.134  24.669  0.00  0.00    +0.097 C 
ATOM     14  C   UNL     1      -2.805  -2.386  24.696  0.00  0.00    +0.043 C 
ATOM     15  C   UNL     1      -3.532  -2.752  24.740  0.00  0.00    +0.011 C 
ATOM     16  C   UNL     1      -3.282  -2.101  24.657  0.00  0.00    +0.058 C 
ATOM     17  C   UNL     1      -2.355  -1.873  24.632  0.00  0.00    +0.101 C 
ATOM     18  C   UNL     1      -3.560  -1.232  24.542  0.00  0.00    +0.041 A 
ATOM     19  C   UNL     1      -4.248  -0.783  24.480  0.00  0.00    +0.013 A 
ATOM     20  C   UNL     1      -4.199   0.034  24.374  0.00  0.00    +0.002 A 
ATOM     21  C   UNL     1      -3.461   0.401  24.331  0.00  0.00    +0.034 A 
ATOM     28  C   UNL     1      -2.773  -0.049  24.393  0.00  0.00    +0.257 A 
ATOM     29  O   UNL     1      -1.753   0.137  24.374  0.00  0.00    -0.267 OA
ATOM     30  N   UNL     1      -2.822  -0.865  24.499  0.00  0.00    -0.299 N 
ATOM     31  C   UNL     1      -3.085  -1.476  24.577  0.00  0.00    +0.110 C 
ENDROOT
BRANCH   9   8
ATOM      3  C   UNL     1      -1.864   1.306  24.642  0.00  0.00    +0.154 A 
ATOM      4  C   UNL     1      -1.700   2.192  24.638  0.00  0.00    +0.038 A 
ATOM      5  C   UNL     1      -1.865   2.440  23.869  0.00  0.00    +0.003 A 
ATOM      6  C   UNL     1      -2.121   1.895  23.305  0.00  0.00    +0.002 A 
ATOM      7  C   UNL     1      -2.212   1.102  23.511  0.00  0.00    +0.020 A 
ATOM      8  C   UNL     1      -2.048   0.852  24.280  0.00  0.00    +0.109 A 
BRANCH   3   2
ATOM      1  C   UNL     1      -1.036   1.603  25.697  0.00  0.00    +0.253 C 
ATOM      2  O   UNL     1      -1.722   1.179  25.249  0.00  0.00    -0.470 OA
ENDBRANCH   3   2
ENDBRANCH   9   8
BRANCH  21  22
ATOM     22  C   UNL     1      -3.413   1.217  24.225  0.00  0.00    +0.027 C 
ATOM     23  C   UNL     1      -3.442   1.720  24.879  0.00  0.00    +0.005 C 
ATOM     24  C   UNL     1      -3.394   2.537  24.774  0.00  0.00    +0.000 C 
ATOM     25  C   UNL     1      -3.317   2.851  24.015  0.00  0.00    +0.000 C 
ATOM     26  C   UNL     1      -3.288   2.349  23.361  0.00  0.00    +0.000 C 
ATOM     27  C   UNL     1      -3.337   1.532  23.466  0.00  0.00    +0.005 C 
ENDBRANCH  21  22
TORSDOF 3
ENDMDL
MODEL 3
REMARK VINA RESULT:     -15.4      1.635      3.587
REMARK  Name = 
REMARK  3 active torsions:
REMARK  status: ('A' for Active; 'I' for Inactive)
REMARK    1  A    between atoms: O_2  and  C_3
REMARK    2  A    between atoms: C_8  and  N_9
REMARK    3  A    between atoms: C_21  and  C_22
REMARK                            x       y       z     vdW  Elec       q    Type
REMARK                         _______ _______ _______ _____ _____    ______ ____
ROOT
ATOM      9  N   UNL     1      -3.210   2.044  24.924  0.00  0.00    -0.159 NA
ATOM     10  C   UNL     1      -3.260   1.117  24.759  0.00  0.00    +0.328 C 
ATOM     11  O   UNL     1      -2.986   0.308  24.586  0.00  0.00    -0.250 OA
ATOM     12  N   UNL     1      -4.060   1.207  24.848  0.00  0.00    -0.262 N 
ATOM     13  C   UNL     1      -4.729   0.708  24.818  0.00  0.00    +0.097 C 
ATOM     14  C   UNL     1      -5.439   1.370  25.003  0.00  0.00    +0.043 C 
ATOM     15  C   UNL     1      -6.127   1.783  25.141  0.00  0.00    +0.011 C 
ATOM     16  C   UNL     1      -5.440   1.919  25.104  0.00  0.00    +0.058 C 
ATOM     17  C   UNL     1      -4.766   1.267  24.923  0.00  0.00    +0.101 C 
ATOM     18  C   UNL     1      -4.837   2.608  25.175  0.00  0.00    +0.041 A 
ATOM     19  C   UNL     1      -4.806   3.420  25.321  0.00  0.00    +0.013 A 
ATOM     20  C   UNL     1      -4.079   3.810  25.326  0.00  0.00    +0.002 A 
ATOM     21  C   UNL     1      -3.383   3.389  25.186  0.00  0.00    +0.034 A 
ATOM     28  C   UNL     1      -3.414   2.578  25.040  0.00  0.00    +0.257 A 
ATOM     29  O   UNL     1      -2.729   1.826  24.840  0.00  0.00    -0.267 OA
ATOM     30  N   UNL     1      -4.141   2.187  25.035  0.00  0.00    -0.299 N 
ATOM     31  C   UNL     1      -4.801   2.084  25.076  0.00  0.00    +0.110 C 
ENDROOT
BRANCH   9   8
ATOM      3  C   UNL     1      -1.867   2.586  24.474  0.00  0.00    +0.154 A 
ATOM      4  C   UNL     1      -1.043   2.931  24.350  0.00  0.00    +0.038 A 
ATOM      5  C   UNL     1      -0.767   3.111  25.106  0.00  0.00    +0.003 A 
ATOM      6  C   UNL     1      -1.240   2.960  25.765  0.00  0.00    +0.002 A 
ATOM      7  C   UNL     1      -1.989   2.630  25.668  0.00  0.00    +0.020 A 
ATOM      8  C   UNL     1      -2.266   2.449  24.912  0.00  0.00    +0.109 A 
BRANCH   3   2
ATOM      1  C   UNL     1      -1.410   2.159  23.251  0.00  0.00    +0.253 C 
ATOM      2  O   UNL     1      -2.021   2.471  23.868  0.00  0.00    -0.470 OA
ENDBRANCH   3   2
ENDBRANCH   9   8
BRANCH  21  22
ATOM     22  C   UNL     1      -2.657   3.780  25.191  0.00  0.00    +0.027 C 
ATOM     23  C   UNL     1      -2.385   4.153  24.508  0.00  0.00    +0.005 C 
ATOM     24  C   UNL     1      -1.659   4.545  24.512  0.00  0.00    +0.000 C 
ATOM     25  C   UNL     1      -1.205   4.563  25.201  0.00  0.00    +0.000 C 
ATOM     26  C   UNL     1      -1.476   4.190  25.885  0.00  0.00    +0.000 C 
ATOM     27  C   UNL     1      -2.203   3.798  25.880  0.00  0.00    +0.005 C 
ENDBRANCH  21  22
TORSDOF 3
ENDMDL
MODEL 4
REMARK VINA RESULT:     -15.3      1.198      2.364
REMARK  Name = 
REMARK  3 active torsions:
REMARK  status: ('A' for Active; 'I' for Inactive)
REMARK    1  A    between atoms: O_2  and  C_3
REMARK    2  A    between atoms: C_8  and  N_9
REMARK    3  A    between atoms: C_21  and  C_22
REMARK                            x       y       z     vdW  Elec       q    Type
REMARK                         _______ _______ _______ _____ _____    ______ ____
ROOT
ATOM      9  N   UNL     1      -2.525   1.070  24.763  0.00  0.00    -0.159 NA
ATOM     10  C   UNL     1      -2.711   1.940  24.451  0.00  0.00    +0.328 C 
ATOM     11  O   UNL     1      -3.152   2.586  24.065  0.00  0.00    -0.250 OA
ATOM     12  N   UNL     1      -1.994   2.142  24.768  0.00  0.00    -0.262 N 
ATOM     13  C   UNL     1      -1.537   2.838  24.828  0.00  0.00    +0.097 C 
ATOM     14  C   UNL     1      -0.755   2.482  25.317  0.00  0.00    +0.043 C 
ATOM     15  C   UNL     1      -0.054   2.347  25.709  0.00  0.00    +0.011 C 
ATOM     16  C   UNL     1      -0.618   1.978  25.512  0.00  0.00    +0.058 C 
ATOM     17  C   UNL     1      -1.366   2.338  25.040  0.00  0.00    +0.101 C 
ATOM     18  C   UNL     1      -0.970   1.130  25.543  0.00  0.00    +0.041 A 
ATOM     19  C   UNL     1      -0.795   0.373  25.821  0.00  0.00    +0.013 A 
ATOM     20  C   UNL     1      -1.330  -0.244  25.701  0.00  0.00    +0.002 A 
ATOM     21  C   UNL     1      -2.039  -0.104  25.304  0.00  0.00    +0.034 A 
ATOM     28  C   UNL     1      -2.214   0.652  25.026  0.00  0.00    +0.257 A 
ATOM     29  O   UNL     1      -2.997   1.100  24.514  0.00  0.00    -0.267 OA
ATOM     30  N   UNL     1      -1.680   1.269  25.146  0.00  0.00    -0.299 N 
ATOM     31  C   UNL     1      -1.132   1.599  25.344  0.00  0.00    +0.110 C 
ENDROOT
BRANCH   9   8
ATOM      3  C   UNL     1      -3.797   0.246  24.796  0.00  0.00    +0.154 A 
ATOM      4  C   UNL     1      -4.490  -0.324  24.710  0.00  0.00    +0.038 A 
ATOM      5  C   UNL     1      -4.265  -0.852  24.118  0.00  0.00    +0.003 A 
ATOM      6  C   UNL     1      -3.529  -0.773  23.752  0.00  0.00    +0.002 A 
ATOM      7  C   UNL     1      -3.019  -0.166  23.979  0.00  0.00    +0.020 A 
ATOM      8  C   UNL     1      -3.244   0.363  24.571  0.00  0.00    +0.109 A 
BRANCH   3   2
ATOM      1  C   UNL     1      -4.918   0.859  25.300  0.00  0.00    +0.253 C 
ATOM      2  O   UNL     1      -4.029   0.618  25.257  0.00  0.00    -0.470 OA
ENDBRANCH   3   2
ENDBRANCH   9   8
BRANCH  21  22
ATOM     22  C   UNL     1      -2.573  -0.721  25.184  0.00  0.00    +0.027 C 
ATOM     23  C   UNL     1      -3.134  -0.899  25.763  0.00  0.00    +0.005 C 
ATOM     24  C   UNL     1      -3.668  -1.516  25.645  0.00  0.00    +0.000 C 
ATOM     25  C   UNL     1      -3.641  -1.956  24.947  0.00  0.00    +0.000 C 
ATOM     26  C   UNL     1      -3.081  -1.779  24.368  0.00  0.00    +0.000 C 
ATOM     27  C   UNL     1      -2.546  -1.161  24.487  0.00  0.00    +0.005 C 
ENDBRANCH  21  22
TORSDOF 3
ENDMDL
