MODEL 1
REMARK VINA RESULT:     -12.0      0.000      0.000
REMARK  Name = 
REMARK  6 active torsions:
REMARK  status: ('A' for Active; 'I' for Inactive)
REMARK    1  A    between atoms: C_2  and  C_5
REMARK    2  A    between atoms: C_5  and  C_6
REMARK    3  A    between atoms: C_15  and  C_17
REMARK    4  A    between atoms: C_25  and  C_26
REMARK    5  A    between atoms: C_26  and  C_27
REMARK    6  A    between atoms: C_32  and  C_35
REMARK                            x       y       z     vdW  Elec       q    Type
REMARK                         _______ _______ _______ _____ _____    ______ ____
ROOT
ATOM      6  C   UNL     1       1.450   0.547  23.357  0.00  0.00    +0.247 C 
ATOM      7  O   UNL     1       1.708   1.306  23.552  0.00  0.00    -0.273 OA
ATOM      8  N   UNL     1       0.659   0.341  23.467  0.00  0.00    -0.154 NA
ATOM      9  C   UNL     1       0.126   0.892  23.771  0.00  0.00    +0.185 A 
ATOM     10  N   UNL     1      -0.677   0.764  23.910  0.00  0.00    -0.227 NA
ATOM     11  C   UNL     1      -0.996   1.462  24.215  0.00  0.00    +0.063 A 
ATOM     12  C   UNL     1      -0.390   2.019  24.264  0.00  0.00    +0.023 A 
ATOM     13  C   UNL     1      -0.549   2.776  24.553  0.00  0.00    +0.034 C 
ATOM     14  C   UNL     1      -1.313   2.975  24.791  0.00  0.00    +0.010 C 
ATOM     15  C   UNL     1      -1.471   3.731  25.079  0.00  0.00    +0.059 C 
ATOM     16  C   UNL     1      -0.665   3.804  24.922  0.00  0.00    +0.005 C 
ATOM     19  C   UNL     1      -2.235   3.930  25.319  0.00  0.00    +0.154 C 
ATOM     20  O   UNL     1      -2.394   4.687  25.607  0.00  0.00    -0.223 OA
ATOM     21  C   UNL     1      -2.841   3.373  25.269  0.00  0.00    +0.033 C 
ATOM     22  C   UNL     1      -2.683   2.615  24.981  0.00  0.00    +0.003 C 
ATOM     23  C   UNL     1      -1.919   2.417  24.742  0.00  0.00    +0.006 C 
ATOM     24  C   UNL     1      -2.525   1.859  24.693  0.00  0.00    +0.000 C 
ATOM     25  C   UNL     1      -1.761   1.661  24.454  0.00  0.00    +0.050 C 
ATOM     38  S   UNL     1       0.304   1.667  23.990  0.00  0.00    -0.054 S 
ENDROOT
BRANCH  15  17
ATOM     17  C   UNL     1      -1.350   4.513  25.313  0.00  0.00    +0.184 C 
ATOM     18  O   UNL     1      -0.718   4.943  25.004  0.00  0.00    -0.220 OA
ENDBRANCH  15  17
BRANCH   6   5
ATOM      5  C   UNL     1       1.982  -0.004  23.053  0.00  0.00    +0.087 C 
BRANCH   5   2
ATOM      1  C   UNL     1       3.240   0.497  22.109  0.00  0.00    +0.000 C 
ATOM      2  C   UNL     1       2.611   0.246  22.581  0.00  0.00    +0.009 C 
ATOM      3  C   UNL     1       2.204  -0.000  21.907  0.00  0.00    +0.000 C 
ATOM      4  C   UNL     1       3.018   0.493  23.254  0.00  0.00    +0.000 C 
ENDBRANCH   5   2
ENDBRANCH   6   5
BRANCH  25  26
ATOM     26  C   UNL     1      -2.366   1.103  24.405  0.00  0.00    +0.091 C 
BRANCH  26  27
ATOM     27  C   UNL     1      -2.407   0.488  24.952  0.00  0.00    +0.226 C 
ATOM     28  O   UNL     1      -2.038   0.566  25.686  0.00  0.00    -0.275 OA
ATOM     29  N   UNL     1      -2.816  -0.204  24.767  0.00  0.00    -0.280 N 
ATOM     30  C   UNL     1      -2.856  -0.818  25.315  0.00  0.00    +0.094 C 
ATOM     31  C   UNL     1      -3.266  -1.510  25.130  0.00  0.00    +0.031 C 
ATOM     32  C   UNL     1      -3.635  -1.587  24.396  0.00  0.00    +0.083 C 
ATOM     33  C   UNL     1      -3.594  -0.972  23.848  0.00  0.00    +0.031 C 
ATOM     34  C   UNL     1      -3.185  -0.280  24.034  0.00  0.00    +0.094 C 
BRANCH  32  35
ATOM     35  C   UNL     1      -4.044  -2.279  24.211  0.00  0.00    +0.260 C 
ATOM     36  N   UNL     1      -3.748  -3.011  24.451  0.00  0.00    -0.088 NA
ATOM     37  O   UNL     1      -4.750  -2.240  23.786  0.00  0.00    -0.272 OA
ENDBRANCH  32  35
ENDBRANCH  26  27
ENDBRANCH  25  26
TORSDOF 6
ENDMDL
MODEL 2
REMARK VINA RESULT:     -11.5      1.843      4.711
REMARK  Name = 
REMARK  6 active torsions:
REMARK  status: ('A' for Active; 'I' for Inactive)
REMARK    1  A    between atoms: C_2  and  C_5
REMARK    2  A    between atoms: C_5  and  C_6
REMARK    3  A    between atoms: C_15  and  C_17
REMARK    4  A    between atoms: C_25  and  C_26
REMARK    5  A    between atoms: C_26  and  C_27
REMARK    6  A    between atoms: C_32  and  C_35
REMARK                            x       y       z     vdW  Elec       q    Type
REMARK                         _______ _______ _______ _____ _____    ______ ____
ROOT
ATOM      6  C   UNL     1      -3.834  -1.350  24.042  0.00  0.00    +0.247 C 
ATOM      7  O   UNL     1      -4.602  -1.227  24.315  0.00  0.00    -0.273 OA
ATOM      8  N   UNL     1      -3.302  -0.720  24.012  0.00  0.00    -0.154 NA
ATOM      9  C   UNL     1      -3.538   0.032  24.254  0.00  0.00    +0.185 A 
ATOM     10  N   UNL     1      -3.069   0.710  24.255  0.00  0.00    -0.227 NA
ATOM     11  C   UNL     1      -3.526   1.336  24.540  0.00  0.00    +0.063 A 
ATOM     12  C   UNL     1      -4.277   1.043  24.715  0.00  0.00    +0.023 A 
ATOM     13  C   UNL     1      -4.857   1.549  25.013  0.00  0.00    +0.034 C 
ATOM     14  C   UNL     1      -4.687   2.346  25.136  0.00  0.00    +0.010 C 
ATOM     15  C   UNL     1      -5.267   2.851  25.433  0.00  0.00    +0.059 C 
ATOM     16  C   UNL     1      -5.690   2.143  25.412  0.00  0.00    +0.005 C 
ATOM     19  C   UNL     1      -5.096   3.649  25.556  0.00  0.00    +0.154 C 
ATOM     20  O   UNL     1      -5.676   4.155  25.854  0.00  0.00    -0.223 OA
ATOM     21  C   UNL     1      -4.345   3.941  25.381  0.00  0.00    +0.033 C 
ATOM     22  C   UNL     1      -3.764   3.436  25.083  0.00  0.00    +0.003 C 
ATOM     23  C   UNL     1      -3.936   2.639  24.960  0.00  0.00    +0.006 C 
ATOM     24  C   UNL     1      -3.185   2.931  24.785  0.00  0.00    +0.000 C 
ATOM     25  C   UNL     1      -3.355   2.134  24.663  0.00  0.00    +0.050 C 
ATOM     38  S   UNL     1      -4.285   0.237  24.538  0.00  0.00    -0.054 S 
ENDROOT
BRANCH  15  17
ATOM     17  C   UNL     1      -5.994   3.111  25.724  0.00  0.00    +0.184 C 
ATOM     18  O   UNL     1      -6.496   2.584  26.112  0.00  0.00    -0.220 OA
ENDBRANCH  15  17
BRANCH   6   5
ATOM      5  C   UNL     1      -3.597  -2.102  23.799  0.00  0.00    +0.087 C 
BRANCH   5   2
ATOM      1  C   UNL     1      -3.623  -3.359  24.867  0.00  0.00    +0.000 C 
ATOM      2  C   UNL     1      -3.610  -2.730  24.333  0.00  0.00    +0.009 C 
ATOM      3  C   UNL     1      -4.368  -2.933  24.077  0.00  0.00    +0.000 C 
ATOM      4  C   UNL     1      -2.852  -2.529  24.589  0.00  0.00    +0.000 C 
ENDBRANCH   5   2
ENDBRANCH   6   5
BRANCH  25  26
ATOM     26  C   UNL     1      -2.605   2.426  24.488  0.00  0.00    +0.091 C 
BRANCH  26  27
ATOM     27  C   UNL     1      -1.981   2.303  25.013  0.00  0.00    +0.226 C 
ATOM     28  O   UNL     1      -2.113   2.348  25.826  0.00  0.00    -0.275 OA
ATOM     29  N   UNL     1      -1.226   2.136  24.725  0.00  0.00    -0.280 N 
ATOM     30  C   UNL     1      -0.603   2.013  25.251  0.00  0.00    +0.094 C 
ATOM     31  C   UNL     1       0.152   1.846  24.963  0.00  0.00    +0.031 C 
ATOM     32  C   UNL     1       0.284   1.801  24.150  0.00  0.00    +0.083 C 
ATOM     33  C   UNL     1      -0.340   1.924  23.625  0.00  0.00    +0.031 C 
ATOM     34  C   UNL     1      -1.095   2.092  23.913  0.00  0.00    +0.094 C 
BRANCH  32  35
ATOM     35  C   UNL     1       1.039   1.634  23.863  0.00  0.00    +0.260 C 
ATOM     36  N   UNL     1       1.197   0.901  23.519  0.00  0.00    -0.088 NA
ATOM     37  O   UNL     1       1.637   2.199  23.919  0.00  0.00    -0.272 OA
ENDBRANCH  32  35
ENDBRANCH  26  27
ENDBRANCH  25  26
TORSDOF 6
ENDMDL
MODEL 3
REMARK VINA RESULT:     -11.4      1.749      4.534
REMARK  Name = 
REMARK  6 active torsions:
REMARK  status: ('A' for Active; 'I' for Inactive)
REMARK    1  A    between atoms: C_2  and  C_5
REMARK    2  A    between atoms: C_5  and  C_6
REMARK    3  A    between atoms: C_15  and  C_17
REMARK    4  A    between atoms: C_25  and  C_26
REMARK    5  A    between atoms: C_26  and  C_27
REMARK    6  A    between atoms: C_32  and  C_35
REMARK                            x       y       z     vdW  Elec       q    Type
REMARK                         _______ _______ _______ _____ _____    ______ ____
ROOT
ATOM      6  C   UNL     1      -3.126  -1.605  24.771  0.00  0.00    +0.247 C 
ATOM      7  O   UNL     1      -2.381  -1.841  24.508  0.00  0.00    -0.273 OA
ATOM      8  N   UNL     1      -3.275  -0.809  24.926  0.00  0.00    -0.154 NA
ATOM      9  C   UNL     1      -2.679  -0.249  24.817  0.00  0.00    +0.185 A 
ATOM     10  N   UNL     1      -2.747   0.562  24.949  0.00  0.00    -0.227 NA
ATOM     11  C   UNL     1      -2.020   0.911  24.770  0.00  0.00    +0.063 A 
ATOM     12  C   UNL     1      -1.504   0.314  24.529  0.00  0.00    +0.023 A 
ATOM     13  C   UNL     1      -0.730   0.502  24.314  0.00  0.00    +0.034 C 
ATOM     14  C   UNL     1      -0.472   1.284  24.340  0.00  0.00    +0.010 C 
ATOM     15  C   UNL     1       0.302   1.471  24.125  0.00  0.00    +0.059 C 
ATOM     16  C   UNL     1       0.315   0.654  24.010  0.00  0.00    +0.005 C 
ATOM     19  C   UNL     1       0.561   2.254  24.152  0.00  0.00    +0.154 C 
ATOM     20  O   UNL     1       1.335   2.441  23.937  0.00  0.00    -0.223 OA
ATOM     21  C   UNL     1       0.045   2.851  24.393  0.00  0.00    +0.033 C 
ATOM     22  C   UNL     1      -0.730   2.664  24.609  0.00  0.00    +0.003 C 
ATOM     23  C   UNL     1      -0.988   1.881  24.582  0.00  0.00    +0.006 C 
ATOM     24  C   UNL     1      -1.504   2.477  24.823  0.00  0.00    +0.000 C 
ATOM     25  C   UNL     1      -1.762   1.695  24.797  0.00  0.00    +0.050 C 
ATOM     38  S   UNL     1      -1.912  -0.403  24.558  0.00  0.00    -0.054 S 
ENDROOT
BRANCH  15  17
ATOM     17  C   UNL     1       1.081   1.374  23.870  0.00  0.00    +0.184 C 
ATOM     18  O   UNL     1       1.302   0.689  23.469  0.00  0.00    -0.220 OA
ENDBRANCH  15  17
BRANCH   6   5
ATOM      5  C   UNL     1      -3.722  -2.165  24.880  0.00  0.00    +0.087 C 
BRANCH   5   2
ATOM      1  C   UNL     1      -3.976  -3.332  23.741  0.00  0.00    +0.000 C 
ATOM      2  C   UNL     1      -3.849  -2.748  24.311  0.00  0.00    +0.009 C 
ATOM      3  C   UNL     1      -3.351  -3.260  24.724  0.00  0.00    +0.000 C 
ATOM      4  C   UNL     1      -4.347  -2.237  23.898  0.00  0.00    +0.000 C 
ENDBRANCH   5   2
ENDBRANCH   6   5
BRANCH  25  26
ATOM     26  C   UNL     1      -2.278   2.290  25.038  0.00  0.00    +0.091 C 
BRANCH  26  27
ATOM     27  C   UNL     1      -2.844   2.583  24.515  0.00  0.00    +0.226 C 
ATOM     28  O   UNL     1      -2.703   2.564  23.703  0.00  0.00    -0.275 OA
ATOM     29  N   UNL     1      -3.551   2.895  24.804  0.00  0.00    -0.280 N 
ATOM     30  C   UNL     1      -4.117   3.188  24.281  0.00  0.00    +0.094 C 
ATOM     31  C   UNL     1      -4.824   3.499  24.569  0.00  0.00    +0.031 C 
ATOM     32  C   UNL     1      -4.965   3.519  25.382  0.00  0.00    +0.083 C 
ATOM     33  C   UNL     1      -4.399   3.226  25.905  0.00  0.00    +0.031 C 
ATOM     34  C   UNL     1      -3.692   2.914  25.616  0.00  0.00    +0.094 C 
BRANCH  32  35
ATOM     35  C   UNL     1      -5.672   3.831  25.671  0.00  0.00    +0.260 C 
ATOM     36  N   UNL     1      -6.239   3.331  26.002  0.00  0.00    -0.088 NA
ATOM     37  O   UNL     1      -5.814   4.642  25.629  0.00  0.00    -0.272 OA
ENDBRANCH  32  35
ENDBRANCH  26  27
ENDBRANCH  25  26
TORSDOF 6
ENDMDL
MODEL 4
REMARK VINA RESULT:     -11.2      1.444      4.271
REMARK  Name = 
REMARK  6 active torsions:
REMARK  status: ('A' for Active; 'I' for Inactive)
REMARK    1  A    between atoms: C_2  and  C_5
REMARK    2  A    between atoms: C_5  and  C_6
REMARK    3  A    between atoms: C_15  and  C_17
REMARK    4  A    between atoms: C_25  and  C_26
REMARK    5  A    between atoms: C_26  and  C_27
REMARK    6  A    between atoms: C_32  and  C_35
REMARK                            x       y       z     vdW  Elec       q    Type
REMARK                         _______ _______ _______ _____ _____    ______ ____
ROOT
ATOM      6  C   UNL     1       1.360   0.300  23.011  0.00  0.00    +0.247 C 
ATOM      7  O   UNL     1       1.234  -0.508  22.901  0.00  0.00    -0.273 OA
ATOM      8  N   UNL     1       0.821   0.745  23.448  0.00  0.00    -0.154 NA
ATOM      9  C   UNL     1       0.156   0.383  23.775  0.00  0.00    +0.185 A 
ATOM     10  N   UNL     1      -0.427   0.756  24.224  0.00  0.00    -0.227 NA
ATOM     11  C   UNL     1      -0.986   0.188  24.437  0.00  0.00    +0.063 A 
ATOM     12  C   UNL     1      -0.748  -0.535  24.121  0.00  0.00    +0.023 A 
ATOM     13  C   UNL     1      -1.206  -1.211  24.246  0.00  0.00    +0.034 C 
ATOM     14  C   UNL     1      -1.900  -1.163  24.687  0.00  0.00    +0.010 C 
ATOM     15  C   UNL     1      -2.357  -1.837  24.812  0.00  0.00    +0.059 C 
ATOM     16  C   UNL     1      -1.747  -2.159  24.360  0.00  0.00    +0.005 C 
ATOM     19  C   UNL     1      -3.053  -1.790  25.254  0.00  0.00    +0.154 C 
ATOM     20  O   UNL     1      -3.510  -2.465  25.379  0.00  0.00    -0.223 OA
ATOM     21  C   UNL     1      -3.291  -1.066  25.570  0.00  0.00    +0.033 C 
ATOM     22  C   UNL     1      -2.834  -0.390  25.445  0.00  0.00    +0.003 C 
ATOM     23  C   UNL     1      -2.139  -0.439  25.004  0.00  0.00    +0.006 C 
ATOM     24  C   UNL     1      -2.377   0.285  25.320  0.00  0.00    +0.000 C 
ATOM     25  C   UNL     1      -1.682   0.237  24.879  0.00  0.00    +0.050 C 
ATOM     38  S   UNL     1      -0.042  -0.415  23.712  0.00  0.00    -0.054 S 
ENDROOT
BRANCH  15  17
ATOM     17  C   UNL     1      -2.603  -2.625  24.780  0.00  0.00    +0.184 C 
ATOM     18  O   UNL     1      -2.253  -3.145  24.245  0.00  0.00    -0.220 OA
ENDBRANCH  15  17
BRANCH   6   5
ATOM      5  C   UNL     1       2.026   0.662  22.684  0.00  0.00    +0.087 C 
BRANCH   5   2
ATOM      1  C   UNL     1       3.430  -0.188  22.519  0.00  0.00    +0.000 C 
ATOM      2  C   UNL     1       2.727   0.237  22.601  0.00  0.00    +0.009 C 
ATOM      3  C   UNL     1       3.047   0.639  23.247  0.00  0.00    +0.000 C 
ATOM      4  C   UNL     1       2.409  -0.165  21.956  0.00  0.00    +0.000 C 
ENDBRANCH   5   2
ENDBRANCH   6   5
BRANCH  25  26
ATOM     26  C   UNL     1      -1.920   0.959  25.195  0.00  0.00    +0.091 C 
BRANCH  26  27
ATOM     27  C   UNL     1      -2.274   1.526  24.711  0.00  0.00    +0.226 C 
ATOM     28  O   UNL     1      -2.669   1.292  24.026  0.00  0.00    -0.275 OA
ATOM     29  N   UNL     1      -2.232   2.325  24.911  0.00  0.00    -0.280 N 
ATOM     30  C   UNL     1      -2.586   2.890  24.427  0.00  0.00    +0.094 C 
ATOM     31  C   UNL     1      -2.544   3.690  24.627  0.00  0.00    +0.031 C 
ATOM     32  C   UNL     1      -2.149   3.923  25.312  0.00  0.00    +0.083 C 
ATOM     33  C   UNL     1      -1.795   3.357  25.797  0.00  0.00    +0.031 C 
ATOM     34  C   UNL     1      -1.837   2.558  25.596  0.00  0.00    +0.094 C 
BRANCH  32  35
ATOM     35  C   UNL     1      -2.107   4.723  25.513  0.00  0.00    +0.260 C 
ATOM     36  N   UNL     1      -1.512   5.197  25.195  0.00  0.00    -0.088 NA
ATOM     37  O   UNL     1      -2.660   5.048  26.031  0.00  0.00    -0.272 OA
ENDBRANCH  32  35
ENDBRANCH  26  27
ENDBRANCH  25  26
TORSDOF 6
ENDMDL
MODEL 5
REMARK VINA RESULT:     -10.9      1.888      2.841
REMARK  Name = 
REMARK  6 active torsions:
REMARK  status: ('A' for Active; 'I' for Inactive)
REMARK    1  A    between atoms: C_2  and  C_5
REMARK    2  A    between atoms: C_5  and  C_6
REMARK    3  A    between atoms: C_15  and  C_17
REMARK    4  A    between atoms: C_25  and  C_26
REMARK    5  A    between atoms: C_26  and  C_27
REMARK    6  A    between atoms: C_32  and  C_35
REMARK                            x       y       z     vdW  Elec       q    Type
REMARK                         _______ _______ _______ _____ _____    ______ ____
ROOT
ATOM      6  C   UNL     1      -0.918   2.300  23.853  0.00  0.00    +0.247 C 
ATOM      7  O   UNL     1      -1.147   3.058  24.083  0.00  0.00    -0.273 OA
ATOM      8  N   UNL     1      -1.455   1.676  23.898  0.00  0.00    -0.154 NA
ATOM      9  C   UNL     1      -2.221   1.809  24.173  0.00  0.00    +0.185 A 
ATOM     10  N   UNL     1      -2.815   1.241  24.248  0.00  0.00    -0.227 NA
ATOM     11  C   UNL     1      -3.489   1.616  24.542  0.00  0.00    +0.063 A 
ATOM     12  C   UNL     1      -3.311   2.414  24.649  0.00  0.00    +0.023 A 
ATOM     13  C   UNL     1      -3.887   2.929  24.940  0.00  0.00    +0.034 C 
ATOM     14  C   UNL     1      -4.638   2.646  25.125  0.00  0.00    +0.010 C 
ATOM     15  C   UNL     1      -5.213   3.161  25.416  0.00  0.00    +0.059 C 
ATOM     16  C   UNL     1      -4.584   3.686  25.321  0.00  0.00    +0.005 C 
ATOM     19  C   UNL     1      -5.966   2.878  25.601  0.00  0.00    +0.154 C 
ATOM     20  O   UNL     1      -6.541   3.393  25.892  0.00  0.00    -0.223 OA
ATOM     21  C   UNL     1      -6.144   2.079  25.494  0.00  0.00    +0.033 C 
ATOM     22  C   UNL     1      -5.568   1.563  25.203  0.00  0.00    +0.003 C 
ATOM     23  C   UNL     1      -4.816   1.847  25.018  0.00  0.00    +0.006 C 
ATOM     24  C   UNL     1      -4.994   1.049  24.912  0.00  0.00    +0.000 C 
ATOM     25  C   UNL     1      -4.242   1.332  24.727  0.00  0.00    +0.050 C 
ATOM     38  S   UNL     1      -2.527   2.534  24.420  0.00  0.00    -0.054 S 
ENDROOT
BRANCH  15  17
ATOM     17  C   UNL     1      -5.570   3.858  25.674  0.00  0.00    +0.184 C 
ATOM     18  O   UNL     1      -5.206   4.585  25.533  0.00  0.00    -0.220 OA
ENDBRANCH  15  17
BRANCH   6   5
ATOM      5  C   UNL     1      -0.151   2.166  23.578  0.00  0.00    +0.087 C 
BRANCH   5   2
ATOM      1  C   UNL     1       1.019   1.646  24.618  0.00  0.00    +0.000 C 
ATOM      2  C   UNL     1       0.433   1.906  24.098  0.00  0.00    +0.009 C 
ATOM      3  C   UNL     1       0.446   1.173  23.719  0.00  0.00    +0.000 C 
ATOM      4  C   UNL     1       0.422   2.639  24.477  0.00  0.00    +0.000 C 
ENDBRANCH   5   2
ENDBRANCH   6   5
BRANCH  25  26
ATOM     26  C   UNL     1      -4.419   0.534  24.620  0.00  0.00    +0.091 C 
BRANCH  26  27
ATOM     27  C   UNL     1      -4.131  -0.027  25.151  0.00  0.00    +0.226 C 
ATOM     28  O   UNL     1      -3.976   0.187  25.933  0.00  0.00    -0.275 OA
ATOM     29  N   UNL     1      -3.998  -0.802  24.901  0.00  0.00    -0.280 N 
ATOM     30  C   UNL     1      -3.710  -1.363  25.432  0.00  0.00    +0.094 C 
ATOM     31  C   UNL     1      -3.577  -2.138  25.182  0.00  0.00    +0.031 C 
ATOM     32  C   UNL     1      -3.732  -2.352  24.400  0.00  0.00    +0.083 C 
ATOM     33  C   UNL     1      -4.020  -1.790  23.870  0.00  0.00    +0.031 C 
ATOM     34  C   UNL     1      -4.153  -1.015  24.120  0.00  0.00    +0.094 C 
BRANCH  32  35
ATOM     35  C   UNL     1      -3.598  -3.126  24.150  0.00  0.00    +0.260 C 
ATOM     36  N   UNL     1      -2.841  -3.450  24.194  0.00  0.00    -0.088 NA
ATOM     37  O   UNL     1      -4.222  -3.578  23.855  0.00  0.00    -0.272 OA
ENDBRANCH  32  35
ENDBRANCH  26  27
ENDBRANCH  25  26
TORSDOF 6
ENDMDL
MODEL 6
REMARK VINA RESULT:     -10.7      2.319      4.744
REMARK  Name = 
REMARK  6 active torsions:
REMARK  status: ('A' for Active; 'I' for Inactive)
REMARK    1  A    between atoms: C_2  and  C_5
REMARK    2  A    between atoms: C_5  and  C_6
REMARK    3  A    between atoms: C_15  and  C_17
REMARK    4  A    between atoms: C_25  and  C_26
REMARK    5  A    between atoms: C_26  and  C_27
REMARK    6  A    between atoms: C_32  and  C_35
REMARK                            x       y       z     vdW  Elec       q    Type
REMARK                         _______ _______ _______ _____ _____    ______ ____
ROOT
ATOM      6  C   UNL     1      -0.382   1.591  25.037  0.00  0.00    +0.247 C 
ATOM      7  O   UNL     1      -0.054   0.834  25.009  0.00  0.00    -0.273 OA
ATOM      8  N   UNL     1      -1.195   1.690  24.936  0.00  0.00    -0.154 NA
ATOM      9  C   UNL     1      -1.678   1.034  24.806  0.00  0.00    +0.185 A 
ATOM     10  N   UNL     1      -2.496   1.050  24.695  0.00  0.00    -0.227 NA
ATOM     11  C   UNL     1      -2.752   0.273  24.585  0.00  0.00    +0.063 A 
ATOM     12  C   UNL     1      -2.093  -0.221  24.628  0.00  0.00    +0.023 A 
ATOM     13  C   UNL     1      -2.183  -1.037  24.537  0.00  0.00    +0.034 C 
ATOM     14  C   UNL     1      -2.930  -1.357  24.403  0.00  0.00    +0.010 C 
ATOM     15  C   UNL     1      -3.019  -2.172  24.312  0.00  0.00    +0.059 C 
ATOM     16  C   UNL     1      -2.204  -2.129  24.428  0.00  0.00    +0.005 C 
ATOM     19  C   UNL     1      -3.768  -2.493  24.179  0.00  0.00    +0.154 C 
ATOM     20  O   UNL     1      -3.857  -3.309  24.088  0.00  0.00    -0.223 OA
ATOM     21  C   UNL     1      -4.427  -1.999  24.136  0.00  0.00    +0.033 C 
ATOM     22  C   UNL     1      -4.338  -1.183  24.227  0.00  0.00    +0.003 C 
ATOM     23  C   UNL     1      -3.589  -0.863  24.361  0.00  0.00    +0.006 C 
ATOM     24  C   UNL     1      -4.248  -0.369  24.318  0.00  0.00    +0.000 C 
ATOM     25  C   UNL     1      -3.501  -0.048  24.452  0.00  0.00    +0.050 C 
ATOM     38  S   UNL     1      -1.429   0.250  24.764  0.00  0.00    -0.054 S 
ENDROOT
BRANCH  15  17
ATOM     17  C   UNL     1      -2.826  -2.973  24.262  0.00  0.00    +0.184 C 
ATOM     18  O   UNL     1      -2.035  -3.205  24.232  0.00  0.00    -0.220 OA
ENDBRANCH  15  17
BRANCH   6   5
ATOM      5  C   UNL     1       0.101   2.246  25.167  0.00  0.00    +0.087 C 
BRANCH   5   2
ATOM      1  C   UNL     1      -0.253   3.305  26.382  0.00  0.00    +0.000 C 
ATOM      2  C   UNL     1      -0.076   2.775  25.774  0.00  0.00    +0.009 C 
ATOM      3  C   UNL     1       0.271   2.264  26.321  0.00  0.00    +0.000 C 
ATOM      4  C   UNL     1      -0.423   3.287  25.228  0.00  0.00    +0.000 C 
ENDBRANCH   5   2
ENDBRANCH   6   5
BRANCH  25  26
ATOM     26  C   UNL     1      -4.159   0.446  24.409  0.00  0.00    +0.091 C 
BRANCH  26  27
ATOM     27  C   UNL     1      -4.546   0.679  25.099  0.00  0.00    +0.226 C 
ATOM     28  O   UNL     1      -4.652   0.139  25.714  0.00  0.00    -0.275 OA
ATOM     29  N   UNL     1      -4.827   1.451  25.175  0.00  0.00    -0.280 N 
ATOM     30  C   UNL     1      -5.214   1.682  25.865  0.00  0.00    +0.094 C 
ATOM     31  C   UNL     1      -5.495   2.454  25.941  0.00  0.00    +0.031 C 
ATOM     32  C   UNL     1      -5.389   2.994  25.326  0.00  0.00    +0.083 C 
ATOM     33  C   UNL     1      -5.002   2.762  24.636  0.00  0.00    +0.031 C 
ATOM     34  C   UNL     1      -4.721   1.990  24.560  0.00  0.00    +0.094 C 
BRANCH  32  35
ATOM     35  C   UNL     1      -5.670   3.766  25.402  0.00  0.00    +0.260 C 
ATOM     36  N   UNL     1      -5.209   4.401  25.147  0.00  0.00    -0.088 NA
ATOM     37  O   UNL     1      -6.413   3.905  25.732  0.00  0.00    -0.272 OA
ENDBRANCH  32  35
ENDBRANCH  26  27
ENDBRANCH  25  26
TORSDOF 6
ENDMDL
MODEL 7
REMARK VINA RESULT:     -10.7      2.408      6.078
REMARK  Name = 
REMARK  6 active torsions:
REMARK  status: ('A' for Active; 'I' for Inactive)
REMARK    1  A    between atoms: C_2  and  C_5
REMARK    2  A    between atoms: C_5  and  C_6
REMARK    3  A    between atoms: C_15  and  C_17
REMARK    4  A    between atoms: C_25  and  C_26
REMARK    5  A    between atoms: C_26  and  C_27
REMARK    6  A    between atoms: C_32  and  C_35
REMARK                            x       y       z     vdW  Elec       q    Type
REMARK                         _______ _______ _______ _____ _____    ______ ____
ROOT
ATOM      6  C   UNL     1      -5.129   2.074  24.731  0.00  0.00    +0.247 C 
ATOM      7  O   UNL     1      -5.609   1.459  24.463  0.00  0.00    -0.273 OA
ATOM      8  N   UNL     1      -4.341   1.926  24.925  0.00  0.00    -0.154 NA
ATOM      9  C   UNL     1      -4.033   1.164  24.850  0.00  0.00    +0.185 A 
ATOM     10  N   UNL     1      -3.259   0.936  25.023  0.00  0.00    -0.227 NA
ATOM     11  C   UNL     1      -3.193   0.128  24.869  0.00  0.00    +0.063 A 
ATOM     12  C   UNL     1      -3.925  -0.142  24.603  0.00  0.00    +0.023 A 
ATOM     13  C   UNL     1      -4.024  -0.937  24.405  0.00  0.00    +0.034 C 
ATOM     14  C   UNL     1      -3.392  -1.462  24.474  0.00  0.00    +0.010 C 
ATOM     15  C   UNL     1      -3.491  -2.256  24.276  0.00  0.00    +0.059 C 
ATOM     16  C   UNL     1      -4.250  -1.973  24.119  0.00  0.00    +0.005 C 
ATOM     19  C   UNL     1      -2.858  -2.781  24.345  0.00  0.00    +0.154 C 
ATOM     20  O   UNL     1      -2.957  -3.576  24.147  0.00  0.00    -0.223 OA
ATOM     21  C   UNL     1      -2.126  -2.511  24.611  0.00  0.00    +0.033 C 
ATOM     22  C   UNL     1      -2.026  -1.716  24.809  0.00  0.00    +0.003 C 
ATOM     23  C   UNL     1      -2.659  -1.192  24.740  0.00  0.00    +0.006 C 
ATOM     24  C   UNL     1      -1.927  -0.922  25.007  0.00  0.00    +0.000 C 
ATOM     25  C   UNL     1      -2.559  -0.397  24.938  0.00  0.00    +0.050 C 
ATOM     38  S   UNL     1      -4.445   0.499  24.591  0.00  0.00    -0.054 S 
ENDROOT
BRANCH  15  17
ATOM     17  C   UNL     1      -3.854  -2.953  24.024  0.00  0.00    +0.184 C 
ATOM     18  O   UNL     1      -4.588  -2.924  23.648  0.00  0.00    -0.220 OA
ENDBRANCH  15  17
BRANCH   6   5
ATOM      5  C   UNL     1      -5.437   2.835  24.806  0.00  0.00    +0.087 C 
BRANCH   5   2
ATOM      1  C   UNL     1      -5.858   3.413  26.293  0.00  0.00    +0.000 C 
ATOM      2  C   UNL     1      -5.647   3.124  25.549  0.00  0.00    +0.009 C 
ATOM      3  C   UNL     1      -5.038   3.679  25.506  0.00  0.00    +0.000 C 
ATOM      4  C   UNL     1      -6.257   2.570  25.592  0.00  0.00    +0.000 C 
ENDBRANCH   5   2
ENDBRANCH   6   5
BRANCH  25  26
ATOM     26  C   UNL     1      -1.827  -0.128  25.205  0.00  0.00    +0.091 C 
BRANCH  26  27
ATOM     27  C   UNL     1      -1.350   0.329  24.710  0.00  0.00    +0.226 C 
ATOM     28  O   UNL     1      -1.324   0.168  23.902  0.00  0.00    -0.275 OA
ATOM     29  N   UNL     1      -0.900   0.945  25.024  0.00  0.00    -0.280 N 
ATOM     30  C   UNL     1      -0.424   1.400  24.529  0.00  0.00    +0.094 C 
ATOM     31  C   UNL     1       0.027   2.016  24.842  0.00  0.00    +0.031 C 
ATOM     32  C   UNL     1       0.000   2.177  25.651  0.00  0.00    +0.083 C 
ATOM     33  C   UNL     1      -0.477   1.721  26.146  0.00  0.00    +0.031 C 
ATOM     34  C   UNL     1      -0.927   1.105  25.832  0.00  0.00    +0.094 C 
BRANCH  32  35
ATOM     35  C   UNL     1       0.450   2.793  25.965  0.00  0.00    +0.260 C 
ATOM     36  N   UNL     1       0.397   3.550  25.641  0.00  0.00    -0.088 NA
ATOM     37  O   UNL     1       0.954   2.653  26.602  0.00  0.00    -0.272 OA
ENDBRANCH  32  35
ENDBRANCH  26  27
ENDBRANCH  25  26
TORSDOF 6
ENDMDL
MODEL 8
REMARK VINA RESULT:     -10.4      1.602      5.250
REMARK  Name = 
REMARK  6 active torsions:
REMARK  status: ('A' for Active; 'I' for Inactive)
REMARK    1  A    between atoms: C_2  and  C_5
REMARK    2  A    between atoms: C_5  and  C_6
REMARK    3  A    between atoms: C_15  and  C_17
REMARK    4  A    between atoms: C_25  and  C_26
REMARK    5  A    between atoms: C_26  and  C_27
REMARK    6  A    between atoms: C_32  and  C_35
REMARK                            x       y       z     vdW  Elec       q    Type
REMARK                         _______ _______ _______ _____ _____    ______ ____
ROOT
ATOM      6  C   UNL     1      -1.219   3.139  25.473  0.00  0.00    +0.247 C 
ATOM      7  O   UNL     1      -1.970   2.892  25.710  0.00  0.00    -0.273 OA
ATOM      8  N   UNL     1      -0.689   2.595  25.151  0.00  0.00    -0.154 NA
ATOM      9  C   UNL     1      -0.910   1.805  25.066  0.00  0.00    +0.185 A 
ATOM     10  N   UNL     1      -0.440   1.202  24.754  0.00  0.00    -0.227 NA
ATOM     11  C   UNL     1      -0.879   0.503  24.773  0.00  0.00    +0.063 A 
ATOM     12  C   UNL     1      -1.618   0.675  25.096  0.00  0.00    +0.023 A 
ATOM     13  C   UNL     1      -2.179   0.075  25.183  0.00  0.00    +0.034 C 
ATOM     14  C   UNL     1      -2.000  -0.694  24.948  0.00  0.00    +0.010 C 
ATOM     15  C   UNL     1      -2.560  -1.293  25.035  0.00  0.00    +0.059 C 
ATOM     16  C   UNL     1      -2.985  -0.654  25.338  0.00  0.00    +0.005 C 
ATOM     19  C   UNL     1      -2.382  -2.063  24.800  0.00  0.00    +0.154 C 
ATOM     20  O   UNL     1      -2.942  -2.663  24.887  0.00  0.00    -0.223 OA
ATOM     21  C   UNL     1      -1.642  -2.235  24.477  0.00  0.00    +0.033 C 
ATOM     22  C   UNL     1      -1.081  -1.636  24.390  0.00  0.00    +0.003 C 
ATOM     23  C   UNL     1      -1.260  -0.866  24.625  0.00  0.00    +0.006 C 
ATOM     24  C   UNL     1      -0.521  -1.037  24.302  0.00  0.00    +0.000 C 
ATOM     25  C   UNL     1      -0.699  -0.267  24.537  0.00  0.00    +0.050 C 
ATOM     38  S   UNL     1      -1.637   1.480  25.277  0.00  0.00    -0.054 S 
ENDROOT
BRANCH  15  17
ATOM     17  C   UNL     1      -3.269  -1.670  25.228  0.00  0.00    +0.184 C 
ATOM     18  O   UNL     1      -3.892  -1.238  25.551  0.00  0.00    -0.220 OA
ENDBRANCH  15  17
BRANCH   6   5
ATOM      5  C   UNL     1      -0.999   3.930  25.559  0.00  0.00    +0.087 C 
BRANCH   5   2
ATOM      1  C   UNL     1      -1.984   5.127  24.993  0.00  0.00    +0.000 C 
ATOM      2  C   UNL     1      -1.491   4.528  25.276  0.00  0.00    +0.009 C 
ATOM      3  C   UNL     1      -0.931   4.719  24.702  0.00  0.00    +0.000 C 
ATOM      4  C   UNL     1      -2.052   4.338  25.850  0.00  0.00    +0.000 C 
ENDBRANCH   5   2
ENDBRANCH   6   5
BRANCH  25  26
ATOM     26  C   UNL     1       0.039  -0.439  24.215  0.00  0.00    +0.091 C 
BRANCH  26  27
ATOM     27  C   UNL     1       0.195  -0.265  23.424  0.00  0.00    +0.226 C 
ATOM     28  O   UNL     1      -0.428  -0.197  22.887  0.00  0.00    -0.275 OA
ATOM     29  N   UNL     1       0.973  -0.158  23.170  0.00  0.00    -0.280 N 
ATOM     30  C   UNL     1       1.127   0.016  22.379  0.00  0.00    +0.094 C 
ATOM     31  C   UNL     1       1.905   0.123  22.125  0.00  0.00    +0.031 C 
ATOM     32  C   UNL     1       2.528   0.056  22.661  0.00  0.00    +0.083 C 
ATOM     33  C   UNL     1       2.372  -0.118  23.453  0.00  0.00    +0.031 C 
ATOM     34  C   UNL     1       1.594  -0.225  23.707  0.00  0.00    +0.094 C 
BRANCH  32  35
ATOM     35  C   UNL     1       3.305   0.162  22.407  0.00  0.00    +0.260 C 
ATOM     36  N   UNL     1       3.933  -0.076  22.887  0.00  0.00    -0.088 NA
ATOM     37  O   UNL     1       3.456   0.508  21.674  0.00  0.00    -0.272 OA
ENDBRANCH  32  35
ENDBRANCH  26  27
ENDBRANCH  25  26
TORSDOF 6
ENDMDL
MODEL 9
REMARK VINA RESULT:      -9.9      2.401      4.530
REMARK  Name = 
REMARK  6 active torsions:
REMARK  status: ('A' for Active; 'I' for Inactive)
REMARK    1  A    between atoms: C_2  and  C_5
REMARK    2  A    between atoms: C_5  and  C_6
REMARK    3  A    between atoms: C_15  and  C_17
REMARK    4  A    between atoms: C_25  and  C_26
REMARK    5  A    between atoms: C_26  and  C_27
REMARK    6  A    between atoms: C_32  and  C_35
REMARK                            x       y       z     vdW  Elec       q    Type
REMARK                         _______ _______ _______ _____ _____    ______ ____
ROOT
ATOM      6  C   UNL     1      -5.266   2.415  25.134  0.00  0.00    +0.247 C 
ATOM      7  O   UNL     1      -5.192   3.233  25.216  0.00  0.00    -0.273 OA
ATOM      8  N   UNL     1      -4.595   1.953  25.003  0.00  0.00    -0.154 NA
ATOM      9  C   UNL     1      -3.852   2.308  24.956  0.00  0.00    +0.185 A 
ATOM     10  N   UNL     1      -3.136   1.918  24.828  0.00  0.00    -0.227 NA
ATOM     11  C   UNL     1      -2.536   2.484  24.820  0.00  0.00    +0.063 A 
ATOM     12  C   UNL     1      -2.881   3.223  24.943  0.00  0.00    +0.023 A 
ATOM     13  C   UNL     1      -2.409   3.900  24.963  0.00  0.00    +0.034 C 
ATOM     14  C   UNL     1      -1.594   3.838  24.860  0.00  0.00    +0.010 C 
ATOM     15  C   UNL     1      -1.123   4.514  24.880  0.00  0.00    +0.059 C 
ATOM     16  C   UNL     1      -1.864   4.853  25.005  0.00  0.00    +0.005 C 
ATOM     19  C   UNL     1      -0.306   4.453  24.777  0.00  0.00    +0.154 C 
ATOM     20  O   UNL     1       0.166   5.130  24.797  0.00  0.00    -0.223 OA
ATOM     21  C   UNL     1       0.039   3.714  24.655  0.00  0.00    +0.033 C 
ATOM     22  C   UNL     1      -0.432   3.036  24.635  0.00  0.00    +0.003 C 
ATOM     23  C   UNL     1      -1.248   3.099  24.738  0.00  0.00    +0.006 C 
ATOM     24  C   UNL     1      -0.903   2.360  24.615  0.00  0.00    +0.000 C 
ATOM     25  C   UNL     1      -1.719   2.422  24.718  0.00  0.00    +0.050 C 
ATOM     38  S   UNL     1      -3.695   3.114  25.027  0.00  0.00    -0.054 S 
ENDROOT
BRANCH  15  17
ATOM     17  C   UNL     1      -0.909   5.309  24.944  0.00  0.00    +0.184 C 
ATOM     18  O   UNL     1      -1.489   5.886  25.042  0.00  0.00    -0.220 OA
ENDBRANCH  15  17
BRANCH   6   5
ATOM      5  C   UNL     1      -6.009   2.060  25.181  0.00  0.00    +0.087 C 
BRANCH   5   2
ATOM      1  C   UNL     1      -6.669   1.725  26.656  0.00  0.00    +0.000 C 
ATOM      2  C   UNL     1      -6.339   1.893  25.918  0.00  0.00    +0.009 C 
ATOM      3  C   UNL     1      -6.214   1.087  25.792  0.00  0.00    +0.000 C 
ATOM      4  C   UNL     1      -6.464   2.698  26.046  0.00  0.00    +0.000 C 
ENDBRANCH   5   2
ENDBRANCH   6   5
BRANCH  25  26
ATOM     26  C   UNL     1      -1.374   1.683  24.595  0.00  0.00    +0.091 C 
BRANCH  26  27
ATOM     27  C   UNL     1      -1.236   1.181  25.234  0.00  0.00    +0.226 C 
ATOM     28  O   UNL     1      -1.110   1.496  25.986  0.00  0.00    -0.275 OA
ATOM     29  N   UNL     1      -1.223   0.364  25.122  0.00  0.00    -0.280 N 
ATOM     30  C   UNL     1      -1.085  -0.138  25.761  0.00  0.00    +0.094 C 
ATOM     31  C   UNL     1      -1.072  -0.955  25.649  0.00  0.00    +0.031 C 
ATOM     32  C   UNL     1      -1.198  -1.271  24.898  0.00  0.00    +0.083 C 
ATOM     33  C   UNL     1      -1.336  -0.768  24.258  0.00  0.00    +0.031 C 
ATOM     34  C   UNL     1      -1.349   0.049  24.371  0.00  0.00    +0.094 C 
BRANCH  32  35
ATOM     35  C   UNL     1      -1.186  -2.088  24.786  0.00  0.00    +0.260 C 
ATOM     36  N   UNL     1      -1.818  -2.464  24.411  0.00  0.00    -0.088 NA
ATOM     37  O   UNL     1      -0.541  -2.531  25.047  0.00  0.00    -0.272 OA
ENDBRANCH  32  35
ENDBRANCH  26  27
ENDBRANCH  25  26
TORSDOF 6
ENDMDL
