REMARK  Name = 
REMARK  9 active torsions:
REMARK  status: ('A' for Active; 'I' for Inactive)
REMARK    1  A    between atoms: C_2  and  C_4
REMARK    2  A    between atoms: C_6  and  C_7
REMARK    3  A    between atoms: C_7  and  C_8
REMARK    4  A    between atoms: C_11  and  C_13
REMARK    5  A    between atoms: C_23  and  C_24
REMARK    6  A    between atoms: C_24  and  N_25
REMARK    7  A    between atoms: N_25  and  C_26
REMARK    8  A    between atoms: C_26  and  C_27
REMARK    9  A    between atoms: C_27  and  N_28
REMARK                            x       y       z     vdW  Elec       q    Type
REMARK                         _______ _______ _______ _____ _____    ______ ____
ROOT
ATOM      4  C   UNL     1      -0.608  -3.774   0.000  0.00  0.00    +0.006 C 
ATOM      5  C   UNL     1       0.107  -4.187   0.000  0.00  0.00    +0.005 C 
ATOM      6  C   UNL     1       0.107  -5.012   0.000  0.00  0.00    +0.027 C 
ATOM     20  C   UNL     1      -0.608  -5.424   0.000  0.00  0.00    -0.048 C 
ATOM     21  C   UNL     1      -0.608  -6.249   0.000  0.00  0.00    +0.026 C 
ATOM     22  C   UNL     1      -1.322  -5.012   0.000  0.00  0.00    -0.033 C 
ATOM     23  C   UNL     1      -1.322  -4.187   0.000  0.00  0.00    +0.039 C 
ENDROOT
BRANCH   4   2
ATOM      1  C   UNL     1      -1.322  -2.537   0.000  0.00  0.00    +0.000 C 
ATOM      2  C   UNL     1      -0.608  -2.949   0.000  0.00  0.00    +0.000 C 
ATOM      3  C   UNL     1       0.107  -2.537   0.000  0.00  0.00    +0.000 C 
ENDBRANCH   4   2
BRANCH   6   7
ATOM      7  C   UNL     1       0.821  -5.424   0.000  0.00  0.00    +0.091 C 
BRANCH   7   8
ATOM      8  C   UNL     1       0.821  -6.249   0.000  0.00  0.00    +0.227 A 
ATOM      9  N   UNL     1       1.489  -6.734   0.000  0.00  0.00    -0.111 NA
ATOM     10  N   UNL     1       1.234  -7.519   0.000  0.00  0.00    -0.107 NA
ATOM     11  C   UNL     1       0.409  -7.519   0.000  0.00  0.00    +0.250 A 
ATOM     12  O   UNL     1       0.154  -6.734   0.000  0.00  0.00    -0.420 OA
BRANCH  11  13
ATOM     13  C   UNL     1      -0.076  -8.186   0.000  0.00  0.00    +0.055 A 
ATOM     14  C   UNL     1       0.259  -8.940   0.000  0.00  0.00    +0.004 A 
ATOM     15  C   UNL     1      -0.226  -9.607   0.000  0.00  0.00    -0.004 A 
ATOM     16  C   UNL     1      -1.046  -9.521   0.000  0.00  0.00    -0.022 A 
ATOM     17  C   UNL     1      -1.531 -10.188   0.000  0.00  0.00    +0.031 C 
ATOM     18  C   UNL     1      -1.382  -8.767   0.000  0.00  0.00    -0.004 A 
ATOM     19  C   UNL     1      -0.897  -8.100   0.000  0.00  0.00    +0.004 A 
ENDBRANCH  11  13
ENDBRANCH   7   8
ENDBRANCH   6   7
BRANCH  23  24
ATOM     24  C   UNL     1      -2.037  -3.774   0.000  0.00  0.00    +0.093 C 
BRANCH  24  25
ATOM     25  N   UNL     1      -2.751  -4.187   0.000  0.00  0.00    -0.216 NA
BRANCH  25  26
ATOM     26  C   UNL     1      -3.466  -3.774   0.000  0.00  0.00    +0.106 C 
BRANCH  26  27
ATOM     27  C   UNL     1      -4.180  -4.187   0.000  0.00  0.00    +0.091 C 
BRANCH  27  28
ATOM     28  N   UNL     1      -4.895  -3.774   0.000  0.00  0.00    -0.267 NA
ATOM     29  C   UNL     1      -5.609  -4.187   0.000  0.00  0.00    +0.105 C 
ATOM     30  C   UNL     1      -6.324  -3.774   0.000  0.00  0.00    +0.159 C 
ATOM     31  O   UNL     1      -6.324  -2.949   0.000  0.00  0.00    -0.351 OA
ATOM     32  C   UNL     1      -5.609  -2.537   0.000  0.00  0.00    +0.159 C 
ATOM     33  C   UNL     1      -4.895  -2.949   0.000  0.00  0.00    +0.105 C 
ENDBRANCH  27  28
ENDBRANCH  26  27
ENDBRANCH  25  26
ENDBRANCH  24  25
ENDBRANCH  23  24
TORSDOF 9
