MODEL 1
REMARK VINA RESULT:     -12.5      0.000      0.000
REMARK  Name = 
REMARK  7 active torsions:
REMARK  status: ('A' for Active; 'I' for Inactive)
REMARK    1  A    between atoms: C_5  and  C_8
REMARK    2  A    between atoms: N_10  and  C_11
REMARK    3  A    between atoms: C_11  and  C_12
REMARK    4  A    between atoms: C_14  and  C_15
REMARK    5  A    between atoms: C_15  and  C_16
REMARK    6  A    between atoms: N_18  and  C_19
REMARK    7  A    between atoms: C_19  and  C_20
REMARK                            x       y       z     vdW  Elec       q    Type
REMARK                         _______ _______ _______ _____ _____    ______ ____
ROOT
ATOM     12  C   UNL     1      -1.444   0.010  25.278  0.00  0.00    +0.170 C 
ATOM     13  O   UNL     1      -2.264   0.104  25.288  0.00  0.00    -0.351 OA
ATOM     14  C   UNL     1      -2.607  -0.645  25.246  0.00  0.00    +0.157 C 
ATOM     27  C   UNL     1      -2.000  -1.203  25.210  0.00  0.00    +0.212 C 
ATOM     28  O   UNL     1      -2.095  -2.021  25.162  0.00  0.00    -0.218 OA
ATOM     29  C   UNL     1      -1.281  -0.797  25.230  0.00  0.00    +0.213 C 
ATOM     30  O   UNL     1      -0.531  -1.141  25.205  0.00  0.00    -0.218 OA
ENDROOT
BRANCH  12  11
ATOM     11  C   UNL     1      -0.885   0.616  25.311  0.00  0.00    +0.148 C 
BRANCH  11  10
ATOM      8  C   UNL     1      -0.580   2.011  25.370  0.00  0.00    +0.265 C 
ATOM      9  O   UNL     1       0.207   1.831  25.538  0.00  0.00    -0.268 OA
ATOM     10  N   UNL     1      -1.127   1.403  25.256  0.00  0.00    -0.199 NA
BRANCH   8   5
ATOM      1  C   UNL     1      -1.546   5.159  25.149  0.00  0.00    +0.031 C 
ATOM      2  C   UNL     1      -1.304   4.371  25.204  0.00  0.00    -0.022 A 
ATOM      3  C   UNL     1      -0.857   4.033  24.598  0.00  0.00    -0.004 A 
ATOM      4  C   UNL     1      -0.616   3.247  24.653  0.00  0.00    +0.004 A 
ATOM      5  C   UNL     1      -0.822   2.797  25.315  0.00  0.00    +0.055 A 
ATOM      6  C   UNL     1      -1.269   3.135  25.921  0.00  0.00    +0.004 A 
ATOM      7  C   UNL     1      -1.510   3.923  25.865  0.00  0.00    -0.004 A 
ENDBRANCH   8   5
ENDBRANCH  11  10
ENDBRANCH  12  11
BRANCH  14  15
ATOM     15  C   UNL     1      -3.416  -0.808  25.241  0.00  0.00    +0.119 C 
BRANCH  15  16
ATOM     16  C   UNL     1      -3.928  -0.342  24.791  0.00  0.00    +0.244 C 
ATOM     17  O   UNL     1      -4.100  -0.551  24.012  0.00  0.00    -0.273 OA
ATOM     18  N   UNL     1      -4.266   0.333  25.122  0.00  0.00    -0.200 NA
BRANCH  18  19
ATOM     19  C   UNL     1      -4.778   0.800  24.673  0.00  0.00    +0.141 C 
BRANCH  19  20
ATOM     20  C   UNL     1      -4.930   1.579  24.899  0.00  0.00    -0.000 A 
ATOM     21  C   UNL     1      -4.603   2.204  24.470  0.00  0.00    -0.000 A 
ATOM     22  C   UNL     1      -4.755   2.983  24.696  0.00  0.00    +0.029 A 
ATOM     23  C   UNL     1      -5.233   3.137  25.349  0.00  0.00    +0.140 A 
ATOM     24  F   UNL     1      -5.385   3.916  25.575  0.00  0.00    -0.204 F 
ATOM     25  C   UNL     1      -5.560   2.512  25.778  0.00  0.00    +0.029 A 
ATOM     26  C   UNL     1      -5.408   1.733  25.552  0.00  0.00    -0.000 A 
ENDBRANCH  19  20
ENDBRANCH  18  19
ENDBRANCH  15  16
ENDBRANCH  14  15
TORSDOF 7
ENDMDL
MODEL 2
REMARK VINA RESULT:     -12.3      1.902      4.055
REMARK  Name = 
REMARK  7 active torsions:
REMARK  status: ('A' for Active; 'I' for Inactive)
REMARK    1  A    between atoms: C_5  and  C_8
REMARK    2  A    between atoms: N_10  and  C_11
REMARK    3  A    between atoms: C_11  and  C_12
REMARK    4  A    between atoms: C_14  and  C_15
REMARK    5  A    between atoms: C_15  and  C_16
REMARK    6  A    between atoms: N_18  and  C_19
REMARK    7  A    between atoms: C_19  and  C_20
REMARK                            x       y       z     vdW  Elec       q    Type
REMARK                         _______ _______ _______ _____ _____    ______ ____
ROOT
ATOM     12  C   UNL     1      -1.409   2.308  24.502  0.00  0.00    +0.170 C 
ATOM     13  O   UNL     1      -1.478   1.498  24.643  0.00  0.00    -0.351 OA
ATOM     14  C   UNL     1      -0.731   1.159  24.553  0.00  0.00    +0.157 C 
ATOM     27  C   UNL     1      -0.200   1.760  24.356  0.00  0.00    +0.212 C 
ATOM     28  O   UNL     1       0.607   1.667  24.216  0.00  0.00    -0.218 OA
ATOM     29  C   UNL     1      -0.620   2.470  24.325  0.00  0.00    +0.213 C 
ATOM     30  O   UNL     1      -0.305   3.211  24.147  0.00  0.00    -0.218 OA
ENDROOT
BRANCH  12  11
ATOM     11  C   UNL     1      -2.022   2.860  24.532  0.00  0.00    +0.148 C 
BRANCH  11  10
ATOM      8  C   UNL     1      -3.414   3.146  24.686  0.00  0.00    +0.265 C 
ATOM      9  O   UNL     1      -3.290   3.905  24.389  0.00  0.00    -0.268 OA
ATOM     10  N   UNL     1      -2.780   2.623  24.757  0.00  0.00    -0.199 NA
BRANCH   8   5
ATOM      1  C   UNL     1      -6.444   2.198  25.586  0.00  0.00    +0.031 C 
ATOM      2  C   UNL     1      -5.686   2.434  25.360  0.00  0.00    -0.022 A 
ATOM      3  C   UNL     1      -5.273   2.984  25.817  0.00  0.00    -0.004 A 
ATOM      4  C   UNL     1      -4.516   3.220  25.593  0.00  0.00    +0.004 A 
ATOM      5  C   UNL     1      -4.171   2.909  24.910  0.00  0.00    +0.055 A 
ATOM      6  C   UNL     1      -4.584   2.360  24.453  0.00  0.00    +0.004 A 
ATOM      7  C   UNL     1      -5.342   2.123  24.679  0.00  0.00    -0.004 A 
ENDBRANCH   8   5
ENDBRANCH  11  10
ENDBRANCH  12  11
BRANCH  14  15
ATOM     15  C   UNL     1      -0.546   0.360  24.643  0.00  0.00    +0.119 C 
BRANCH  15  16
ATOM     16  C   UNL     1      -1.037  -0.128  25.094  0.00  0.00    +0.244 C 
ATOM     17  O   UNL     1      -0.965  -0.140  25.915  0.00  0.00    -0.273 OA
ATOM     18  N   UNL     1      -1.599  -0.602  24.721  0.00  0.00    -0.200 NA
BRANCH  18  19
ATOM     19  C   UNL     1      -2.090  -1.090  25.171  0.00  0.00    +0.141 C 
BRANCH  19  20
ATOM     20  C   UNL     1      -2.732  -1.467  24.817  0.00  0.00    -0.000 A 
ATOM     21  C   UNL     1      -2.655  -2.242  24.542  0.00  0.00    -0.000 A 
ATOM     22  C   UNL     1      -3.297  -2.619  24.188  0.00  0.00    +0.029 A 
ATOM     23  C   UNL     1      -4.016  -2.223  24.108  0.00  0.00    +0.140 A 
ATOM     24  F   UNL     1      -4.658  -2.601  23.753  0.00  0.00    -0.204 F 
ATOM     25  C   UNL     1      -4.093  -1.449  24.382  0.00  0.00    +0.029 A 
ATOM     26  C   UNL     1      -3.451  -1.071  24.737  0.00  0.00    -0.000 A 
ENDBRANCH  19  20
ENDBRANCH  18  19
ENDBRANCH  15  16
ENDBRANCH  14  15
TORSDOF 7
ENDMDL
MODEL 3
REMARK VINA RESULT:     -12.1      1.344      3.809
REMARK  Name = 
REMARK  7 active torsions:
REMARK  status: ('A' for Active; 'I' for Inactive)
REMARK    1  A    between atoms: C_5  and  C_8
REMARK    2  A    between atoms: N_10  and  C_11
REMARK    3  A    between atoms: C_11  and  C_12
REMARK    4  A    between atoms: C_14  and  C_15
REMARK    5  A    between atoms: C_15  and  C_16
REMARK    6  A    between atoms: N_18  and  C_19
REMARK    7  A    between atoms: C_19  and  C_20
REMARK                            x       y       z     vdW  Elec       q    Type
REMARK                         _______ _______ _______ _____ _____    ______ ____
ROOT
ATOM     12  C   UNL     1      -0.909   1.651  25.528  0.00  0.00    +0.170 C 
ATOM     13  O   UNL     1      -1.609   2.063  25.384  0.00  0.00    -0.351 OA
ATOM     14  C   UNL     1      -1.425   2.864  25.317  0.00  0.00    +0.157 C 
ATOM     27  C   UNL     1      -0.610   2.947  25.420  0.00  0.00    +0.212 C 
ATOM     28  O   UNL     1      -0.189   3.656  25.396  0.00  0.00    -0.218 OA
ATOM     29  C   UNL     1      -0.292   2.197  25.550  0.00  0.00    +0.213 C 
ATOM     30  O   UNL     1       0.504   2.025  25.679  0.00  0.00    -0.218 OA
ENDROOT
BRANCH  12  11
ATOM     11  C   UNL     1      -0.839   0.835  25.632  0.00  0.00    +0.148 C 
BRANCH  11  10
ATOM      8  C   UNL     1      -1.451  -0.456  25.606  0.00  0.00    +0.265 C 
ATOM      9  O   UNL     1      -0.875  -0.739  26.124  0.00  0.00    -0.268 OA
ATOM     10  N   UNL     1      -1.432   0.331  25.359  0.00  0.00    -0.199 NA
BRANCH   8   5
ATOM      1  C   UNL     1      -3.826  -2.471  24.515  0.00  0.00    +0.031 C 
ATOM      2  C   UNL     1      -3.232  -1.967  24.789  0.00  0.00    -0.022 A 
ATOM      3  C   UNL     1      -2.485  -1.982  24.437  0.00  0.00    -0.004 A 
ATOM      4  C   UNL     1      -1.892  -1.478  24.710  0.00  0.00    +0.004 A 
ATOM      5  C   UNL     1      -2.044  -0.960  25.333  0.00  0.00    +0.055 A 
ATOM      6  C   UNL     1      -2.791  -0.945  25.685  0.00  0.00    +0.004 A 
ATOM      7  C   UNL     1      -3.385  -1.449  25.412  0.00  0.00    -0.004 A 
ENDBRANCH   8   5
ENDBRANCH  11  10
ENDBRANCH  12  11
BRANCH  14  15
ATOM     15  C   UNL     1      -1.961   3.475  25.173  0.00  0.00    +0.119 C 
BRANCH  15  16
ATOM     16  C   UNL     1      -2.623   3.339  24.700  0.00  0.00    +0.244 C 
ATOM     17  O   UNL     1      -2.551   3.345  23.878  0.00  0.00    -0.273 OA
ATOM     18  N   UNL     1      -3.356   3.197  25.050  0.00  0.00    -0.200 NA
BRANCH  18  19
ATOM     19  C   UNL     1      -4.019   3.061  24.577  0.00  0.00    +0.141 C 
BRANCH  19  20
ATOM     20  C   UNL     1      -4.688   2.702  24.899  0.00  0.00    -0.000 A 
ATOM     21  C   UNL     1      -4.906   1.943  24.655  0.00  0.00    -0.000 A 
ATOM     22  C   UNL     1      -5.575   1.584  24.977  0.00  0.00    +0.029 A 
ATOM     23  C   UNL     1      -6.025   1.981  25.541  0.00  0.00    +0.140 A 
ATOM     24  F   UNL     1      -6.695   1.621  25.863  0.00  0.00    -0.204 F 
ATOM     25  C   UNL     1      -5.808   2.739  25.785  0.00  0.00    +0.029 A 
ATOM     26  C   UNL     1      -5.138   3.099  25.463  0.00  0.00    -0.000 A 
ENDBRANCH  19  20
ENDBRANCH  18  19
ENDBRANCH  15  16
ENDBRANCH  14  15
TORSDOF 7
ENDMDL
MODEL 4
REMARK VINA RESULT:     -12.0      2.354      4.020
REMARK  Name = 
REMARK  7 active torsions:
REMARK  status: ('A' for Active; 'I' for Inactive)
REMARK    1  A    between atoms: C_5  and  C_8
REMARK    2  A    between atoms: N_10  and  C_11
REMARK    3  A    between atoms: C_11  and  C_12
REMARK    4  A    between atoms: C_14  and  C_15
REMARK    5  A    between atoms: C_15  and  C_16
REMARK    6  A    between atoms: N_18  and  C_19
REMARK    7  A    between atoms: C_19  and  C_20
REMARK                            x       y       z     vdW  Elec       q    Type
REMARK                         _______ _______ _______ _____ _____    ______ ____
ROOT
ATOM     12  C   UNL     1      -4.713   2.942  25.616  0.00  0.00    +0.170 C 
ATOM     13  O   UNL     1      -4.491   2.253  25.219  0.00  0.00    -0.351 OA
ATOM     14  C   UNL     1      -5.177   1.867  24.976  0.00  0.00    +0.157 C 
ATOM     27  C   UNL     1      -5.824   2.316  25.221  0.00  0.00    +0.212 C 
ATOM     28  O   UNL     1      -6.618   2.133  25.093  0.00  0.00    -0.218 OA
ATOM     29  C   UNL     1      -5.537   2.981  25.617  0.00  0.00    +0.213 C 
ATOM     30  O   UNL     1      -5.994   3.579  25.954  0.00  0.00    -0.218 OA
ENDROOT
BRANCH  12  11
ATOM     11  C   UNL     1      -4.201   3.495  25.952  0.00  0.00    +0.148 C 
BRANCH  11  10
ATOM      8  C   UNL     1      -2.902   4.090  25.991  0.00  0.00    +0.265 C 
ATOM      9  O   UNL     1      -3.034   4.325  26.771  0.00  0.00    -0.268 OA
ATOM     10  N   UNL     1      -3.487   3.675  25.582  0.00  0.00    -0.199 NA
BRANCH   8   5
ATOM      1  C   UNL     1      -0.043   4.809  24.508  0.00  0.00    +0.031 C 
ATOM      2  C   UNL     1      -0.759   4.630  24.879  0.00  0.00    -0.022 A 
ATOM      3  C   UNL     1      -0.889   3.872  25.179  0.00  0.00    -0.004 A 
ATOM      4  C   UNL     1      -1.603   3.692  25.550  0.00  0.00    +0.004 A 
ATOM      5  C   UNL     1      -2.188   4.270  25.621  0.00  0.00    +0.055 A 
ATOM      6  C   UNL     1      -2.058   5.028  25.321  0.00  0.00    +0.004 A 
ATOM      7  C   UNL     1      -1.343   5.207  24.950  0.00  0.00    -0.004 A 
ENDBRANCH   8   5
ENDBRANCH  11  10
ENDBRANCH  12  11
BRANCH  14  15
ATOM     15  C   UNL     1      -5.211   1.155  24.559  0.00  0.00    +0.119 C 
BRANCH  15  16
ATOM     16  C   UNL     1      -4.515   0.752  24.373  0.00  0.00    +0.244 C 
ATOM     17  O   UNL     1      -3.931   1.123  23.923  0.00  0.00    -0.273 OA
ATOM     18  N   UNL     1      -4.404  -0.021  24.638  0.00  0.00    -0.200 NA
BRANCH  18  19
ATOM     19  C   UNL     1      -3.708  -0.424  24.453  0.00  0.00    +0.141 C 
BRANCH  19  20
ATOM     20  C   UNL     1      -3.647  -1.232  24.603  0.00  0.00    -0.000 A 
ATOM     21  C   UNL     1      -3.916  -1.777  24.044  0.00  0.00    -0.000 A 
ATOM     22  C   UNL     1      -3.855  -2.586  24.195  0.00  0.00    +0.029 A 
ATOM     23  C   UNL     1      -3.527  -2.850  24.903  0.00  0.00    +0.140 A 
ATOM     24  F   UNL     1      -3.467  -3.660  25.054  0.00  0.00    -0.204 F 
ATOM     25  C   UNL     1      -3.259  -2.306  25.462  0.00  0.00    +0.029 A 
ATOM     26  C   UNL     1      -3.319  -1.497  25.312  0.00  0.00    -0.000 A 
ENDBRANCH  19  20
ENDBRANCH  18  19
ENDBRANCH  15  16
ENDBRANCH  14  15
TORSDOF 7
ENDMDL
MODEL 5
REMARK VINA RESULT:     -11.9      2.158      5.287
REMARK  Name = 
REMARK  7 active torsions:
REMARK  status: ('A' for Active; 'I' for Inactive)
REMARK    1  A    between atoms: C_5  and  C_8
REMARK    2  A    between atoms: N_10  and  C_11
REMARK    3  A    between atoms: C_11  and  C_12
REMARK    4  A    between atoms: C_14  and  C_15
REMARK    5  A    between atoms: C_15  and  C_16
REMARK    6  A    between atoms: N_18  and  C_19
REMARK    7  A    between atoms: C_19  and  C_20
REMARK                            x       y       z     vdW  Elec       q    Type
REMARK                         _______ _______ _______ _____ _____    ______ ____
ROOT
ATOM     12  C   UNL     1      -3.649   2.568  25.025  0.00  0.00    +0.170 C 
ATOM     13  O   UNL     1      -2.828   2.481  25.017  0.00  0.00    -0.351 OA
ATOM     14  C   UNL     1      -2.492   3.231  25.086  0.00  0.00    +0.157 C 
ATOM     27  C   UNL     1      -3.105   3.782  25.137  0.00  0.00    +0.212 C 
ATOM     28  O   UNL     1      -3.017   4.599  25.213  0.00  0.00    -0.218 OA
ATOM     29  C   UNL     1      -3.820   3.371  25.099  0.00  0.00    +0.213 C 
ATOM     30  O   UNL     1      -4.573   3.706  25.130  0.00  0.00    -0.218 OA
ENDROOT
BRANCH  12  11
ATOM     11  C   UNL     1      -4.202   1.957  24.968  0.00  0.00    +0.148 C 
BRANCH  11  10
ATOM      8  C   UNL     1      -4.498   0.563  24.868  0.00  0.00    +0.265 C 
ATOM      9  O   UNL     1      -5.300   0.726  24.970  0.00  0.00    -0.268 OA
ATOM     10  N   UNL     1      -3.948   1.179  24.868  0.00  0.00    -0.199 NA
BRANCH   8   5
ATOM      1  C   UNL     1      -3.484  -2.552  24.465  0.00  0.00    +0.031 C 
ATOM      2  C   UNL     1      -3.737  -1.772  24.567  0.00  0.00    -0.022 A 
ATOM      3  C   UNL     1      -3.980  -1.330  23.914  0.00  0.00    -0.004 A 
ATOM      4  C   UNL     1      -4.234  -0.552  24.014  0.00  0.00    +0.004 A 
ATOM      5  C   UNL     1      -4.244  -0.215  24.768  0.00  0.00    +0.055 A 
ATOM      6  C   UNL     1      -4.001  -0.658  25.421  0.00  0.00    +0.004 A 
ATOM      7  C   UNL     1      -3.748  -1.437  25.319  0.00  0.00    -0.004 A 
ENDBRANCH   8   5
ENDBRANCH  11  10
ENDBRANCH  12  11
BRANCH  14  15
ATOM     15  C   UNL     1      -1.684   3.401  25.102  0.00  0.00    +0.119 C 
BRANCH  15  16
ATOM     16  C   UNL     1      -1.149   2.835  25.373  0.00  0.00    +0.244 C 
ATOM     17  O   UNL     1      -0.904   2.840  26.160  0.00  0.00    -0.273 OA
ATOM     18  N   UNL     1      -0.860   2.262  24.854  0.00  0.00    -0.200 NA
BRANCH  18  19
ATOM     19  C   UNL     1      -0.324   1.695  25.124  0.00  0.00    +0.141 C 
BRANCH  19  20
ATOM     20  C   UNL     1      -0.264   0.969  24.737  0.00  0.00    -0.000 A 
ATOM     21  C   UNL     1      -0.465   0.273  25.133  0.00  0.00    -0.000 A 
ATOM     22  C   UNL     1      -0.405  -0.453  24.746  0.00  0.00    +0.029 A 
ATOM     23  C   UNL     1      -0.143  -0.484  23.965  0.00  0.00    +0.140 A 
ATOM     24  F   UNL     1      -0.083  -1.211  23.579  0.00  0.00    -0.204 F 
ATOM     25  C   UNL     1       0.058   0.211  23.569  0.00  0.00    +0.029 A 
ATOM     26  C   UNL     1      -0.002   0.938  23.956  0.00  0.00    -0.000 A 
ENDBRANCH  19  20
ENDBRANCH  18  19
ENDBRANCH  15  16
ENDBRANCH  14  15
TORSDOF 7
ENDMDL
MODEL 6
REMARK VINA RESULT:     -11.7      2.038      4.911
REMARK  Name = 
REMARK  7 active torsions:
REMARK  status: ('A' for Active; 'I' for Inactive)
REMARK    1  A    between atoms: C_5  and  C_8
REMARK    2  A    between atoms: N_10  and  C_11
REMARK    3  A    between atoms: C_11  and  C_12
REMARK    4  A    between atoms: C_14  and  C_15
REMARK    5  A    between atoms: C_15  and  C_16
REMARK    6  A    between atoms: N_18  and  C_19
REMARK    7  A    between atoms: C_19  and  C_20
REMARK                            x       y       z     vdW  Elec       q    Type
REMARK                         _______ _______ _______ _____ _____    ______ ____
ROOT
ATOM     12  C   UNL     1      -4.738   1.902  25.147  0.00  0.00    +0.170 C 
ATOM     13  O   UNL     1      -4.110   2.438  25.156  0.00  0.00    -0.351 OA
ATOM     14  C   UNL     1      -4.420   3.191  25.289  0.00  0.00    +0.157 C 
ATOM     27  C   UNL     1      -5.239   3.121  25.362  0.00  0.00    +0.212 C 
ATOM     28  O   UNL     1      -5.768   3.740  25.498  0.00  0.00    -0.218 OA
ATOM     29  C   UNL     1      -5.435   2.324  25.274  0.00  0.00    +0.213 C 
ATOM     30  O   UNL     1      -6.196   2.007  25.307  0.00  0.00    -0.218 OA
ENDROOT
BRANCH  12  11
ATOM     11  C   UNL     1      -4.679   1.087  25.031  0.00  0.00    +0.148 C 
BRANCH  11  10
ATOM      8  C   UNL     1      -3.866  -0.079  24.885  0.00  0.00    +0.265 C 
ATOM      9  O   UNL     1      -4.514  -0.493  24.586  0.00  0.00    -0.268 OA
ATOM     10  N   UNL     1      -3.949   0.712  25.108  0.00  0.00    -0.199 NA
BRANCH   8   5
ATOM      1  C   UNL     1      -0.945  -1.583  25.192  0.00  0.00    +0.031 C 
ATOM      2  C   UNL     1      -1.675  -1.206  25.115  0.00  0.00    -0.022 A 
ATOM      3  C   UNL     1      -2.222  -1.237  25.732  0.00  0.00    -0.004 A 
ATOM      4  C   UNL     1      -2.952  -0.862  25.656  0.00  0.00    +0.004 A 
ATOM      5  C   UNL     1      -3.136  -0.455  24.962  0.00  0.00    +0.055 A 
ATOM      6  C   UNL     1      -2.589  -0.424  24.344  0.00  0.00    +0.004 A 
ATOM      7  C   UNL     1      -1.858  -0.800  24.422  0.00  0.00    -0.004 A 
ENDBRANCH   8   5
ENDBRANCH  11  10
ENDBRANCH  12  11
BRANCH  14  15
ATOM     15  C   UNL     1      -3.986   3.892  25.340  0.00  0.00    +0.119 C 
BRANCH  15  16
ATOM     16  C   UNL     1      -3.269   3.903  25.747  0.00  0.00    +0.244 C 
ATOM     17  O   UNL     1      -3.249   4.123  26.542  0.00  0.00    -0.273 OA
ATOM     18  N   UNL     1      -2.572   3.695  25.358  0.00  0.00    -0.200 NA
BRANCH  18  19
ATOM     19  C   UNL     1      -1.854   3.707  25.766  0.00  0.00    +0.141 C 
BRANCH  19  20
ATOM     20  C   UNL     1      -1.223   3.245  25.502  0.00  0.00    -0.000 A 
ATOM     21  C   UNL     1      -0.860   2.711  26.016  0.00  0.00    -0.000 A 
ATOM     22  C   UNL     1      -0.229   2.249  25.752  0.00  0.00    +0.029 A 
ATOM     23  C   UNL     1       0.038   2.321  24.976  0.00  0.00    +0.140 A 
ATOM     24  F   UNL     1       0.669   1.859  24.712  0.00  0.00    -0.204 F 
ATOM     25  C   UNL     1      -0.325   2.854  24.462  0.00  0.00    +0.029 A 
ATOM     26  C   UNL     1      -0.956   3.317  24.726  0.00  0.00    -0.000 A 
ENDBRANCH  19  20
ENDBRANCH  18  19
ENDBRANCH  15  16
ENDBRANCH  14  15
TORSDOF 7
ENDMDL
