MODEL 1
REMARK VINA RESULT:      -7.4      0.000      0.000
REMARK  Name = 
REMARK  4 active torsions:
REMARK  status: ('A' for Active; 'I' for Inactive)
REMARK    1  A    between atoms: N_2  and  C_4
REMARK    2  A    between atoms: C_7  and  C_8
REMARK    3  A    between atoms: C_8  and  N_9
REMARK    4  A    between atoms: C_10  and  C_12
REMARK                            x       y       z     vdW  Elec       q    Type
REMARK                         _______ _______ _______ _____ _____    ______ ____
ROOT
ATOM      4  C   UNL     1      -4.361   2.311  24.788  0.00  0.00    +0.121 C 
ATOM      5  C   UNL     1      -5.066   1.900  24.660  0.00  0.00    +0.161 C 
ATOM      6  O   UNL     1      -4.909   1.095  24.743  0.00  0.00    -0.350 OA
ATOM      7  C   UNL     1      -4.109   1.008  24.923  0.00  0.00    +0.168 C 
ATOM     15  C   UNL     1      -3.770   1.759  24.950  0.00  0.00    +0.198 C 
ATOM     16  O   UNL     1      -2.979   1.930  25.112  0.00  0.00    -0.219 OA
ENDROOT
BRANCH   4   2
ATOM      1  C   UNL     1      -3.961   3.486  24.080  0.00  0.00    +0.090 C 
ATOM      2  N   UNL     1      -4.266   3.130  24.759  0.00  0.00    -0.267 NA
ATOM      3  C   UNL     1      -4.475   3.593  25.409  0.00  0.00    +0.090 C 
ENDBRANCH   4   2
BRANCH   7   8
ATOM      8  C   UNL     1      -3.715   0.293  25.052  0.00  0.00    +0.147 C 
BRANCH   8   9
ATOM      9  N   UNL     1      -3.938  -0.382  24.634  0.00  0.00    -0.203 NA
ATOM     10  C   UNL     1      -3.612  -1.114  24.829  0.00  0.00    +0.241 C 
ATOM     11  O   UNL     1      -3.062  -1.171  25.442  0.00  0.00    -0.273 OA
BRANCH  10  12
ATOM     12  C   UNL     1      -3.835  -1.789  24.412  0.00  0.00    +0.078 C 
ATOM     13  C   UNL     1      -3.782  -2.604  24.289  0.00  0.00    +0.010 C 
ATOM     14  C   UNL     1      -4.273  -2.146  23.810  0.00  0.00    +0.010 C 
ENDBRANCH  10  12
ENDBRANCH   8   9
ENDBRANCH   7   8
TORSDOF 4
ENDMDL
MODEL 2
REMARK VINA RESULT:      -7.1      2.224      2.738
REMARK  Name = 
REMARK  4 active torsions:
REMARK  status: ('A' for Active; 'I' for Inactive)
REMARK    1  A    between atoms: N_2  and  C_4
REMARK    2  A    between atoms: C_7  and  C_8
REMARK    3  A    between atoms: C_8  and  N_9
REMARK    4  A    between atoms: C_10  and  C_12
REMARK                            x       y       z     vdW  Elec       q    Type
REMARK                         _______ _______ _______ _____ _____    ______ ____
ROOT
ATOM      4  C   UNL     1      -0.909   1.383  25.106  0.00  0.00    +0.121 C 
ATOM      5  C   UNL     1      -0.638   0.611  24.996  0.00  0.00    +0.161 C 
ATOM      6  O   UNL     1      -1.296   0.122  24.901  0.00  0.00    -0.350 OA
ATOM      7  C   UNL     1      -1.972   0.591  24.953  0.00  0.00    +0.168 C 
ATOM     15  C   UNL     1      -1.733   1.370  25.080  0.00  0.00    +0.198 C 
ATOM     16  O   UNL     1      -2.231   2.023  25.165  0.00  0.00    -0.219 OA
ENDROOT
BRANCH   4   2
ATOM      1  C   UNL     1      -0.238   2.287  25.986  0.00  0.00    +0.090 C 
ATOM      2  N   UNL     1      -0.437   2.050  25.222  0.00  0.00    -0.267 NA
ATOM      3  C   UNL     1      -0.164   2.479  24.572  0.00  0.00    +0.090 C 
ENDBRANCH   4   2
BRANCH   7   8
ATOM      8  C   UNL     1      -2.752   0.328  24.890  0.00  0.00    +0.147 C 
BRANCH   8   9
ATOM      9  N   UNL     1      -2.908  -0.442  24.638  0.00  0.00    -0.203 NA
ATOM     10  C   UNL     1      -3.684  -0.720  24.619  0.00  0.00    +0.241 C 
ATOM     11  O   UNL     1      -4.305  -0.229  24.852  0.00  0.00    -0.273 OA
BRANCH  10  12
ATOM     12  C   UNL     1      -3.840  -1.490  24.367  0.00  0.00    +0.078 C 
ATOM     13  C   UNL     1      -4.222  -2.010  23.852  0.00  0.00    +0.010 C 
ATOM     14  C   UNL     1      -3.730  -2.304  24.444  0.00  0.00    +0.010 C 
ENDBRANCH  10  12
ENDBRANCH   8   9
ENDBRANCH   7   8
TORSDOF 4
ENDMDL
MODEL 3
REMARK VINA RESULT:      -7.1      1.230      4.131
REMARK  Name = 
REMARK  4 active torsions:
REMARK  status: ('A' for Active; 'I' for Inactive)
REMARK    1  A    between atoms: N_2  and  C_4
REMARK    2  A    between atoms: C_7  and  C_8
REMARK    3  A    between atoms: C_8  and  N_9
REMARK    4  A    between atoms: C_10  and  C_12
REMARK                            x       y       z     vdW  Elec       q    Type
REMARK                         _______ _______ _______ _____ _____    ______ ____
ROOT
ATOM      4  C   UNL     1      -3.474  -1.485  24.875  0.00  0.00    +0.121 C 
ATOM      5  C   UNL     1      -3.561  -1.238  25.658  0.00  0.00    +0.161 C 
ATOM      6  O   UNL     1      -3.871  -0.474  25.650  0.00  0.00    -0.350 OA
ATOM      7  C   UNL     1      -3.976  -0.249  24.863  0.00  0.00    +0.168 C 
ATOM     15  C   UNL     1      -3.731  -0.874  24.384  0.00  0.00    +0.198 C 
ATOM     16  O   UNL     1      -3.740  -0.887  23.559  0.00  0.00    -0.219 OA
ENDROOT
BRANCH   4   2
ATOM      1  C   UNL     1      -3.700  -2.840  24.479  0.00  0.00    +0.090 C 
ATOM      2  N   UNL     1      -3.181  -2.217  24.628  0.00  0.00    -0.267 NA
ATOM      3  C   UNL     1      -2.369  -2.323  24.530  0.00  0.00    +0.090 C 
ENDBRANCH   4   2
BRANCH   7   8
ATOM      8  C   UNL     1      -4.274   0.474  24.600  0.00  0.00    +0.147 C 
BRANCH   8   9
ATOM      9  N   UNL     1      -4.632   0.992  25.135  0.00  0.00    -0.203 NA
ATOM     10  C   UNL     1      -4.859   1.745  24.889  0.00  0.00    +0.241 C 
ATOM     11  O   UNL     1      -4.729   1.983  24.110  0.00  0.00    -0.273 OA
BRANCH  10  12
ATOM     12  C   UNL     1      -5.216   2.263  25.423  0.00  0.00    +0.078 C 
ATOM     13  C   UNL     1      -5.200   2.964  25.859  0.00  0.00    +0.010 C 
ATOM     14  C   UNL     1      -5.850   2.459  25.914  0.00  0.00    +0.010 C 
ENDBRANCH  10  12
ENDBRANCH   8   9
ENDBRANCH   7   8
TORSDOF 4
ENDMDL
MODEL 4
REMARK VINA RESULT:      -6.9      1.569      4.319
REMARK  Name = 
REMARK  4 active torsions:
REMARK  status: ('A' for Active; 'I' for Inactive)
REMARK    1  A    between atoms: N_2  and  C_4
REMARK    2  A    between atoms: C_7  and  C_8
REMARK    3  A    between atoms: C_8  and  N_9
REMARK    4  A    between atoms: C_10  and  C_12
REMARK                            x       y       z     vdW  Elec       q    Type
REMARK                         _______ _______ _______ _____ _____    ______ ____
ROOT
ATOM      4  C   UNL     1      -3.221   0.061  24.776  0.00  0.00    +0.121 C 
ATOM      5  C   UNL     1      -2.412   0.178  24.663  0.00  0.00    +0.161 C 
ATOM      6  O   UNL     1      -2.277   0.991  24.619  0.00  0.00    -0.350 OA
ATOM      7  C   UNL     1      -3.002   1.375  24.705  0.00  0.00    +0.168 C 
ATOM     15  C   UNL     1      -3.585   0.801  24.802  0.00  0.00    +0.198 C 
ATOM     16  O   UNL     1      -4.392   0.940  24.906  0.00  0.00    -0.219 OA
ENDROOT
BRANCH   4   2
ATOM      1  C   UNL     1      -3.981  -1.004  24.200  0.00  0.00    +0.090 C 
ATOM      2  N   UNL     1      -3.599  -0.669  24.850  0.00  0.00    -0.267 NA
ATOM      3  C   UNL     1      -3.595  -1.063  25.574  0.00  0.00    +0.090 C 
ENDBRANCH   4   2
BRANCH   7   8
ATOM      8  C   UNL     1      -3.122   2.192  24.696  0.00  0.00    +0.147 C 
BRANCH   8   9
ATOM      9  N   UNL     1      -2.503   2.703  24.885  0.00  0.00    -0.203 NA
ATOM     10  C   UNL     1      -2.610   3.518  24.831  0.00  0.00    +0.241 C 
ATOM     11  O   UNL     1      -3.336   3.824  24.588  0.00  0.00    -0.273 OA
BRANCH  10  12
ATOM     12  C   UNL     1      -1.991   4.029  25.021  0.00  0.00    +0.078 C 
ATOM     13  C   UNL     1      -1.720   4.725  25.374  0.00  0.00    +0.010 C 
ATOM     14  C   UNL     1      -1.188   4.219  24.999  0.00  0.00    +0.010 C 
ENDBRANCH  10  12
ENDBRANCH   8   9
ENDBRANCH   7   8
TORSDOF 4
ENDMDL
