MODEL 1
REMARK VINA RESULT:     -12.7      0.000      0.000
REMARK  Name = 
REMARK  8 active torsions:
REMARK  status: ('A' for Active; 'I' for Inactive)
REMARK    1  A    between atoms: C_5  and  C_6
REMARK    2  A    between atoms: C_6  and  C_7
REMARK    3  A    between atoms: C_10  and  C_11
REMARK    4  A    between atoms: C_11  and  O_12
REMARK    5  A    between atoms: O_12  and  C_13
REMARK    6  A    between atoms: C_21  and  C_22
REMARK    7  A    between atoms: C_22  and  N_23
REMARK    8  A    between atoms: N_26  and  C_27
REMARK                            x       y       z     vdW  Elec       q    Type
REMARK                         _______ _______ _______ _____ _____    ______ ____
ROOT
ATOM      1  O   UNL     1       0.490   0.820  23.725  0.00  0.00    -0.220 OA
ATOM      2  C   UNL     1       0.188   1.368  24.263  0.00  0.00    +0.181 C 
ATOM      3  C   UNL     1       0.524   2.119  24.321  0.00  0.00    +0.038 C 
ATOM      4  C   UNL     1       0.221   2.666  24.859  0.00  0.00    +0.033 C 
ATOM      5  C   UNL     1      -0.418   2.462  25.339  0.00  0.00    +0.121 C 
ATOM     20  O   UNL     1      -0.754   1.711  25.281  0.00  0.00    -0.354 OA
ATOM     21  C   UNL     1      -0.452   1.164  24.743  0.00  0.00    +0.167 C 
ENDROOT
BRANCH   5   6
ATOM      6  C   UNL     1      -0.721   3.009  25.877  0.00  0.00    +0.079 C 
BRANCH   6   7
ATOM      7  C   UNL     1      -1.415   3.420  25.700  0.00  0.00    +0.103 A 
ATOM      8  N   UNL     1      -1.460   4.162  25.344  0.00  0.00    -0.082 NA
ATOM      9  O   UNL     1      -2.257   4.362  25.273  0.00  0.00    -0.354 OA
ATOM     10  C   UNL     1      -2.704   3.743  25.586  0.00  0.00    +0.198 A 
ATOM     19  C   UNL     1      -2.183   3.161  25.851  0.00  0.00    +0.057 A 
BRANCH  10  11
ATOM     11  C   UNL     1      -3.527   3.712  25.628  0.00  0.00    +0.272 C 
BRANCH  11  12
ATOM     12  O   UNL     1      -3.963   3.440  24.982  0.00  0.00    -0.467 OA
BRANCH  12  13
ATOM     13  C   UNL     1      -4.664   3.021  25.103  0.00  0.00    +0.139 A 
ATOM     14  C   UNL     1      -5.208   3.282  25.665  0.00  0.00    +0.037 A 
ATOM     15  C   UNL     1      -5.909   2.863  25.787  0.00  0.00    +0.003 A 
ATOM     16  C   UNL     1      -6.064   2.183  25.346  0.00  0.00    +0.000 A 
ATOM     17  C   UNL     1      -5.520   1.922  24.784  0.00  0.00    +0.003 A 
ATOM     18  C   UNL     1      -4.819   2.341  24.662  0.00  0.00    +0.037 A 
ENDBRANCH  12  13
ENDBRANCH  11  12
ENDBRANCH  10  11
ENDBRANCH   6   7
ENDBRANCH   5   6
BRANCH  21  22
ATOM     22  C   UNL     1      -0.788   0.413  24.685  0.00  0.00    +0.149 C 
BRANCH  22  23
ATOM     23  N   UNL     1      -1.556   0.283  24.955  0.00  0.00    -0.184 NA
ATOM     24  C   UNL     1      -1.970  -0.390  24.715  0.00  0.00    +0.344 C 
ATOM     25  O   UNL     1      -1.614  -0.932  24.206  0.00  0.00    -0.249 OA
ATOM     26  N   UNL     1      -2.737  -0.519  24.985  0.00  0.00    -0.161 NA
BRANCH  26  27
ATOM     27  C   UNL     1      -3.151  -1.193  24.746  0.00  0.00    +0.075 A 
ATOM     28  C   UNL     1      -3.694  -1.144  24.126  0.00  0.00    +0.019 A 
ATOM     29  C   UNL     1      -4.108  -1.817  23.887  0.00  0.00    +0.031 A 
ATOM     30  C   UNL     1      -3.978  -2.538  24.267  0.00  0.00    +0.140 A 
ATOM     31  F   UNL     1      -4.391  -3.210  24.028  0.00  0.00    -0.204 F 
ATOM     32  C   UNL     1      -3.435  -2.586  24.886  0.00  0.00    +0.031 A 
ATOM     33  C   UNL     1      -3.021  -1.913  25.125  0.00  0.00    +0.019 A 
ENDBRANCH  26  27
ENDBRANCH  22  23
ENDBRANCH  21  22
TORSDOF 8
ENDMDL
MODEL 2
REMARK VINA RESULT:     -12.7      1.872      4.526
REMARK  Name = 
REMARK  8 active torsions:
REMARK  status: ('A' for Active; 'I' for Inactive)
REMARK    1  A    between atoms: C_5  and  C_6
REMARK    2  A    between atoms: C_6  and  C_7
REMARK    3  A    between atoms: C_10  and  C_11
REMARK    4  A    between atoms: C_11  and  O_12
REMARK    5  A    between atoms: O_12  and  C_13
REMARK    6  A    between atoms: C_21  and  C_22
REMARK    7  A    between atoms: C_22  and  N_23
REMARK    8  A    between atoms: N_26  and  C_27
REMARK                            x       y       z     vdW  Elec       q    Type
REMARK                         _______ _______ _______ _____ _____    ______ ____
ROOT
ATOM      1  O   UNL     1      -3.981  -2.479  24.227  0.00  0.00    -0.220 OA
ATOM      2  C   UNL     1      -3.238  -2.209  24.462  0.00  0.00    +0.181 C 
ATOM      3  C   UNL     1      -2.569  -2.671  24.326  0.00  0.00    +0.038 C 
ATOM      4  C   UNL     1      -1.826  -2.399  24.561  0.00  0.00    +0.033 C 
ATOM      5  C   UNL     1      -1.753  -1.666  24.931  0.00  0.00    +0.121 C 
ATOM     20  O   UNL     1      -2.422  -1.204  25.067  0.00  0.00    -0.354 OA
ATOM     21  C   UNL     1      -3.165  -1.475  24.833  0.00  0.00    +0.167 C 
ENDROOT
BRANCH   5   6
ATOM      6  C   UNL     1      -1.010  -1.395  25.166  0.00  0.00    +0.079 C 
BRANCH   6   7
ATOM      7  C   UNL     1      -0.699  -0.705  24.835  0.00  0.00    +0.103 A 
ATOM      8  N   UNL     1      -0.270  -0.657  24.133  0.00  0.00    -0.082 NA
ATOM      9  O   UNL     1      -0.068   0.135  24.012  0.00  0.00    -0.354 OA
ATOM     10  C   UNL     1      -0.373   0.574  24.640  0.00  0.00    +0.198 A 
ATOM     19  C   UNL     1      -0.764   0.055  25.149  0.00  0.00    +0.057 A 
BRANCH  10  11
ATOM     11  C   UNL     1      -0.301   1.389  24.741  0.00  0.00    +0.272 C 
BRANCH  11  12
ATOM     12  O   UNL     1      -0.955   1.879  24.623  0.00  0.00    -0.467 OA
BRANCH  12  13
ATOM     13  C   UNL     1      -0.898   2.688  24.775  0.00  0.00    +0.139 A 
ATOM     14  C   UNL     1      -0.649   3.203  24.181  0.00  0.00    +0.037 A 
ATOM     15  C   UNL     1      -0.592   4.012  24.333  0.00  0.00    +0.003 A 
ATOM     16  C   UNL     1      -0.784   4.305  25.080  0.00  0.00    +0.000 A 
ATOM     17  C   UNL     1      -1.033   3.791  25.674  0.00  0.00    +0.003 A 
ATOM     18  C   UNL     1      -1.090   2.982  25.522  0.00  0.00    +0.037 A 
ENDBRANCH  12  13
ENDBRANCH  11  12
ENDBRANCH  10  11
ENDBRANCH   6   7
ENDBRANCH   5   6
BRANCH  21  22
ATOM     22  C   UNL     1      -3.834  -1.013  24.968  0.00  0.00    +0.149 C 
BRANCH  22  23
ATOM     23  N   UNL     1      -3.953  -0.321  24.536  0.00  0.00    -0.184 NA
ATOM     24  C   UNL     1      -4.329   0.325  24.885  0.00  0.00    +0.344 C 
ATOM     25  O   UNL     1      -4.587   0.279  25.667  0.00  0.00    -0.249 OA
ATOM     26  N   UNL     1      -4.447   1.017  24.452  0.00  0.00    -0.161 NA
BRANCH  26  27
ATOM     27  C   UNL     1      -4.824   1.663  24.802  0.00  0.00    +0.075 A 
ATOM     28  C   UNL     1      -5.630   1.627  24.974  0.00  0.00    +0.019 A 
ATOM     29  C   UNL     1      -6.006   2.273  25.323  0.00  0.00    +0.031 A 
ATOM     30  C   UNL     1      -5.576   2.955  25.500  0.00  0.00    +0.140 A 
ATOM     31  F   UNL     1      -5.952   3.600  25.849  0.00  0.00    -0.204 F 
ATOM     32  C   UNL     1      -4.770   2.990  25.328  0.00  0.00    +0.031 A 
ATOM     33  C   UNL     1      -4.394   2.344  24.979  0.00  0.00    +0.019 A 
ENDBRANCH  26  27
ENDBRANCH  22  23
ENDBRANCH  21  22
TORSDOF 8
ENDMDL
MODEL 3
REMARK VINA RESULT:     -12.5      2.072      4.344
REMARK  Name = 
REMARK  8 active torsions:
REMARK  status: ('A' for Active; 'I' for Inactive)
REMARK    1  A    between atoms: C_5  and  C_6
REMARK    2  A    between atoms: C_6  and  C_7
REMARK    3  A    between atoms: C_10  and  C_11
REMARK    4  A    between atoms: C_11  and  O_12
REMARK    5  A    between atoms: O_12  and  C_13
REMARK    6  A    between atoms: C_21  and  C_22
REMARK    7  A    between atoms: C_22  and  N_23
REMARK    8  A    between atoms: N_26  and  C_27
REMARK                            x       y       z     vdW  Elec       q    Type
REMARK                         _______ _______ _______ _____ _____    ______ ____
ROOT
ATOM      1  O   UNL     1       0.452  -0.398  23.727  0.00  0.00    -0.220 OA
ATOM      2  C   UNL     1      -0.222  -0.612  24.152  0.00  0.00    +0.181 C 
ATOM      3  C   UNL     1      -0.389  -1.409  24.288  0.00  0.00    +0.038 C 
ATOM      4  C   UNL     1      -1.063  -1.622  24.712  0.00  0.00    +0.033 C 
ATOM      5  C   UNL     1      -1.571  -1.039  25.001  0.00  0.00    +0.121 C 
ATOM     20  O   UNL     1      -1.404  -0.243  24.865  0.00  0.00    -0.354 OA
ATOM     21  C   UNL     1      -0.730  -0.029  24.440  0.00  0.00    +0.167 C 
ENDROOT
BRANCH   5   6
ATOM      6  C   UNL     1      -2.245  -1.253  25.425  0.00  0.00    +0.079 C 
BRANCH   6   7
ATOM      7  C   UNL     1      -2.988  -0.992  25.177  0.00  0.00    +0.103 A 
ATOM      8  N   UNL     1      -3.450  -1.337  24.588  0.00  0.00    -0.082 NA
ATOM      9  O   UNL     1      -4.147  -0.900  24.521  0.00  0.00    -0.354 OA
ATOM     10  C   UNL     1      -4.114  -0.284  25.070  0.00  0.00    +0.198 A 
ATOM     19  C   UNL     1      -3.398  -0.341  25.475  0.00  0.00    +0.057 A 
BRANCH  10  11
ATOM     11  C   UNL     1      -4.696   0.288  25.191  0.00  0.00    +0.272 C 
BRANCH  11  12
ATOM     12  O   UNL     1      -4.725   0.955  24.707  0.00  0.00    -0.467 OA
BRANCH  12  13
ATOM     13  C   UNL     1      -5.068   1.653  24.986  0.00  0.00    +0.139 A 
ATOM     14  C   UNL     1      -5.693   1.619  25.522  0.00  0.00    +0.037 A 
ATOM     15  C   UNL     1      -6.036   2.317  25.801  0.00  0.00    +0.003 A 
ATOM     16  C   UNL     1      -5.752   3.047  25.542  0.00  0.00    +0.000 A 
ATOM     17  C   UNL     1      -5.127   3.081  25.005  0.00  0.00    +0.003 A 
ATOM     18  C   UNL     1      -4.784   2.383  24.727  0.00  0.00    +0.037 A 
ENDBRANCH  12  13
ENDBRANCH  11  12
ENDBRANCH  10  11
ENDBRANCH   6   7
ENDBRANCH   5   6
BRANCH  21  22
ATOM     22  C   UNL     1      -0.563   0.767  24.304  0.00  0.00    +0.149 C 
BRANCH  22  23
ATOM     23  N   UNL     1      -0.531   1.296  24.936  0.00  0.00    -0.184 NA
ATOM     24  C   UNL     1      -0.744   2.085  24.826  0.00  0.00    +0.344 C 
ATOM     25  O   UNL     1      -0.990   2.345  24.083  0.00  0.00    -0.249 OA
ATOM     26  N   UNL     1      -0.711   2.613  25.458  0.00  0.00    -0.161 NA
BRANCH  26  27
ATOM     27  C   UNL     1      -0.925   3.403  25.347  0.00  0.00    +0.075 A 
ATOM     28  C   UNL     1      -1.652   3.676  25.626  0.00  0.00    +0.019 A 
ATOM     29  C   UNL     1      -1.866   4.465  25.516  0.00  0.00    +0.031 A 
ATOM     30  C   UNL     1      -1.352   4.982  25.126  0.00  0.00    +0.140 A 
ATOM     31  F   UNL     1      -1.565   5.770  25.016  0.00  0.00    -0.204 F 
ATOM     32  C   UNL     1      -0.625   4.707  24.848  0.00  0.00    +0.031 A 
ATOM     33  C   UNL     1      -0.412   3.918  24.959  0.00  0.00    +0.019 A 
ENDBRANCH  26  27
ENDBRANCH  22  23
ENDBRANCH  21  22
TORSDOF 8
ENDMDL
MODEL 4
REMARK VINA RESULT:     -12.2      1.696      4.247
REMARK  Name = 
REMARK  8 active torsions:
REMARK  status: ('A' for Active; 'I' for Inactive)
REMARK    1  A    between atoms: C_5  and  C_6
REMARK    2  A    between atoms: C_6  and  C_7
REMARK    3  A    between atoms: C_10  and  C_11
REMARK    4  A    between atoms: C_11  and  O_12
REMARK    5  A    between atoms: O_12  and  C_13
REMARK    6  A    between atoms: C_21  and  C_22
REMARK    7  A    between atoms: C_22  and  N_23
REMARK    8  A    between atoms: N_26  and  C_27
REMARK                            x       y       z     vdW  Elec       q    Type
REMARK                         _______ _______ _______ _____ _____    ______ ____
ROOT
ATOM      1  O   UNL     1      -1.958   4.529  25.788  0.00  0.00    -0.220 OA
ATOM      2  C   UNL     1      -2.638   4.145  25.523  0.00  0.00    +0.181 C 
ATOM      3  C   UNL     1      -3.379   4.379  25.800  0.00  0.00    +0.038 C 
ATOM      4  C   UNL     1      -4.059   3.994  25.535  0.00  0.00    +0.033 C 
ATOM      5  C   UNL     1      -3.998   3.376  24.993  0.00  0.00    +0.121 C 
ATOM     20  O   UNL     1      -3.257   3.141  24.716  0.00  0.00    -0.354 OA
ATOM     21  C   UNL     1      -2.577   3.525  24.981  0.00  0.00    +0.167 C 
ENDROOT
BRANCH   5   6
ATOM      6  C   UNL     1      -4.677   2.991  24.728  0.00  0.00    +0.079 C 
BRANCH   6   7
ATOM      7  C   UNL     1      -4.833   2.216  24.967  0.00  0.00    +0.103 A 
ATOM      8  N   UNL     1      -5.258   1.992  25.636  0.00  0.00    -0.082 NA
ATOM      9  O   UNL     1      -5.279   1.167  25.661  0.00  0.00    -0.354 OA
ATOM     10  C   UNL     1      -4.865   0.882  25.007  0.00  0.00    +0.198 A 
ATOM     19  C   UNL     1      -4.589   1.531  24.577  0.00  0.00    +0.057 A 
BRANCH  10  11
ATOM     11  C   UNL     1      -4.748   0.089  24.815  0.00  0.00    +0.272 C 
BRANCH  11  12
ATOM     12  O   UNL     1      -3.986  -0.230  24.828  0.00  0.00    -0.467 OA
BRANCH  12  13
ATOM     13  C   UNL     1      -3.875  -1.038  24.703  0.00  0.00    +0.139 A 
ATOM     14  C   UNL     1      -4.142  -1.388  24.006  0.00  0.00    +0.037 A 
ATOM     15  C   UNL     1      -4.031  -2.197  23.881  0.00  0.00    +0.003 A 
ATOM     16  C   UNL     1      -3.653  -2.654  24.454  0.00  0.00    +0.000 A 
ATOM     17  C   UNL     1      -3.386  -2.304  25.152  0.00  0.00    +0.003 A 
ATOM     18  C   UNL     1      -3.497  -1.496  25.277  0.00  0.00    +0.037 A 
ENDBRANCH  12  13
ENDBRANCH  11  12
ENDBRANCH  10  11
ENDBRANCH   6   7
ENDBRANCH   5   6
BRANCH  21  22
ATOM     22  C   UNL     1      -1.837   3.291  24.704  0.00  0.00    +0.149 C 
BRANCH  22  23
ATOM     23  N   UNL     1      -1.487   2.602  24.992  0.00  0.00    -0.184 NA
ATOM     24  C   UNL     1      -1.029   2.132  24.493  0.00  0.00    +0.344 C 
ATOM     25  O   UNL     1      -0.920   2.350  23.706  0.00  0.00    -0.249 OA
ATOM     26  N   UNL     1      -0.680   1.443  24.782  0.00  0.00    -0.161 NA
BRANCH  26  27
ATOM     27  C   UNL     1      -0.221   0.972  24.282  0.00  0.00    +0.075 A 
ATOM     28  C   UNL     1       0.526   1.230  24.043  0.00  0.00    +0.019 A 
ATOM     29  C   UNL     1       0.984   0.760  23.544  0.00  0.00    +0.031 A 
ATOM     30  C   UNL     1       0.696   0.031  23.284  0.00  0.00    +0.140 A 
ATOM     31  F   UNL     1       1.154  -0.439  22.786  0.00  0.00    -0.204 F 
ATOM     32  C   UNL     1      -0.050  -0.227  23.524  0.00  0.00    +0.031 A 
ATOM     33  C   UNL     1      -0.508   0.244  24.023  0.00  0.00    +0.019 A 
ENDBRANCH  26  27
ENDBRANCH  22  23
ENDBRANCH  21  22
TORSDOF 8
ENDMDL
MODEL 5
REMARK VINA RESULT:     -12.1      1.189      3.959
REMARK  Name = 
REMARK  8 active torsions:
REMARK  status: ('A' for Active; 'I' for Inactive)
REMARK    1  A    between atoms: C_5  and  C_6
REMARK    2  A    between atoms: C_6  and  C_7
REMARK    3  A    between atoms: C_10  and  C_11
REMARK    4  A    between atoms: C_11  and  O_12
REMARK    5  A    between atoms: O_12  and  C_13
REMARK    6  A    between atoms: C_21  and  C_22
REMARK    7  A    between atoms: C_22  and  N_23
REMARK    8  A    between atoms: N_26  and  C_27
REMARK                            x       y       z     vdW  Elec       q    Type
REMARK                         _______ _______ _______ _____ _____    ______ ____
ROOT
ATOM      1  O   UNL     1      -6.103   2.257  26.063  0.00  0.00    -0.220 OA
ATOM      2  C   UNL     1      -5.482   2.652  25.690  0.00  0.00    +0.181 C 
ATOM      3  C   UNL     1      -5.439   3.475  25.720  0.00  0.00    +0.038 C 
ATOM      4  C   UNL     1      -4.817   3.869  25.346  0.00  0.00    +0.033 C 
ATOM      5  C   UNL     1      -4.239   3.440  24.944  0.00  0.00    +0.121 C 
ATOM     20  O   UNL     1      -4.283   2.617  24.914  0.00  0.00    -0.354 OA
ATOM     21  C   UNL     1      -4.904   2.222  25.287  0.00  0.00    +0.167 C 
ENDROOT
BRANCH   5   6
ATOM      6  C   UNL     1      -3.618   3.833  24.571  0.00  0.00    +0.079 C 
BRANCH   6   7
ATOM      7  C   UNL     1      -2.838   3.673  24.789  0.00  0.00    +0.103 A 
ATOM      8  N   UNL     1      -2.462   3.940  25.472  0.00  0.00    -0.082 NA
ATOM      9  O   UNL     1      -1.689   3.650  25.467  0.00  0.00    -0.354 OA
ATOM     10  C   UNL     1      -1.589   3.203  24.780  0.00  0.00    +0.198 A 
ATOM     19  C   UNL     1      -2.300   3.218  24.361  0.00  0.00    +0.057 A 
BRANCH  10  11
ATOM     11  C   UNL     1      -0.900   2.811  24.553  0.00  0.00    +0.272 C 
BRANCH  11  12
ATOM     12  O   UNL     1      -0.739   2.057  24.846  0.00  0.00    -0.467 OA
BRANCH  12  13
ATOM     13  C   UNL     1      -0.245   1.547  24.425  0.00  0.00    +0.139 A 
ATOM     14  C   UNL     1       0.510   1.792  24.205  0.00  0.00    +0.037 A 
ATOM     15  C   UNL     1       1.004   1.281  23.783  0.00  0.00    +0.003 A 
ATOM     16  C   UNL     1       0.740   0.526  23.583  0.00  0.00    +0.000 A 
ATOM     17  C   UNL     1      -0.016   0.281  23.803  0.00  0.00    +0.003 A 
ATOM     18  C   UNL     1      -0.510   0.791  24.224  0.00  0.00    +0.037 A 
ENDBRANCH  12  13
ENDBRANCH  11  12
ENDBRANCH  10  11
ENDBRANCH   6   7
ENDBRANCH   5   6
BRANCH  21  22
ATOM     22  C   UNL     1      -4.947   1.400  25.258  0.00  0.00    +0.149 C 
BRANCH  22  23
ATOM     23  N   UNL     1      -4.516   0.984  24.691  0.00  0.00    -0.184 NA
ATOM     24  C   UNL     1      -4.394   0.172  24.778  0.00  0.00    +0.344 C 
ATOM     25  O   UNL     1      -4.701  -0.222  25.433  0.00  0.00    -0.249 OA
ATOM     26  N   UNL     1      -3.963  -0.243  24.211  0.00  0.00    -0.161 NA
BRANCH  26  27
ATOM     27  C   UNL     1      -3.840  -1.055  24.299  0.00  0.00    +0.075 A 
ATOM     28  C   UNL     1      -4.289  -1.589  23.859  0.00  0.00    +0.019 A 
ATOM     29  C   UNL     1      -4.166  -2.401  23.946  0.00  0.00    +0.031 A 
ATOM     30  C   UNL     1      -3.595  -2.677  24.474  0.00  0.00    +0.140 A 
ATOM     31  F   UNL     1      -3.472  -3.487  24.562  0.00  0.00    -0.204 F 
ATOM     32  C   UNL     1      -3.147  -2.142  24.913  0.00  0.00    +0.031 A 
ATOM     33  C   UNL     1      -3.269  -1.330  24.826  0.00  0.00    +0.019 A 
ENDBRANCH  26  27
ENDBRANCH  22  23
ENDBRANCH  21  22
TORSDOF 8
ENDMDL
MODEL 6
REMARK VINA RESULT:     -12.0      1.378      4.084
REMARK  Name = 
REMARK  8 active torsions:
REMARK  status: ('A' for Active; 'I' for Inactive)
REMARK    1  A    between atoms: C_5  and  C_6
REMARK    2  A    between atoms: C_6  and  C_7
REMARK    3  A    between atoms: C_10  and  C_11
REMARK    4  A    between atoms: C_11  and  O_12
REMARK    5  A    between atoms: O_12  and  C_13
REMARK    6  A    between atoms: C_21  and  C_22
REMARK    7  A    between atoms: C_22  and  N_23
REMARK    8  A    between atoms: N_26  and  C_27
REMARK                            x       y       z     vdW  Elec       q    Type
REMARK                         _______ _______ _______ _____ _____    ______ ____
ROOT
ATOM      1  O   UNL     1      -1.295   5.040  25.007  0.00  0.00    -0.220 OA
ATOM      2  C   UNL     1      -1.031   4.269  25.134  0.00  0.00    +0.181 C 
ATOM      3  C   UNL     1      -0.243   4.072  24.987  0.00  0.00    +0.038 C 
ATOM      4  C   UNL     1       0.019   3.300  25.114  0.00  0.00    +0.033 C 
ATOM      5  C   UNL     1      -0.504   2.726  25.388  0.00  0.00    +0.121 C 
ATOM     20  O   UNL     1      -1.292   2.922  25.535  0.00  0.00    -0.354 OA
ATOM     21  C   UNL     1      -1.556   3.693  25.408  0.00  0.00    +0.167 C 
ENDROOT
BRANCH   5   6
ATOM      6  C   UNL     1      -0.241   1.955  25.515  0.00  0.00    +0.079 C 
BRANCH   6   7
ATOM      7  C   UNL     1      -0.538   1.336  25.055  0.00  0.00    +0.103 A 
ATOM      8  N   UNL     1      -0.399   1.221  24.251  0.00  0.00    -0.082 NA
ATOM      9  O   UNL     1      -0.800   0.539  24.018  0.00  0.00    -0.354 OA
ATOM     10  C   UNL     1      -1.187   0.233  24.679  0.00  0.00    +0.198 A 
ATOM     19  C   UNL     1      -1.025   0.726  25.321  0.00  0.00    +0.057 A 
BRANCH  10  11
ATOM     11  C   UNL     1      -1.655  -0.447  24.696  0.00  0.00    +0.272 C 
BRANCH  11  12
ATOM     12  O   UNL     1      -2.477  -0.381  24.711  0.00  0.00    -0.467 OA
BRANCH  12  13
ATOM     13  C   UNL     1      -2.947  -1.052  24.611  0.00  0.00    +0.139 A 
ATOM     14  C   UNL     1      -2.841  -1.707  25.101  0.00  0.00    +0.037 A 
ATOM     15  C   UNL     1      -3.310  -2.378  25.002  0.00  0.00    +0.003 A 
ATOM     16  C   UNL     1      -3.885  -2.394  24.411  0.00  0.00    +0.000 A 
ATOM     17  C   UNL     1      -3.992  -1.740  23.920  0.00  0.00    +0.003 A 
ATOM     18  C   UNL     1      -3.523  -1.068  24.020  0.00  0.00    +0.037 A 
ENDBRANCH  12  13
ENDBRANCH  11  12
ENDBRANCH  10  11
ENDBRANCH   6   7
ENDBRANCH   5   6
BRANCH  21  22
ATOM     22  C   UNL     1      -2.343   3.890  25.555  0.00  0.00    +0.149 C 
BRANCH  22  23
ATOM     23  N   UNL     1      -2.927   3.691  25.008  0.00  0.00    -0.184 NA
ATOM     24  C   UNL     1      -3.625   3.331  25.261  0.00  0.00    +0.344 C 
ATOM     25  O   UNL     1      -3.738   3.170  26.061  0.00  0.00    -0.249 OA
ATOM     26  N   UNL     1      -4.208   3.133  24.713  0.00  0.00    -0.161 NA
BRANCH  26  27
ATOM     27  C   UNL     1      -4.907   2.773  24.967  0.00  0.00    +0.075 A 
ATOM     28  C   UNL     1      -5.452   3.201  25.414  0.00  0.00    +0.019 A 
ATOM     29  C   UNL     1      -6.150   2.841  25.667  0.00  0.00    +0.031 A 
ATOM     30  C   UNL     1      -6.303   2.053  25.472  0.00  0.00    +0.140 A 
ATOM     31  F   UNL     1      -7.000   1.693  25.725  0.00  0.00    -0.204 F 
ATOM     32  C   UNL     1      -5.757   1.626  25.025  0.00  0.00    +0.031 A 
ATOM     33  C   UNL     1      -5.059   1.986  24.772  0.00  0.00    +0.019 A 
ENDBRANCH  26  27
ENDBRANCH  22  23
ENDBRANCH  21  22
TORSDOF 8
ENDMDL
