MODEL 1
REMARK VINA RESULT:     -11.9      0.000      0.000
REMARK  Name = 
REMARK  5 active torsions:
REMARK  status: ('A' for Active; 'I' for Inactive)
REMARK    1  A    between atoms: O_2  and  C_3
REMARK    2  A    between atoms: C_6  and  C_9
REMARK    3  A    between atoms: C_12  and  C_14
REMARK    4  A    between atoms: N_19  and  C_20
REMARK    5  A    between atoms: C_20  and  C_21
REMARK                            x       y       z     vdW  Elec       q    Type
REMARK                         _______ _______ _______ _____ _____    ______ ____
ROOT
ATOM     14  C   UNL     1      -0.426   0.533  24.638  0.00  0.00    +0.141 C 
ATOM     15  C   UNL     1       0.165   0.429  24.071  0.00  0.00    +0.060 C 
ATOM     16  C   UNL     1       0.088  -0.330  23.757  0.00  0.00    +0.170 C 
ATOM     17  O   UNL     1       0.565  -0.665  23.173  0.00  0.00    -0.222 OA
ATOM     18  C   UNL     1      -0.551  -0.695  24.129  0.00  0.00    +0.106 C 
ATOM     19  N   UNL     1      -0.869  -0.163  24.673  0.00  0.00    -0.258 NA
ENDROOT
BRANCH  14  12
ATOM      9  C   UNL     1      -0.883   2.454  25.448  0.00  0.00    +0.203 A 
ATOM     10  N   UNL     1      -0.605   2.060  26.118  0.00  0.00    -0.056 NA
ATOM     11  O   UNL     1      -0.400   1.293  25.896  0.00  0.00    -0.336 OA
ATOM     12  C   UNL     1      -0.551   1.212  25.089  0.00  0.00    +0.251 A 
ATOM     13  N   UNL     1      -0.849   1.929  24.812  0.00  0.00    -0.190 NA
BRANCH   9   6
ATOM      3  C   UNL     1      -1.676   4.796  25.363  0.00  0.00    +0.139 A 
ATOM      4  C   UNL     1      -0.937   4.600  25.053  0.00  0.00    +0.037 A 
ATOM      5  C   UNL     1      -0.673   3.819  25.082  0.00  0.00    +0.006 A 
ATOM      6  C   UNL     1      -1.147   3.235  25.420  0.00  0.00    +0.039 A 
ATOM      7  C   UNL     1      -1.886   3.432  25.729  0.00  0.00    +0.006 A 
ATOM      8  C   UNL     1      -2.150   4.213  25.701  0.00  0.00    +0.037 A 
BRANCH   3   2
ATOM      1  C   UNL     1      -1.622   6.101  24.783  0.00  0.00    +0.252 C 
ATOM      2  O   UNL     1      -1.941   5.577  25.334  0.00  0.00    -0.471 OA
ENDBRANCH   3   2
ENDBRANCH   9   6
ENDBRANCH  14  12
BRANCH  19  20
ATOM     20  C   UNL     1      -1.515  -0.300  25.167  0.00  0.00    +0.138 C 
BRANCH  20  21
ATOM     21  C   UNL     1      -2.123  -0.801  24.922  0.00  0.00    +0.139 A 
ATOM     22  C   UNL     1      -2.193  -1.603  25.101  0.00  0.00    +0.037 A 
ATOM     23  C   UNL     1      -2.881  -1.885  24.744  0.00  0.00    +0.037 A 
ATOM     24  C   UNL     1      -3.236  -1.257  24.344  0.00  0.00    +0.145 A 
ATOM     25  O   UNL     1      -2.769  -0.587  24.453  0.00  0.00    -0.456 OA
ATOM     26  C   UNL     1      -3.941  -1.377  23.931  0.00  0.00    +0.037 A 
ATOM     27  C   UNL     1      -4.290  -2.124  23.919  0.00  0.00    +0.003 A 
ATOM     28  C   UNL     1      -3.934  -2.752  24.319  0.00  0.00    +0.000 A 
ATOM     29  C   UNL     1      -3.230  -2.633  24.732  0.00  0.00    +0.003 A 
ENDBRANCH  20  21
ENDBRANCH  19  20
TORSDOF 5
ENDMDL
MODEL 2
REMARK VINA RESULT:     -11.8      2.284      6.094
REMARK  Name = 
REMARK  5 active torsions:
REMARK  status: ('A' for Active; 'I' for Inactive)
REMARK    1  A    between atoms: O_2  and  C_3
REMARK    2  A    between atoms: C_6  and  C_9
REMARK    3  A    between atoms: C_12  and  C_14
REMARK    4  A    between atoms: N_19  and  C_20
REMARK    5  A    between atoms: C_20  and  C_21
REMARK                            x       y       z     vdW  Elec       q    Type
REMARK                         _______ _______ _______ _____ _____    ______ ____
ROOT
ATOM     14  C   UNL     1      -4.466   2.278  25.036  0.00  0.00    +0.141 C 
ATOM     15  C   UNL     1      -5.221   2.609  25.069  0.00  0.00    +0.060 C 
ATOM     16  C   UNL     1      -5.172   3.316  25.492  0.00  0.00    +0.170 C 
ATOM     17  O   UNL     1      -5.798   3.828  25.658  0.00  0.00    -0.222 OA
ATOM     18  C   UNL     1      -4.386   3.422  25.720  0.00  0.00    +0.106 C 
ATOM     19  N   UNL     1      -3.950   2.781  25.438  0.00  0.00    -0.258 NA
ENDROOT
BRANCH  14  12
ATOM      9  C   UNL     1      -4.010   0.277  24.448  0.00  0.00    +0.203 A 
ATOM     10  N   UNL     1      -3.894   0.683  23.739  0.00  0.00    -0.056 NA
ATOM     11  O   UNL     1      -4.051   1.481  23.873  0.00  0.00    -0.336 OA
ATOM     12  C   UNL     1      -4.264   1.570  24.665  0.00  0.00    +0.251 A 
ATOM     13  N   UNL     1      -4.239   0.827  25.021  0.00  0.00    -0.190 NA
BRANCH   9   6
ATOM      3  C   UNL     1      -3.723  -2.156  24.799  0.00  0.00    +0.139 A 
ATOM      4  C   UNL     1      -3.449  -1.622  25.366  0.00  0.00    +0.037 A 
ATOM      5  C   UNL     1      -3.545  -0.811  25.249  0.00  0.00    +0.006 A 
ATOM      6  C   UNL     1      -3.914  -0.534  24.565  0.00  0.00    +0.039 A 
ATOM      7  C   UNL     1      -4.188  -1.067  23.999  0.00  0.00    +0.006 A 
ATOM      8  C   UNL     1      -4.092  -1.878  24.116  0.00  0.00    +0.037 A 
BRANCH   3   2
ATOM      1  C   UNL     1      -3.002  -3.365  24.554  0.00  0.00    +0.252 C 
ATOM      2  O   UNL     1      -3.628  -2.967  24.915  0.00  0.00    -0.471 OA
ENDBRANCH   3   2
ENDBRANCH   9   6
ENDBRANCH  14  12
BRANCH  19  20
ATOM     20  C   UNL     1      -3.140   2.662  25.540  0.00  0.00    +0.138 C 
BRANCH  20  21
ATOM     21  C   UNL     1      -2.610   3.277  25.391  0.00  0.00    +0.139 A 
ATOM     22  C   UNL     1      -1.836   3.195  25.119  0.00  0.00    +0.037 A 
ATOM     23  C   UNL     1      -1.510   3.949  25.048  0.00  0.00    +0.037 A 
ATOM     24  C   UNL     1      -2.082   4.497  25.276  0.00  0.00    +0.145 A 
ATOM     25  O   UNL     1      -2.762   4.083  25.488  0.00  0.00    -0.456 OA
ATOM     26  C   UNL     1      -1.909   5.304  25.260  0.00  0.00    +0.037 A 
ATOM     27  C   UNL     1      -1.165   5.562  25.018  0.00  0.00    +0.003 A 
ATOM     28  C   UNL     1      -0.592   5.014  24.790  0.00  0.00    +0.000 A 
ATOM     29  C   UNL     1      -0.764   4.207  24.805  0.00  0.00    +0.003 A 
ENDBRANCH  20  21
ENDBRANCH  19  20
TORSDOF 5
ENDMDL
MODEL 3
REMARK VINA RESULT:     -11.7      2.302      3.357
REMARK  Name = 
REMARK  5 active torsions:
REMARK  status: ('A' for Active; 'I' for Inactive)
REMARK    1  A    between atoms: O_2  and  C_3
REMARK    2  A    between atoms: C_6  and  C_9
REMARK    3  A    between atoms: C_12  and  C_14
REMARK    4  A    between atoms: N_19  and  C_20
REMARK    5  A    between atoms: C_20  and  C_21
REMARK                            x       y       z     vdW  Elec       q    Type
REMARK                         _______ _______ _______ _____ _____    ______ ____
ROOT
ATOM     14  C   UNL     1      -4.850   1.993  25.075  0.00  0.00    +0.141 C 
ATOM     15  C   UNL     1      -5.471   2.132  25.598  0.00  0.00    +0.060 C 
ATOM     16  C   UNL     1      -5.843   1.412  25.751  0.00  0.00    +0.170 C 
ATOM     17  O   UNL     1      -6.493   1.296  26.247  0.00  0.00    -0.222 OA
ATOM     18  C   UNL     1      -5.450   0.827  25.322  0.00  0.00    +0.106 C 
ATOM     19  N   UNL     1      -4.837   1.186  24.904  0.00  0.00    -0.258 NA
ENDROOT
BRANCH  14  12
ATOM      9  C   UNL     1      -3.288   3.381  24.637  0.00  0.00    +0.203 A 
ATOM     10  N   UNL     1      -3.785   3.490  23.988  0.00  0.00    -0.056 NA
ATOM     11  O   UNL     1      -4.430   2.984  24.073  0.00  0.00    -0.336 OA
ATOM     12  C   UNL     1      -4.332   2.561  24.775  0.00  0.00    +0.251 A 
ATOM     13  N   UNL     1      -3.626   2.806  25.123  0.00  0.00    -0.190 NA
BRANCH   9   6
ATOM      3  C   UNL     1      -1.155   4.566  25.052  0.00  0.00    +0.139 A 
ATOM      4  C   UNL     1      -1.149   3.812  24.717  0.00  0.00    +0.037 A 
ATOM      5  C   UNL     1      -1.860   3.417  24.579  0.00  0.00    +0.006 A 
ATOM      6  C   UNL     1      -2.577   3.776  24.775  0.00  0.00    +0.039 A 
ATOM      7  C   UNL     1      -2.582   4.530  25.110  0.00  0.00    +0.006 A 
ATOM      8  C   UNL     1      -1.871   4.924  25.249  0.00  0.00    +0.037 A 
BRANCH   3   2
ATOM      1  C   UNL     1      -0.195   5.555  24.676  0.00  0.00    +0.252 C 
ATOM      2  O   UNL     1      -0.444   4.961  25.191  0.00  0.00    -0.471 OA
ENDBRANCH   3   2
ENDBRANCH   9   6
ENDBRANCH  14  12
BRANCH  19  20
ATOM     20  C   UNL     1      -4.303   0.805  24.402  0.00  0.00    +0.138 C 
BRANCH  20  21
ATOM     21  C   UNL     1      -4.130   0.007  24.513  0.00  0.00    +0.139 A 
ATOM     22  C   UNL     1      -4.308  -0.606  23.990  0.00  0.00    +0.037 A 
ATOM     23  C   UNL     1      -4.036  -1.310  24.320  0.00  0.00    +0.037 A 
ATOM     24  C   UNL     1      -3.689  -1.134  25.047  0.00  0.00    +0.145 A 
ATOM     25  O   UNL     1      -3.747  -0.321  25.167  0.00  0.00    -0.456 OA
ATOM     26  C   UNL     1      -3.366  -1.739  25.507  0.00  0.00    +0.037 A 
ATOM     27  C   UNL     1      -3.389  -2.518  25.239  0.00  0.00    +0.003 A 
ATOM     28  C   UNL     1      -3.736  -2.694  24.512  0.00  0.00    +0.000 A 
ATOM     29  C   UNL     1      -4.060  -2.091  24.052  0.00  0.00    +0.003 A 
ENDBRANCH  20  21
ENDBRANCH  19  20
TORSDOF 5
ENDMDL
MODEL 4
REMARK VINA RESULT:     -11.1      1.144      1.428
REMARK  Name = 
REMARK  5 active torsions:
REMARK  status: ('A' for Active; 'I' for Inactive)
REMARK    1  A    between atoms: O_2  and  C_3
REMARK    2  A    between atoms: C_6  and  C_9
REMARK    3  A    between atoms: C_12  and  C_14
REMARK    4  A    between atoms: N_19  and  C_20
REMARK    5  A    between atoms: C_20  and  C_21
REMARK                            x       y       z     vdW  Elec       q    Type
REMARK                         _______ _______ _______ _____ _____    ______ ____
ROOT
ATOM     14  C   UNL     1      -0.719   0.751  24.549  0.00  0.00    +0.141 C 
ATOM     15  C   UNL     1      -0.125   0.772  23.977  0.00  0.00    +0.060 C 
ATOM     16  C   UNL     1       0.041  -0.004  23.753  0.00  0.00    +0.170 C 
ATOM     17  O   UNL     1       0.600  -0.239  23.193  0.00  0.00    -0.222 OA
ATOM     18  C   UNL     1      -0.450  -0.505  24.187  0.00  0.00    +0.106 C 
ATOM     19  N   UNL     1      -0.920  -0.039  24.679  0.00  0.00    -0.258 NA
ENDROOT
BRANCH  14  12
ATOM      9  C   UNL     1      -1.906   2.370  25.277  0.00  0.00    +0.203 A 
ATOM     10  N   UNL     1      -1.224   2.454  25.733  0.00  0.00    -0.056 NA
ATOM     11  O   UNL     1      -0.697   1.858  25.517  0.00  0.00    -0.336 OA
ATOM     12  C   UNL     1      -1.053   1.406  24.926  0.00  0.00    +0.251 A 
ATOM     13  N   UNL     1      -1.799   1.721  24.777  0.00  0.00    -0.190 NA
BRANCH   9   6
ATOM      3  C   UNL     1      -3.917   3.808  25.385  0.00  0.00    +0.139 A 
ATOM      4  C   UNL     1      -3.239   4.015  25.808  0.00  0.00    +0.037 A 
ATOM      5  C   UNL     1      -2.568   3.535  25.772  0.00  0.00    +0.006 A 
ATOM      6  C   UNL     1      -2.576   2.849  25.313  0.00  0.00    +0.039 A 
ATOM      7  C   UNL     1      -3.254   2.644  24.891  0.00  0.00    +0.006 A 
ATOM      8  C   UNL     1      -3.924   3.123  24.927  0.00  0.00    +0.037 A 
BRANCH   3   2
ATOM      1  C   UNL     1      -5.333   3.948  25.511  0.00  0.00    +0.252 C 
ATOM      2  O   UNL     1      -4.587   4.288  25.421  0.00  0.00    -0.471 OA
ENDBRANCH   3   2
ENDBRANCH   9   6
ENDBRANCH  14  12
BRANCH  19  20
ATOM     20  C   UNL     1      -1.490  -0.312  25.209  0.00  0.00    +0.138 C 
BRANCH  20  21
ATOM     21  C   UNL     1      -2.049  -0.868  24.963  0.00  0.00    +0.139 A 
ATOM     22  C   UNL     1      -2.032  -1.676  25.125  0.00  0.00    +0.037 A 
ATOM     23  C   UNL     1      -2.695  -2.020  24.775  0.00  0.00    +0.037 A 
ATOM     24  C   UNL     1      -3.121  -1.424  24.396  0.00  0.00    +0.145 A 
ATOM     25  O   UNL     1      -2.722  -0.712  24.512  0.00  0.00    -0.456 OA
ATOM     26  C   UNL     1      -3.818  -1.607  23.995  0.00  0.00    +0.037 A 
ATOM     27  C   UNL     1      -4.089  -2.386  23.971  0.00  0.00    +0.003 A 
ATOM     28  C   UNL     1      -3.662  -2.982  24.350  0.00  0.00    +0.000 A 
ATOM     29  C   UNL     1      -2.966  -2.799  24.752  0.00  0.00    +0.003 A 
ENDBRANCH  20  21
ENDBRANCH  19  20
TORSDOF 5
ENDMDL
MODEL 5
REMARK VINA RESULT:     -10.8      1.039      5.261
REMARK  Name = 
REMARK  5 active torsions:
REMARK  status: ('A' for Active; 'I' for Inactive)
REMARK    1  A    between atoms: O_2  and  C_3
REMARK    2  A    between atoms: C_6  and  C_9
REMARK    3  A    between atoms: C_12  and  C_14
REMARK    4  A    between atoms: N_19  and  C_20
REMARK    5  A    between atoms: C_20  and  C_21
REMARK                            x       y       z     vdW  Elec       q    Type
REMARK                         _______ _______ _______ _____ _____    ______ ____
ROOT
ATOM     14  C   UNL     1      -0.325   0.773  24.766  0.00  0.00    +0.141 C 
ATOM     15  C   UNL     1       0.267   0.666  24.202  0.00  0.00    +0.060 C 
ATOM     16  C   UNL     1       0.641   1.392  24.083  0.00  0.00    +0.170 C 
ATOM     17  O   UNL     1       1.267   1.537  23.565  0.00  0.00    -0.222 OA
ATOM     18  C   UNL     1       0.280   1.947  24.574  0.00  0.00    +0.106 C 
ATOM     19  N   UNL     1      -0.317   1.566  24.996  0.00  0.00    -0.258 NA
ENDROOT
BRANCH  14  12
ATOM      9  C   UNL     1      -1.789  -0.742  25.112  0.00  0.00    +0.203 A 
ATOM     10  N   UNL     1      -1.452  -0.671  25.861  0.00  0.00    -0.056 NA
ATOM     11  O   UNL     1      -0.863  -0.095  25.823  0.00  0.00    -0.336 OA
ATOM     12  C   UNL     1      -0.835   0.190  25.049  0.00  0.00    +0.251 A 
ATOM     13  N   UNL     1      -1.407  -0.209  24.610  0.00  0.00    -0.190 NA
BRANCH   9   6
ATOM      3  C   UNL     1      -3.620  -2.282  24.479  0.00  0.00    +0.139 A 
ATOM      4  C   UNL     1      -3.784  -1.489  24.637  0.00  0.00    +0.037 A 
ATOM      5  C   UNL     1      -3.174  -0.975  24.848  0.00  0.00    +0.006 A 
ATOM      6  C   UNL     1      -2.399  -1.255  24.901  0.00  0.00    +0.039 A 
ATOM      7  C   UNL     1      -2.236  -2.048  24.743  0.00  0.00    +0.006 A 
ATOM      8  C   UNL     1      -2.846  -2.562  24.532  0.00  0.00    +0.037 A 
BRANCH   3   2
ATOM      1  C   UNL     1      -4.606  -2.712  23.538  0.00  0.00    +0.252 C 
ATOM      2  O   UNL     1      -4.230  -2.795  24.268  0.00  0.00    -0.471 OA
ENDBRANCH   3   2
ENDBRANCH   9   6
ENDBRANCH  14  12
BRANCH  19  20
ATOM     20  C   UNL     1      -0.818   1.913  25.551  0.00  0.00    +0.138 C 
BRANCH  20  21
ATOM     21  C   UNL     1      -1.055   2.698  25.459  0.00  0.00    +0.139 A 
ATOM     22  C   UNL     1      -1.826   2.984  25.530  0.00  0.00    +0.037 A 
ATOM     23  C   UNL     1      -1.809   3.797  25.395  0.00  0.00    +0.037 A 
ATOM     24  C   UNL     1      -1.028   4.015  25.241  0.00  0.00    +0.145 A 
ATOM     25  O   UNL     1      -0.562   3.336  25.280  0.00  0.00    -0.456 OA
ATOM     26  C   UNL     1      -0.844   4.803  25.084  0.00  0.00    +0.037 A 
ATOM     27  C   UNL     1      -1.438   5.374  25.081  0.00  0.00    +0.003 A 
ATOM     28  C   UNL     1      -2.219   5.157  25.236  0.00  0.00    +0.000 A 
ATOM     29  C   UNL     1      -2.405   4.369  25.392  0.00  0.00    +0.003 A 
ENDBRANCH  20  21
ENDBRANCH  19  20
TORSDOF 5
ENDMDL
MODEL 6
REMARK VINA RESULT:      -9.9      1.581      5.064
REMARK  Name = 
REMARK  5 active torsions:
REMARK  status: ('A' for Active; 'I' for Inactive)
REMARK    1  A    between atoms: O_2  and  C_3
REMARK    2  A    between atoms: C_6  and  C_9
REMARK    3  A    between atoms: C_12  and  C_14
REMARK    4  A    between atoms: N_19  and  C_20
REMARK    5  A    between atoms: C_20  and  C_21
REMARK                            x       y       z     vdW  Elec       q    Type
REMARK                         _______ _______ _______ _____ _____    ______ ____
ROOT
ATOM     14  C   UNL     1      -0.906   1.492  25.331  0.00  0.00    +0.141 C 
ATOM     15  C   UNL     1      -0.378   1.652  25.945  0.00  0.00    +0.060 C 
ATOM     16  C   UNL     1      -0.466   2.445  26.157  0.00  0.00    +0.170 C 
ATOM     17  O   UNL     1      -0.046   2.839  26.747  0.00  0.00    -0.222 OA
ATOM     18  C   UNL     1      -1.047   2.774  25.673  0.00  0.00    +0.106 C 
ATOM     19  N   UNL     1      -1.319   2.186  25.163  0.00  0.00    -0.258 NA
ENDROOT
BRANCH  14  12
ATOM      9  C   UNL     1      -1.470  -0.438  24.614  0.00  0.00    +0.203 A 
ATOM     10  N   UNL     1      -0.828  -0.267  24.125  0.00  0.00    -0.056 NA
ATOM     11  O   UNL     1      -0.539   0.476  24.334  0.00  0.00    -0.336 OA
ATOM     12  C   UNL     1      -1.002   0.765  24.953  0.00  0.00    +0.251 A 
ATOM     13  N   UNL     1      -1.577   0.201  25.126  0.00  0.00    -0.190 NA
BRANCH   9   6
ATOM      3  C   UNL     1      -2.836  -2.501  24.556  0.00  0.00    +0.139 A 
ATOM      4  C   UNL     1      -3.204  -1.763  24.570  0.00  0.00    +0.037 A 
ATOM      5  C   UNL     1      -2.749  -1.076  24.589  0.00  0.00    +0.006 A 
ATOM      6  C   UNL     1      -1.925  -1.126  24.595  0.00  0.00    +0.039 A 
ATOM      7  C   UNL     1      -1.558  -1.864  24.581  0.00  0.00    +0.006 A 
ATOM      8  C   UNL     1      -2.013  -2.552  24.562  0.00  0.00    +0.037 A 
BRANCH   3   2
ATOM      1  C   UNL     1      -4.009  -3.198  24.132  0.00  0.00    +0.252 C 
ATOM      2  O   UNL     1      -3.291  -3.189  24.537  0.00  0.00    -0.471 OA
ENDBRANCH   3   2
ENDBRANCH   9   6
ENDBRANCH  14  12
BRANCH  19  20
ATOM     20  C   UNL     1      -1.902   2.274  24.586  0.00  0.00    +0.138 C 
BRANCH  20  21
ATOM     21  C   UNL     1      -2.622   2.629  24.777  0.00  0.00    +0.139 A 
ATOM     22  C   UNL     1      -2.815   3.423  24.668  0.00  0.00    +0.037 A 
ATOM     23  C   UNL     1      -3.588   3.536  24.934  0.00  0.00    +0.037 A 
ATOM     24  C   UNL     1      -3.872   2.812  25.207  0.00  0.00    +0.145 A 
ATOM     25  O   UNL     1      -3.276   2.251  25.110  0.00  0.00    -0.456 OA
ATOM     26  C   UNL     1      -4.638   2.757  25.509  0.00  0.00    +0.037 A 
ATOM     27  C   UNL     1      -5.119   3.426  25.538  0.00  0.00    +0.003 A 
ATOM     28  C   UNL     1      -4.835   4.150  25.265  0.00  0.00    +0.000 A 
ATOM     29  C   UNL     1      -4.069   4.206  24.963  0.00  0.00    +0.003 A 
ENDBRANCH  20  21
ENDBRANCH  19  20
TORSDOF 5
ENDMDL
MODEL 7
REMARK VINA RESULT:      -9.6      2.146      3.446
REMARK  Name = 
REMARK  5 active torsions:
REMARK  status: ('A' for Active; 'I' for Inactive)
REMARK    1  A    between atoms: O_2  and  C_3
REMARK    2  A    between atoms: C_6  and  C_9
REMARK    3  A    between atoms: C_12  and  C_14
REMARK    4  A    between atoms: N_19  and  C_20
REMARK    5  A    between atoms: C_20  and  C_21
REMARK                            x       y       z     vdW  Elec       q    Type
REMARK                         _______ _______ _______ _____ _____    ______ ____
ROOT
ATOM     14  C   UNL     1      -1.103   2.735  25.448  0.00  0.00    +0.141 C 
ATOM     15  C   UNL     1      -0.639   3.079  26.036  0.00  0.00    +0.060 C 
ATOM     16  C   UNL     1       0.063   2.648  26.093  0.00  0.00    +0.170 C 
ATOM     17  O   UNL     1       0.686   2.800  26.611  0.00  0.00    -0.222 OA
ATOM     18  C   UNL     1       0.031   2.037  25.539  0.00  0.00    +0.106 C 
ATOM     19  N   UNL     1      -0.689   2.090  25.140  0.00  0.00    -0.258 NA
ENDROOT
BRANCH  14  12
ATOM      9  C   UNL     1      -3.174   3.081  25.060  0.00  0.00    +0.203 A 
ATOM     10  N   UNL     1      -2.826   3.688  24.623  0.00  0.00    -0.056 NA
ATOM     11  O   UNL     1      -2.008   3.632  24.715  0.00  0.00    -0.336 OA
ATOM     12  C   UNL     1      -1.851   2.990  25.209  0.00  0.00    +0.251 A 
ATOM     13  N   UNL     1      -2.570   2.650  25.422  0.00  0.00    -0.190 NA
BRANCH   9   6
ATOM      3  C   UNL     1      -5.600   2.631  25.250  0.00  0.00    +0.139 A 
ATOM      4  C   UNL     1      -5.284   3.326  25.563  0.00  0.00    +0.037 A 
ATOM      5  C   UNL     1      -4.475   3.476  25.500  0.00  0.00    +0.006 A 
ATOM      6  C   UNL     1      -3.982   2.931  25.123  0.00  0.00    +0.039 A 
ATOM      7  C   UNL     1      -4.299   2.236  24.810  0.00  0.00    +0.006 A 
ATOM      8  C   UNL     1      -5.108   2.086  24.874  0.00  0.00    +0.037 A 
BRANCH   3   2
ATOM      1  C   UNL     1      -6.751   1.870  24.877  0.00  0.00    +0.252 C 
ATOM      2  O   UNL     1      -6.408   2.481  25.313  0.00  0.00    -0.471 OA
ENDBRANCH   3   2
ENDBRANCH   9   6
ENDBRANCH  14  12
BRANCH  19  20
ATOM     20  C   UNL     1      -0.951   1.589  24.540  0.00  0.00    +0.138 C 
BRANCH  20  21
ATOM     21  C   UNL     1      -0.885   0.771  24.628  0.00  0.00    +0.139 A 
ATOM     22  C   UNL     1      -0.407   0.272  24.178  0.00  0.00    +0.037 A 
ATOM     23  C   UNL     1      -0.513  -0.498  24.453  0.00  0.00    +0.037 A 
ATOM     24  C   UNL     1      -1.057  -0.476  25.072  0.00  0.00    +0.145 A 
ATOM     25  O   UNL     1      -1.288   0.308  25.181  0.00  0.00    -0.456 OA
ATOM     26  C   UNL     1      -1.273  -1.173  25.457  0.00  0.00    +0.037 A 
ATOM     27  C   UNL     1      -0.944  -1.892  25.223  0.00  0.00    +0.003 A 
ATOM     28  C   UNL     1      -0.400  -1.915  24.604  0.00  0.00    +0.000 A 
ATOM     29  C   UNL     1      -0.184  -1.219  24.218  0.00  0.00    +0.003 A 
ENDBRANCH  20  21
ENDBRANCH  19  20
TORSDOF 5
ENDMDL
MODEL 8
REMARK VINA RESULT:      -9.4      1.778      4.799
REMARK  Name = 
REMARK  5 active torsions:
REMARK  status: ('A' for Active; 'I' for Inactive)
REMARK    1  A    between atoms: O_2  and  C_3
REMARK    2  A    between atoms: C_6  and  C_9
REMARK    3  A    between atoms: C_12  and  C_14
REMARK    4  A    between atoms: N_19  and  C_20
REMARK    5  A    between atoms: C_20  and  C_21
REMARK                            x       y       z     vdW  Elec       q    Type
REMARK                         _______ _______ _______ _____ _____    ______ ____
ROOT
ATOM     14  C   UNL     1      -1.099   3.601  25.371  0.00  0.00    +0.141 C 
ATOM     15  C   UNL     1      -0.751   4.223  24.956  0.00  0.00    +0.060 C 
ATOM     16  C   UNL     1      -1.260   4.871  24.993  0.00  0.00    +0.170 C 
ATOM     17  O   UNL     1      -1.131   5.611  24.652  0.00  0.00    -0.222 OA
ATOM     18  C   UNL     1      -1.923   4.649  25.432  0.00  0.00    +0.106 C 
ATOM     19  N   UNL     1      -1.823   3.865  25.666  0.00  0.00    -0.258 NA
ENDROOT
BRANCH  14  12
ATOM      9  C   UNL     1      -0.540   1.541  25.345  0.00  0.00    +0.203 A 
ATOM     10  N   UNL     1      -0.028   1.838  25.920  0.00  0.00    -0.056 NA
ATOM     11  O   UNL     1      -0.175   2.645  25.999  0.00  0.00    -0.336 OA
ATOM     12  C   UNL     1      -0.778   2.848  25.474  0.00  0.00    +0.251 A 
ATOM     13  N   UNL     1      -1.004   2.166  25.070  0.00  0.00    -0.190 NA
BRANCH   9   6
ATOM      3  C   UNL     1      -0.664  -0.810  24.582  0.00  0.00    +0.139 A 
ATOM      4  C   UNL     1      -1.010  -0.590  25.298  0.00  0.00    +0.037 A 
ATOM      5  C   UNL     1      -0.969   0.193  25.553  0.00  0.00    +0.006 A 
ATOM      6  C   UNL     1      -0.581   0.757  25.091  0.00  0.00    +0.039 A 
ATOM      7  C   UNL     1      -0.235   0.536  24.375  0.00  0.00    +0.006 A 
ATOM      8  C   UNL     1      -0.277  -0.247  24.121  0.00  0.00    +0.037 A 
BRANCH   3   2
ATOM      1  C   UNL     1      -1.361  -2.056  24.519  0.00  0.00    +0.252 C 
ATOM      2  O   UNL     1      -0.705  -1.594  24.328  0.00  0.00    -0.471 OA
ENDBRANCH   3   2
ENDBRANCH   9   6
ENDBRANCH  14  12
BRANCH  19  20
ATOM     20  C   UNL     1      -2.354   3.420  26.115  0.00  0.00    +0.138 C 
BRANCH  20  21
ATOM     21  C   UNL     1      -3.144   3.364  25.885  0.00  0.00    +0.139 A 
ATOM     22  C   UNL     1      -3.757   3.859  26.130  0.00  0.00    +0.037 A 
ATOM     23  C   UNL     1      -4.451   3.604  25.766  0.00  0.00    +0.037 A 
ATOM     24  C   UNL     1      -4.268   2.951  25.296  0.00  0.00    +0.145 A 
ATOM     25  O   UNL     1      -3.460   2.803  25.369  0.00  0.00    -0.456 OA
ATOM     26  C   UNL     1      -4.861   2.576  24.862  0.00  0.00    +0.037 A 
ATOM     27  C   UNL     1      -5.636   2.853  24.897  0.00  0.00    +0.003 A 
ATOM     28  C   UNL     1      -5.820   3.506  25.367  0.00  0.00    +0.000 A 
ATOM     29  C   UNL     1      -5.228   3.882  25.802  0.00  0.00    +0.003 A 
ENDBRANCH  20  21
ENDBRANCH  19  20
TORSDOF 5
ENDMDL
