MODEL 1
REMARK VINA RESULT:     -11.6      0.000      0.000
REMARK  Name = 
REMARK  9 active torsions:
REMARK  status: ('A' for Active; 'I' for Inactive)
REMARK    1  A    between atoms: O_2  and  C_3
REMARK    2  A    between atoms: C_6  and  C_7
REMARK    3  A    between atoms: C_7  and  N_8
REMARK    4  A    between atoms: N_8  and  C_9
REMARK    5  A    between atoms: C_14  and  C_15
REMARK    6  A    between atoms: C_15  and  C_16
REMARK    7  A    between atoms: C_16  and  C_17
REMARK    8  A    between atoms: N_19  and  C_20
REMARK    9  A    between atoms: C_20  and  C_21
REMARK                            x       y       z     vdW  Elec       q    Type
REMARK                         _______ _______ _______ _____ _____    ______ ____
ROOT
ATOM      9  C   UNL     1      -1.081   0.548  25.040  0.00  0.00    +0.091 C 
ATOM     10  C   UNL     1      -0.357   0.740  24.694  0.00  0.00    +0.044 C 
ATOM     11  C   UNL     1      -0.229   1.548  24.801  0.00  0.00    +0.138 C 
ATOM     12  N   UNL     1      -0.876   1.855  25.214  0.00  0.00    -0.265 NA
ATOM     13  C   UNL     1      -1.401   1.236  25.361  0.00  0.00    +0.090 C 
ATOM     14  C   UNL     1      -0.900   2.658  25.401  0.00  0.00    +0.080 C 
ATOM     28  C   UNL     1      -0.280   3.153  25.177  0.00  0.00    +0.131 C 
ATOM     29  N   UNL     1       0.365   2.846  24.766  0.00  0.00    -0.203 NA
ATOM     30  C   UNL     1       0.391   2.043  24.577  0.00  0.00    +0.256 C 
ATOM     31  O   UNL     1       1.036   1.736  24.166  0.00  0.00    -0.272 OA
ENDROOT
BRANCH   9   8
ATOM      8  N   UNL     1      -1.424  -0.202  25.060  0.00  0.00    -0.213 NA
BRANCH   8   7
ATOM      7  C   UNL     1      -2.204  -0.293  25.315  0.00  0.00    +0.115 C 
BRANCH   7   6
ATOM      3  C   UNL     1      -3.514  -2.270  24.607  0.00  0.00    +0.139 A 
ATOM      4  C   UNL     1      -2.722  -2.356  24.821  0.00  0.00    +0.037 A 
ATOM      5  C   UNL     1      -2.285  -1.696  25.057  0.00  0.00    +0.000 A 
ATOM      6  C   UNL     1      -2.640  -0.953  25.079  0.00  0.00    -0.005 A 
ATOM     32  C   UNL     1      -3.432  -0.867  24.865  0.00  0.00    +0.000 A 
ATOM     33  C   UNL     1      -3.869  -1.525  24.629  0.00  0.00    +0.037 A 
BRANCH   3   2
ATOM      1  C   UNL     1      -4.350  -2.922  23.649  0.00  0.00    +0.252 C 
ATOM      2  O   UNL     1      -3.951  -2.928  24.370  0.00  0.00    -0.471 OA
ENDBRANCH   3   2
ENDBRANCH   7   6
ENDBRANCH   8   7
ENDBRANCH   9   8
BRANCH  14  15
ATOM     15  C   UNL     1      -1.546   2.964  25.813  0.00  0.00    +0.027 C 
BRANCH  15  16
ATOM     16  C   UNL     1      -1.929   3.641  25.535  0.00  0.00    +0.088 C 
BRANCH  16  17
ATOM     17  C   UNL     1      -2.705   3.800  25.766  0.00  0.00    +0.242 C 
ATOM     18  O   UNL     1      -2.852   4.350  26.362  0.00  0.00    -0.273 OA
ATOM     19  N   UNL     1      -3.332   3.409  25.401  0.00  0.00    -0.201 NA
BRANCH  19  20
ATOM     20  C   UNL     1      -4.108   3.569  25.632  0.00  0.00    +0.141 C 
BRANCH  20  21
ATOM     21  C   UNL     1      -4.715   3.050  25.425  0.00  0.00    -0.000 A 
ATOM     22  C   UNL     1      -4.731   2.714  24.672  0.00  0.00    -0.000 A 
ATOM     23  C   UNL     1      -5.338   2.195  24.465  0.00  0.00    +0.029 A 
ATOM     24  C   UNL     1      -5.929   2.011  25.011  0.00  0.00    +0.140 A 
ATOM     25  F   UNL     1      -6.535   1.493  24.804  0.00  0.00    -0.204 F 
ATOM     26  C   UNL     1      -5.912   2.348  25.764  0.00  0.00    +0.029 A 
ATOM     27  C   UNL     1      -5.306   2.866  25.971  0.00  0.00    -0.000 A 
ENDBRANCH  20  21
ENDBRANCH  19  20
ENDBRANCH  16  17
ENDBRANCH  15  16
ENDBRANCH  14  15
TORSDOF 9
ENDMDL
MODEL 2
REMARK VINA RESULT:     -11.4      1.695      4.896
REMARK  Name = 
REMARK  9 active torsions:
REMARK  status: ('A' for Active; 'I' for Inactive)
REMARK    1  A    between atoms: O_2  and  C_3
REMARK    2  A    between atoms: C_6  and  C_7
REMARK    3  A    between atoms: C_7  and  N_8
REMARK    4  A    between atoms: N_8  and  C_9
REMARK    5  A    between atoms: C_14  and  C_15
REMARK    6  A    between atoms: C_15  and  C_16
REMARK    7  A    between atoms: C_16  and  C_17
REMARK    8  A    between atoms: N_19  and  C_20
REMARK    9  A    between atoms: C_20  and  C_21
REMARK                            x       y       z     vdW  Elec       q    Type
REMARK                         _______ _______ _______ _____ _____    ______ ____
ROOT
ATOM      9  C   UNL     1      -3.795  -0.530  25.012  0.00  0.00    +0.091 C 
ATOM     10  C   UNL     1      -3.975  -1.311  24.814  0.00  0.00    +0.044 C 
ATOM     11  C   UNL     1      -3.266  -1.709  24.677  0.00  0.00    +0.138 C 
ATOM     12  N   UNL     1      -2.647  -1.173  24.790  0.00  0.00    -0.265 NA
ATOM     13  C   UNL     1      -2.975  -0.445  24.997  0.00  0.00    +0.090 C 
ATOM     14  C   UNL     1      -1.867  -1.419  24.689  0.00  0.00    +0.080 C 
ATOM     28  C   UNL     1      -1.704  -2.200  24.476  0.00  0.00    +0.131 C 
ATOM     29  N   UNL     1      -2.321  -2.734  24.364  0.00  0.00    -0.203 NA
ATOM     30  C   UNL     1      -3.103  -2.489  24.464  0.00  0.00    +0.256 C 
ATOM     31  O   UNL     1      -3.721  -3.023  24.352  0.00  0.00    -0.272 OA
ENDROOT
BRANCH   9   8
ATOM      8  N   UNL     1      -4.341   0.062  25.193  0.00  0.00    -0.213 NA
BRANCH   8   7
ATOM      7  C   UNL     1      -4.410   0.724  24.705  0.00  0.00    +0.115 C 
BRANCH   7   6
ATOM      3  C   UNL     1      -5.396   2.814  25.589  0.00  0.00    +0.139 A 
ATOM      4  C   UNL     1      -5.854   2.129  25.545  0.00  0.00    +0.037 A 
ATOM      5  C   UNL     1      -5.524   1.432  25.251  0.00  0.00    +0.000 A 
ATOM      6  C   UNL     1      -4.739   1.420  25.000  0.00  0.00    -0.005 A 
ATOM     32  C   UNL     1      -4.282   2.106  25.044  0.00  0.00    +0.000 A 
ATOM     33  C   UNL     1      -4.610   2.803  25.338  0.00  0.00    +0.037 A 
BRANCH   3   2
ATOM      1  C   UNL     1      -5.600   4.225  25.490  0.00  0.00    +0.252 C 
ATOM      2  O   UNL     1      -5.724   3.512  25.884  0.00  0.00    -0.471 OA
ENDBRANCH   3   2
ENDBRANCH   7   6
ENDBRANCH   8   7
ENDBRANCH   9   8
BRANCH  14  15
ATOM     15  C   UNL     1      -1.249  -0.884  24.802  0.00  0.00    +0.027 C 
BRANCH  15  16
ATOM     16  C   UNL     1      -0.786  -0.648  24.160  0.00  0.00    +0.088 C 
BRANCH  16  17
ATOM     17  C   UNL     1      -0.246  -0.030  24.246  0.00  0.00    +0.242 C 
ATOM     18  O   UNL     1       0.560  -0.170  24.148  0.00  0.00    -0.273 OA
ATOM     19  N   UNL     1      -0.513   0.728  24.432  0.00  0.00    -0.201 NA
BRANCH  19  20
ATOM     20  C   UNL     1       0.027   1.345  24.518  0.00  0.00    +0.141 C 
BRANCH  20  21
ATOM     21  C   UNL     1      -0.233   2.089  24.766  0.00  0.00    -0.000 A 
ATOM     22  C   UNL     1      -0.529   2.626  24.215  0.00  0.00    -0.000 A 
ATOM     23  C   UNL     1      -0.789   3.370  24.463  0.00  0.00    +0.029 A 
ATOM     24  C   UNL     1      -0.753   3.575  25.261  0.00  0.00    +0.140 A 
ATOM     25  F   UNL     1      -1.012   4.317  25.509  0.00  0.00    -0.204 F 
ATOM     26  C   UNL     1      -0.456   3.036  25.812  0.00  0.00    +0.029 A 
ATOM     27  C   UNL     1      -0.196   2.294  25.564  0.00  0.00    -0.000 A 
ENDBRANCH  20  21
ENDBRANCH  19  20
ENDBRANCH  16  17
ENDBRANCH  15  16
ENDBRANCH  14  15
TORSDOF 9
ENDMDL
MODEL 3
REMARK VINA RESULT:     -11.4      1.479      4.299
REMARK  Name = 
REMARK  9 active torsions:
REMARK  status: ('A' for Active; 'I' for Inactive)
REMARK    1  A    between atoms: O_2  and  C_3
REMARK    2  A    between atoms: C_6  and  C_7
REMARK    3  A    between atoms: C_7  and  N_8
REMARK    4  A    between atoms: N_8  and  C_9
REMARK    5  A    between atoms: C_14  and  C_15
REMARK    6  A    between atoms: C_15  and  C_16
REMARK    7  A    between atoms: C_16  and  C_17
REMARK    8  A    between atoms: N_19  and  C_20
REMARK    9  A    between atoms: C_20  and  C_21
REMARK                            x       y       z     vdW  Elec       q    Type
REMARK                         _______ _______ _______ _____ _____    ______ ____
ROOT
ATOM      9  C   UNL     1      -0.862   0.524  24.776  0.00  0.00    +0.091 C 
ATOM     10  C   UNL     1      -0.451  -0.152  25.011  0.00  0.00    +0.044 C 
ATOM     11  C   UNL     1      -0.967  -0.794  24.964  0.00  0.00    +0.138 C 
ATOM     12  N   UNL     1      -1.697  -0.515  24.700  0.00  0.00    -0.265 NA
ATOM     13  C   UNL     1      -1.632   0.299  24.583  0.00  0.00    +0.090 C 
ATOM     14  C   UNL     1      -2.326  -1.039  24.599  0.00  0.00    +0.080 C 
ATOM     28  C   UNL     1      -2.225  -1.842  24.763  0.00  0.00    +0.131 C 
ATOM     29  N   UNL     1      -1.496  -2.120  25.027  0.00  0.00    -0.203 NA
ATOM     30  C   UNL     1      -0.866  -1.596  25.128  0.00  0.00    +0.256 C 
ATOM     31  O   UNL     1      -0.136  -1.874  25.392  0.00  0.00    -0.272 OA
ENDROOT
BRANCH   9   8
ATOM      8  N   UNL     1      -0.557   1.289  24.739  0.00  0.00    -0.213 NA
BRANCH   8   7
ATOM      7  C   UNL     1      -0.598   1.782  25.400  0.00  0.00    +0.115 C 
BRANCH   7   6
ATOM      3  C   UNL     1      -0.917   4.219  25.106  0.00  0.00    +0.139 A 
ATOM      4  C   UNL     1      -0.432   3.801  24.586  0.00  0.00    +0.037 A 
ATOM      5  C   UNL     1      -0.326   2.988  24.684  0.00  0.00    +0.000 A 
ATOM      6  C   UNL     1      -0.704   2.594  25.301  0.00  0.00    -0.005 A 
ATOM     32  C   UNL     1      -1.189   3.012  25.822  0.00  0.00    +0.000 A 
ATOM     33  C   UNL     1      -1.296   3.824  25.725  0.00  0.00    +0.037 A 
BRANCH   3   2
ATOM      1  C   UNL     1      -1.767   5.368  25.135  0.00  0.00    +0.252 C 
ATOM      2  O   UNL     1      -1.024   5.031  25.009  0.00  0.00    -0.471 OA
ENDBRANCH   3   2
ENDBRANCH   7   6
ENDBRANCH   8   7
ENDBRANCH   9   8
BRANCH  14  15
ATOM     15  C   UNL     1      -3.056  -0.760  24.335  0.00  0.00    +0.027 C 
BRANCH  15  16
ATOM     16  C   UNL     1      -3.703  -0.748  24.848  0.00  0.00    +0.088 C 
BRANCH  16  17
ATOM     17  C   UNL     1      -4.365  -0.289  24.666  0.00  0.00    +0.242 C 
ATOM     18  O   UNL     1      -4.951  -0.588  24.171  0.00  0.00    -0.273 OA
ATOM     19  N   UNL     1      -4.438   0.470  24.981  0.00  0.00    -0.201 NA
BRANCH  19  20
ATOM     20  C   UNL     1      -5.100   0.928  24.800  0.00  0.00    +0.141 C 
BRANCH  20  21
ATOM     21  C   UNL     1      -5.119   1.726  25.011  0.00  0.00    -0.000 A 
ATOM     22  C   UNL     1      -5.554   1.968  25.669  0.00  0.00    -0.000 A 
ATOM     23  C   UNL     1      -5.573   2.766  25.880  0.00  0.00    +0.029 A 
ATOM     24  C   UNL     1      -5.157   3.321  25.433  0.00  0.00    +0.140 A 
ATOM     25  F   UNL     1      -5.177   4.118  25.645  0.00  0.00    -0.204 F 
ATOM     26  C   UNL     1      -4.723   3.078  24.775  0.00  0.00    +0.029 A 
ATOM     27  C   UNL     1      -4.703   2.282  24.564  0.00  0.00    -0.000 A 
ENDBRANCH  20  21
ENDBRANCH  19  20
ENDBRANCH  16  17
ENDBRANCH  15  16
ENDBRANCH  14  15
TORSDOF 9
ENDMDL
MODEL 4
REMARK VINA RESULT:     -11.3      1.946      4.056
REMARK  Name = 
REMARK  9 active torsions:
REMARK  status: ('A' for Active; 'I' for Inactive)
REMARK    1  A    between atoms: O_2  and  C_3
REMARK    2  A    between atoms: C_6  and  C_7
REMARK    3  A    between atoms: C_7  and  N_8
REMARK    4  A    between atoms: N_8  and  C_9
REMARK    5  A    between atoms: C_14  and  C_15
REMARK    6  A    between atoms: C_15  and  C_16
REMARK    7  A    between atoms: C_16  and  C_17
REMARK    8  A    between atoms: N_19  and  C_20
REMARK    9  A    between atoms: C_20  and  C_21
REMARK                            x       y       z     vdW  Elec       q    Type
REMARK                         _______ _______ _______ _____ _____    ______ ____
ROOT
ATOM      9  C   UNL     1      -4.625   1.210  24.859  0.00  0.00    +0.091 C 
ATOM     10  C   UNL     1      -5.368   1.411  25.157  0.00  0.00    +0.044 C 
ATOM     11  C   UNL     1      -5.354   2.212  25.356  0.00  0.00    +0.138 C 
ATOM     12  N   UNL     1      -4.603   2.505  25.179  0.00  0.00    -0.265 NA
ATOM     13  C   UNL     1      -4.153   1.885  24.872  0.00  0.00    +0.090 C 
ATOM     14  C   UNL     1      -4.427   3.298  25.322  0.00  0.00    +0.080 C 
ATOM     28  C   UNL     1      -5.001   3.798  25.640  0.00  0.00    +0.131 C 
ATOM     29  N   UNL     1      -5.751   3.505  25.815  0.00  0.00    -0.203 NA
ATOM     30  C   UNL     1      -5.928   2.711  25.674  0.00  0.00    +0.256 C 
ATOM     31  O   UNL     1      -6.679   2.418  25.849  0.00  0.00    -0.272 OA
ENDROOT
BRANCH   9   8
ATOM      8  N   UNL     1      -4.396   0.463  24.593  0.00  0.00    -0.213 NA
BRANCH   8   7
ATOM      7  C   UNL     1      -4.352  -0.168  25.123  0.00  0.00    +0.115 C 
BRANCH   7   6
ATOM      3  C   UNL     1      -3.049  -2.188  24.532  0.00  0.00    +0.139 A 
ATOM      4  C   UNL     1      -2.811  -1.714  25.165  0.00  0.00    +0.037 A 
ATOM      5  C   UNL     1      -3.246  -1.041  25.361  0.00  0.00    +0.000 A 
ATOM      6  C   UNL     1      -3.917  -0.841  24.926  0.00  0.00    -0.005 A 
ATOM     32  C   UNL     1      -4.155  -1.315  24.294  0.00  0.00    +0.000 A 
ATOM     33  C   UNL     1      -3.721  -1.988  24.096  0.00  0.00    +0.037 A 
BRANCH   3   2
ATOM      1  C   UNL     1      -1.794  -2.817  24.263  0.00  0.00    +0.252 C 
ATOM      2  O   UNL     1      -2.615  -2.861  24.335  0.00  0.00    -0.471 OA
ENDBRANCH   3   2
ENDBRANCH   7   6
ENDBRANCH   8   7
ENDBRANCH   9   8
BRANCH  14  15
ATOM     15  C   UNL     1      -3.676   3.591  25.145  0.00  0.00    +0.027 C 
BRANCH  15  16
ATOM     16  C   UNL     1      -3.252   4.009  25.718  0.00  0.00    +0.088 C 
BRANCH  16  17
ATOM     17  C   UNL     1      -2.455   4.185  25.593  0.00  0.00    +0.242 C 
ATOM     18  O   UNL     1      -2.209   4.970  25.551  0.00  0.00    -0.273 OA
ATOM     19  N   UNL     1      -1.906   3.575  25.511  0.00  0.00    -0.201 NA
BRANCH  19  20
ATOM     20  C   UNL     1      -1.110   3.752  25.387  0.00  0.00    +0.141 C 
BRANCH  20  21
ATOM     21  C   UNL     1      -0.592   3.163  25.129  0.00  0.00    -0.000 A 
ATOM     22  C   UNL     1      -0.385   3.117  24.332  0.00  0.00    -0.000 A 
ATOM     23  C   UNL     1       0.133   2.528  24.074  0.00  0.00    +0.029 A 
ATOM     24  C   UNL     1       0.442   1.985  24.613  0.00  0.00    +0.140 A 
ATOM     25  F   UNL     1       0.959   1.397  24.355  0.00  0.00    -0.204 F 
ATOM     26  C   UNL     1       0.234   2.032  25.410  0.00  0.00    +0.029 A 
ATOM     27  C   UNL     1      -0.283   2.620  25.668  0.00  0.00    -0.000 A 
ENDBRANCH  20  21
ENDBRANCH  19  20
ENDBRANCH  16  17
ENDBRANCH  15  16
ENDBRANCH  14  15
TORSDOF 9
ENDMDL
MODEL 5
REMARK VINA RESULT:     -11.2      1.473      4.161
REMARK  Name = 
REMARK  9 active torsions:
REMARK  status: ('A' for Active; 'I' for Inactive)
REMARK    1  A    between atoms: O_2  and  C_3
REMARK    2  A    between atoms: C_6  and  C_7
REMARK    3  A    between atoms: C_7  and  N_8
REMARK    4  A    between atoms: N_8  and  C_9
REMARK    5  A    between atoms: C_14  and  C_15
REMARK    6  A    between atoms: C_15  and  C_16
REMARK    7  A    between atoms: C_16  and  C_17
REMARK    8  A    between atoms: N_19  and  C_20
REMARK    9  A    between atoms: C_20  and  C_21
REMARK                            x       y       z     vdW  Elec       q    Type
REMARK                         _______ _______ _______ _____ _____    ______ ____
ROOT
ATOM      9  C   UNL     1      -2.138   2.839  24.986  0.00  0.00    +0.091 C 
ATOM     10  C   UNL     1      -1.531   3.271  24.630  0.00  0.00    +0.044 C 
ATOM     11  C   UNL     1      -0.872   2.779  24.566  0.00  0.00    +0.138 C 
ATOM     12  N   UNL     1      -1.072   2.043  24.883  0.00  0.00    -0.265 NA
ATOM     13  C   UNL     1      -1.855   2.081  25.142  0.00  0.00    +0.090 C 
ATOM     14  C   UNL     1      -0.515   1.434  24.894  0.00  0.00    +0.080 C 
ATOM     28  C   UNL     1       0.241   1.561  24.589  0.00  0.00    +0.131 C 
ATOM     29  N   UNL     1       0.440   2.295  24.273  0.00  0.00    -0.203 NA
ATOM     30  C   UNL     1      -0.116   2.905  24.262  0.00  0.00    +0.256 C 
ATOM     31  O   UNL     1       0.084   3.640  23.946  0.00  0.00    -0.272 OA
ENDROOT
BRANCH   9   8
ATOM      8  N   UNL     1      -2.896   3.119  25.155  0.00  0.00    -0.213 NA
BRANCH   8   7
ATOM      7  C   UNL     1      -3.512   2.989  24.622  0.00  0.00    +0.115 C 
BRANCH   7   6
ATOM      3  C   UNL     1      -5.771   2.424  25.461  0.00  0.00    +0.139 A 
ATOM      4  C   UNL     1      -5.401   1.934  24.910  0.00  0.00    +0.037 A 
ATOM      5  C   UNL     1      -4.648   2.123  24.631  0.00  0.00    +0.000 A 
ATOM      6  C   UNL     1      -4.265   2.800  24.901  0.00  0.00    -0.005 A 
ATOM     32  C   UNL     1      -4.635   3.291  25.452  0.00  0.00    +0.000 A 
ATOM     33  C   UNL     1      -5.388   3.103  25.732  0.00  0.00    +0.037 A 
BRANCH   3   2
ATOM      1  C   UNL     1      -6.609   1.772  26.418  0.00  0.00    +0.252 C 
ATOM      2  O   UNL     1      -6.524   2.236  25.741  0.00  0.00    -0.471 OA
ENDBRANCH   3   2
ENDBRANCH   7   6
ENDBRANCH   8   7
ENDBRANCH   9   8
BRANCH  14  15
ATOM     15  C   UNL     1      -0.716   0.699  25.210  0.00  0.00    +0.027 C 
BRANCH  15  16
ATOM     16  C   UNL     1      -0.618   0.015  24.758  0.00  0.00    +0.088 C 
BRANCH  16  17
ATOM     17  C   UNL     1      -0.969  -0.692  24.998  0.00  0.00    +0.242 C 
ATOM     18  O   UNL     1      -0.607  -1.158  25.573  0.00  0.00    -0.273 OA
ATOM     19  N   UNL     1      -1.683  -0.931  24.662  0.00  0.00    -0.201 NA
BRANCH  19  20
ATOM     20  C   UNL     1      -2.034  -1.638  24.902  0.00  0.00    +0.141 C 
BRANCH  20  21
ATOM     21  C   UNL     1      -2.766  -1.861  24.591  0.00  0.00    -0.000 A 
ATOM     22  C   UNL     1      -2.935  -2.659  24.467  0.00  0.00    -0.000 A 
ATOM     23  C   UNL     1      -3.667  -2.882  24.157  0.00  0.00    +0.029 A 
ATOM     24  C   UNL     1      -4.229  -2.307  23.971  0.00  0.00    +0.140 A 
ATOM     25  F   UNL     1      -4.960  -2.530  23.661  0.00  0.00    -0.204 F 
ATOM     26  C   UNL     1      -4.059  -1.509  24.096  0.00  0.00    +0.029 A 
ATOM     27  C   UNL     1      -3.328  -1.286  24.406  0.00  0.00    -0.000 A 
ENDBRANCH  20  21
ENDBRANCH  19  20
ENDBRANCH  16  17
ENDBRANCH  15  16
ENDBRANCH  14  15
TORSDOF 9
ENDMDL
MODEL 6
REMARK VINA RESULT:     -11.2      1.865      4.113
REMARK  Name = 
REMARK  9 active torsions:
REMARK  status: ('A' for Active; 'I' for Inactive)
REMARK    1  A    between atoms: O_2  and  C_3
REMARK    2  A    between atoms: C_6  and  C_7
REMARK    3  A    between atoms: C_7  and  N_8
REMARK    4  A    between atoms: N_8  and  C_9
REMARK    5  A    between atoms: C_14  and  C_15
REMARK    6  A    between atoms: C_15  and  C_16
REMARK    7  A    between atoms: C_16  and  C_17
REMARK    8  A    between atoms: N_19  and  C_20
REMARK    9  A    between atoms: C_20  and  C_21
REMARK                            x       y       z     vdW  Elec       q    Type
REMARK                         _______ _______ _______ _____ _____    ______ ____
ROOT
ATOM      9  C   UNL     1      -1.257   2.721  24.412  0.00  0.00    +0.091 C 
ATOM     10  C   UNL     1      -1.235   3.446  24.806  0.00  0.00    +0.044 C 
ATOM     11  C   UNL     1      -2.007   3.647  25.015  0.00  0.00    +0.138 C 
ATOM     12  N   UNL     1      -2.507   3.046  24.749  0.00  0.00    -0.265 NA
ATOM     13  C   UNL     1      -2.043   2.474  24.377  0.00  0.00    +0.090 C 
ATOM     14  C   UNL     1      -3.320   3.098  24.882  0.00  0.00    +0.080 C 
ATOM     28  C   UNL     1      -3.633   3.750  25.279  0.00  0.00    +0.131 C 
ATOM     29  N   UNL     1      -3.133   4.349  25.544  0.00  0.00    -0.203 NA
ATOM     30  C   UNL     1      -2.320   4.298  25.413  0.00  0.00    +0.256 C 
ATOM     31  O   UNL     1      -1.820   4.898  25.678  0.00  0.00    -0.272 OA
ENDROOT
BRANCH   9   8
ATOM      8  N   UNL     1      -0.607   2.316  24.106  0.00  0.00    -0.213 NA
BRANCH   8   7
ATOM      7  C   UNL     1      -0.427   1.558  24.379  0.00  0.00    +0.115 C 
BRANCH   7   6
ATOM      3  C   UNL     1       1.216   0.165  23.161  0.00  0.00    +0.139 A 
ATOM      4  C   UNL     1       0.447  -0.111  23.278  0.00  0.00    +0.037 A 
ATOM      5  C   UNL     1      -0.100   0.354  23.684  0.00  0.00    +0.000 A 
ATOM      6  C   UNL     1       0.120   1.093  23.973  0.00  0.00    -0.005 A 
ATOM     32  C   UNL     1       0.889   1.370  23.856  0.00  0.00    +0.000 A 
ATOM     33  C   UNL     1       1.437   0.906  23.451  0.00  0.00    +0.037 A 
BRANCH   3   2
ATOM      1  C   UNL     1       2.395   0.057  22.360  0.00  0.00    +0.252 C 
ATOM      2  O   UNL     1       1.764  -0.299  22.755  0.00  0.00    -0.471 OA
ENDBRANCH   3   2
ENDBRANCH   7   6
ENDBRANCH   8   7
ENDBRANCH   9   8
BRANCH  14  15
ATOM     15  C   UNL     1      -3.819   2.497  24.616  0.00  0.00    +0.027 C 
BRANCH  15  16
ATOM     16  C   UNL     1      -4.310   2.103  25.150  0.00  0.00    +0.088 C 
BRANCH  16  17
ATOM     17  C   UNL     1      -4.678   1.398  24.929  0.00  0.00    +0.242 C 
ATOM     18  O   UNL     1      -5.446   1.410  24.630  0.00  0.00    -0.273 OA
ATOM     19  N   UNL     1      -4.276   0.682  25.007  0.00  0.00    -0.201 NA
BRANCH  19  20
ATOM     20  C   UNL     1      -4.645  -0.023  24.786  0.00  0.00    +0.141 C 
BRANCH  20  21
ATOM     21  C   UNL     1      -4.216  -0.728  24.781  0.00  0.00    -0.000 A 
ATOM     22  C   UNL     1      -3.770  -0.944  25.440  0.00  0.00    -0.000 A 
ATOM     23  C   UNL     1      -3.341  -1.649  25.436  0.00  0.00    +0.029 A 
ATOM     24  C   UNL     1      -3.358  -2.138  24.771  0.00  0.00    +0.140 A 
ATOM     25  F   UNL     1      -2.930  -2.842  24.767  0.00  0.00    -0.204 F 
ATOM     26  C   UNL     1      -3.805  -1.921  24.112  0.00  0.00    +0.029 A 
ATOM     27  C   UNL     1      -4.233  -1.217  24.116  0.00  0.00    -0.000 A 
ENDBRANCH  20  21
ENDBRANCH  19  20
ENDBRANCH  16  17
ENDBRANCH  15  16
ENDBRANCH  14  15
TORSDOF 9
ENDMDL
MODEL 7
REMARK VINA RESULT:     -10.6      1.832      5.246
REMARK  Name = 
REMARK  9 active torsions:
REMARK  status: ('A' for Active; 'I' for Inactive)
REMARK    1  A    between atoms: O_2  and  C_3
REMARK    2  A    between atoms: C_6  and  C_7
REMARK    3  A    between atoms: C_7  and  N_8
REMARK    4  A    between atoms: N_8  and  C_9
REMARK    5  A    between atoms: C_14  and  C_15
REMARK    6  A    between atoms: C_15  and  C_16
REMARK    7  A    between atoms: C_16  and  C_17
REMARK    8  A    between atoms: N_19  and  C_20
REMARK    9  A    between atoms: C_20  and  C_21
REMARK                            x       y       z     vdW  Elec       q    Type
REMARK                         _______ _______ _______ _____ _____    ______ ____
ROOT
ATOM      9  C   UNL     1      -3.369   3.259  25.001  0.00  0.00    +0.091 C 
ATOM     10  C   UNL     1      -4.004   3.683  25.315  0.00  0.00    +0.044 C 
ATOM     11  C   UNL     1      -4.662   3.185  25.325  0.00  0.00    +0.138 C 
ATOM     12  N   UNL     1      -4.433   2.453  25.017  0.00  0.00    -0.265 NA
ATOM     13  C   UNL     1      -3.634   2.500  24.817  0.00  0.00    +0.090 C 
ATOM     14  C   UNL     1      -4.982   1.841  24.959  0.00  0.00    +0.080 C 
ATOM     28  C   UNL     1      -5.760   1.958  25.209  0.00  0.00    +0.131 C 
ATOM     29  N   UNL     1      -5.988   2.688  25.516  0.00  0.00    -0.203 NA
ATOM     30  C   UNL     1      -5.440   3.302  25.574  0.00  0.00    +0.256 C 
ATOM     31  O   UNL     1      -5.668   4.032  25.881  0.00  0.00    -0.272 OA
ENDROOT
BRANCH   9   8
ATOM      8  N   UNL     1      -2.603   3.546  24.891  0.00  0.00    -0.213 NA
BRANCH   8   7
ATOM      7  C   UNL     1      -2.027   3.416  25.466  0.00  0.00    +0.115 C 
BRANCH   7   6
ATOM      3  C   UNL     1       0.158   2.442  24.830  0.00  0.00    +0.139 A 
ATOM      4  C   UNL     1      -0.255   2.913  24.293  0.00  0.00    +0.037 A 
ATOM      5  C   UNL     1      -0.983   3.238  24.506  0.00  0.00    +0.000 A 
ATOM      6  C   UNL     1      -1.298   3.091  25.253  0.00  0.00    -0.005 A 
ATOM     32  C   UNL     1      -0.885   2.620  25.790  0.00  0.00    +0.000 A 
ATOM     33  C   UNL     1      -0.157   2.295  25.579  0.00  0.00    +0.037 A 
BRANCH   3   2
ATOM      1  C   UNL     1       0.924   1.528  24.042  0.00  0.00    +0.252 C 
ATOM      2  O   UNL     1       0.886   2.117  24.618  0.00  0.00    -0.471 OA
ENDBRANCH   3   2
ENDBRANCH   7   6
ENDBRANCH   8   7
ENDBRANCH   9   8
BRANCH  14  15
ATOM     15  C   UNL     1      -4.753   1.111  24.652  0.00  0.00    +0.027 C 
BRANCH  15  16
ATOM     16  C   UNL     1      -4.768   0.438  25.131  0.00  0.00    +0.088 C 
BRANCH  16  17
ATOM     17  C   UNL     1      -4.393  -0.254  24.883  0.00  0.00    +0.242 C 
ATOM     18  O   UNL     1      -4.751  -0.738  24.320  0.00  0.00    -0.273 OA
ATOM     19  N   UNL     1      -3.659  -0.461  25.199  0.00  0.00    -0.201 NA
BRANCH  19  20
ATOM     20  C   UNL     1      -3.285  -1.153  24.950  0.00  0.00    +0.141 C 
BRANCH  20  21
ATOM     21  C   UNL     1      -2.472  -1.244  25.061  0.00  0.00    -0.000 A 
ATOM     22  C   UNL     1      -2.109  -0.925  25.730  0.00  0.00    -0.000 A 
ATOM     23  C   UNL     1      -1.296  -1.017  25.841  0.00  0.00    +0.029 A 
ATOM     24  C   UNL     1      -0.847  -1.426  25.283  0.00  0.00    +0.140 A 
ATOM     25  F   UNL     1      -0.035  -1.517  25.394  0.00  0.00    -0.204 F 
ATOM     26  C   UNL     1      -1.211  -1.744  24.614  0.00  0.00    +0.029 A 
ATOM     27  C   UNL     1      -2.023  -1.653  24.503  0.00  0.00    -0.000 A 
ENDBRANCH  20  21
ENDBRANCH  19  20
ENDBRANCH  16  17
ENDBRANCH  15  16
ENDBRANCH  14  15
TORSDOF 9
ENDMDL
