MODEL 1
REMARK VINA RESULT:     -10.9      0.000      0.000
REMARK  Name = 
REMARK  6 active torsions:
REMARK  status: ('A' for Active; 'I' for Inactive)
REMARK    1  A    between atoms: C_2  and  C_4
REMARK    2  A    between atoms: C_6  and  C_7
REMARK    3  A    between atoms: C_7  and  C_8
REMARK    4  A    between atoms: C_11  and  C_13
REMARK    5  A    between atoms: C_23  and  C_24
REMARK    6  A    between atoms: C_24  and  N_25
REMARK                            x       y       z     vdW  Elec       q    Type
REMARK                         _______ _______ _______ _____ _____    ______ ____
ROOT
ATOM      4  C   UNL     1      -0.845   2.465  25.101  0.00  0.00    +0.006 C 
ATOM      5  C   UNL     1      -0.525   1.808  24.719  0.00  0.00    +0.005 C 
ATOM      6  C   UNL     1      -0.877   1.519  24.030  0.00  0.00    +0.027 C 
ATOM     20  C   UNL     1      -1.549   1.888  23.725  0.00  0.00    -0.048 C 
ATOM     21  C   UNL     1      -1.901   1.599  23.037  0.00  0.00    +0.026 C 
ATOM     22  C   UNL     1      -1.868   2.546  24.108  0.00  0.00    -0.034 C 
ATOM     23  C   UNL     1      -1.516   2.834  24.795  0.00  0.00    +0.037 C 
ENDROOT
BRANCH   4   2
ATOM      1  C   UNL     1      -0.051   3.451  25.764  0.00  0.00    +0.000 C 
ATOM      2  C   UNL     1      -0.492   2.753  25.788  0.00  0.00    +0.000 C 
ATOM      3  C   UNL     1      -0.579   2.345  26.499  0.00  0.00    +0.000 C 
ENDBRANCH   4   2
BRANCH   6   7
ATOM      7  C   UNL     1      -0.558   0.862  23.648  0.00  0.00    +0.091 C 
BRANCH   7   8
ATOM      8  C   UNL     1      -0.683   0.106  23.952  0.00  0.00    +0.227 A 
ATOM      9  N   UNL     1      -0.102  -0.402  24.245  0.00  0.00    -0.111 NA
ATOM     10  N   UNL     1      -0.473  -1.097  24.491  0.00  0.00    -0.107 NA
ATOM     11  C   UNL     1      -1.282  -1.019  24.351  0.00  0.00    +0.250 A 
ATOM     12  O   UNL     1      -1.412  -0.275  24.018  0.00  0.00    -0.420 OA
BRANCH  11  13
ATOM     13  C   UNL     1      -1.859  -1.585  24.514  0.00  0.00    +0.055 A 
ATOM     14  C   UNL     1      -2.516  -1.384  24.971  0.00  0.00    +0.004 A 
ATOM     15  C   UNL     1      -3.094  -1.949  25.135  0.00  0.00    -0.004 A 
ATOM     16  C   UNL     1      -3.015  -2.716  24.841  0.00  0.00    -0.022 A 
ATOM     17  C   UNL     1      -3.594  -3.281  25.005  0.00  0.00    +0.031 C 
ATOM     18  C   UNL     1      -2.360  -2.918  24.384  0.00  0.00    -0.004 A 
ATOM     19  C   UNL     1      -1.781  -2.351  24.220  0.00  0.00    +0.004 A 
ENDBRANCH  11  13
ENDBRANCH   7   8
ENDBRANCH   6   7
BRANCH  23  24
ATOM     24  C   UNL     1      -1.835   3.491  25.177  0.00  0.00    +0.076 C 
BRANCH  24  25
ATOM     25  N   UNL     1      -2.655   3.579  25.232  0.00  0.00    -0.269 NA
ATOM     26  C   UNL     1      -3.097   3.050  25.686  0.00  0.00    +0.094 C 
ATOM     27  C   UNL     1      -3.915   3.138  25.741  0.00  0.00    +0.111 C 
ATOM     28  N   UNL     1      -4.292   3.755  25.342  0.00  0.00    -0.277 N 
ATOM     29  C   UNL     1      -3.849   4.284  24.889  0.00  0.00    +0.111 C 
ATOM     30  C   UNL     1      -3.031   4.196  24.834  0.00  0.00    +0.094 C 
ATOM     31  C   UNL     1      -5.109   3.843  25.397  0.00  0.00    +0.226 C 
ATOM     32  C   UNL     1      -5.552   3.314  25.850  0.00  0.00    +0.095 C 
ATOM     33  O   UNL     1      -5.486   4.460  24.999  0.00  0.00    -0.275 OA
ENDBRANCH  24  25
ENDBRANCH  23  24
TORSDOF 6
ENDMDL
MODEL 2
REMARK VINA RESULT:     -10.9      0.818      1.739
REMARK  Name = 
REMARK  6 active torsions:
REMARK  status: ('A' for Active; 'I' for Inactive)
REMARK    1  A    between atoms: C_2  and  C_4
REMARK    2  A    between atoms: C_6  and  C_7
REMARK    3  A    between atoms: C_7  and  C_8
REMARK    4  A    between atoms: C_11  and  C_13
REMARK    5  A    between atoms: C_23  and  C_24
REMARK    6  A    between atoms: C_24  and  N_25
REMARK                            x       y       z     vdW  Elec       q    Type
REMARK                         _______ _______ _______ _____ _____    ______ ____
ROOT
ATOM      4  C   UNL     1      -2.153   1.938  23.357  0.00  0.00    +0.006 C 
ATOM      5  C   UNL     1      -1.536   1.445  23.593  0.00  0.00    +0.005 C 
ATOM      6  C   UNL     1      -1.242   1.492  24.364  0.00  0.00    +0.027 C 
ATOM     20  C   UNL     1      -1.566   2.032  24.896  0.00  0.00    -0.048 C 
ATOM     21  C   UNL     1      -1.273   2.078  25.665  0.00  0.00    +0.026 C 
ATOM     22  C   UNL     1      -2.184   2.525  24.659  0.00  0.00    -0.034 C 
ATOM     23  C   UNL     1      -2.477   2.479  23.890  0.00  0.00    +0.037 C 
ENDROOT
BRANCH   4   2
ATOM      1  C   UNL     1      -2.961   1.280  22.379  0.00  0.00    +0.000 C 
ATOM      2  C   UNL     1      -2.446   1.891  22.587  0.00  0.00    +0.000 C 
ATOM      3  C   UNL     1      -2.225   2.453  22.027  0.00  0.00    +0.000 C 
ENDBRANCH   4   2
BRANCH   6   7
ATOM      7  C   UNL     1      -0.625   0.998  24.600  0.00  0.00    +0.091 C 
BRANCH   7   8
ATOM      8  C   UNL     1      -0.732   0.181  24.612  0.00  0.00    +0.227 A 
ATOM      9  N   UNL     1      -0.134  -0.387  24.571  0.00  0.00    -0.111 NA
ATOM     10  N   UNL     1      -0.488  -1.132  24.601  0.00  0.00    -0.107 NA
ATOM     11  C   UNL     1      -1.304  -1.024  24.660  0.00  0.00    +0.250 A 
ATOM     12  O   UNL     1      -1.454  -0.213  24.667  0.00  0.00    -0.420 OA
BRANCH  11  13
ATOM     13  C   UNL     1      -1.870  -1.623  24.705  0.00  0.00    +0.055 A 
ATOM     14  C   UNL     1      -2.553  -1.511  25.153  0.00  0.00    +0.004 A 
ATOM     15  C   UNL     1      -3.120  -2.109  25.199  0.00  0.00    -0.004 A 
ATOM     16  C   UNL     1      -3.002  -2.819  24.795  0.00  0.00    -0.022 A 
ATOM     17  C   UNL     1      -3.569  -3.418  24.840  0.00  0.00    +0.031 C 
ATOM     18  C   UNL     1      -2.319  -2.932  24.347  0.00  0.00    -0.004 A 
ATOM     19  C   UNL     1      -1.753  -2.332  24.302  0.00  0.00    +0.004 A 
ENDBRANCH  11  13
ENDBRANCH   7   8
ENDBRANCH   6   7
BRANCH  23  24
ATOM     24  C   UNL     1      -3.094   2.971  23.653  0.00  0.00    +0.076 C 
BRANCH  24  25
ATOM     25  N   UNL     1      -3.731   3.109  24.161  0.00  0.00    -0.269 NA
ATOM     26  C   UNL     1      -4.274   2.506  24.313  0.00  0.00    +0.094 C 
ATOM     27  C   UNL     1      -4.910   2.643  24.820  0.00  0.00    +0.111 C 
ATOM     28  N   UNL     1      -5.003   3.383  25.175  0.00  0.00    -0.277 N 
ATOM     29  C   UNL     1      -4.460   3.985  25.022  0.00  0.00    +0.111 C 
ATOM     30  C   UNL     1      -3.824   3.847  24.515  0.00  0.00    +0.094 C 
ATOM     31  C   UNL     1      -5.638   3.520  25.681  0.00  0.00    +0.226 C 
ATOM     32  C   UNL     1      -6.182   2.918  25.834  0.00  0.00    +0.095 C 
ATOM     33  O   UNL     1      -5.732   4.259  26.036  0.00  0.00    -0.275 OA
ENDBRANCH  24  25
ENDBRANCH  23  24
TORSDOF 6
ENDMDL
MODEL 3
REMARK VINA RESULT:     -10.8      1.897      5.128
REMARK  Name = 
REMARK  6 active torsions:
REMARK  status: ('A' for Active; 'I' for Inactive)
REMARK    1  A    between atoms: C_2  and  C_4
REMARK    2  A    between atoms: C_6  and  C_7
REMARK    3  A    between atoms: C_7  and  C_8
REMARK    4  A    between atoms: C_11  and  C_13
REMARK    5  A    between atoms: C_23  and  C_24
REMARK    6  A    between atoms: C_24  and  N_25
REMARK                            x       y       z     vdW  Elec       q    Type
REMARK                         _______ _______ _______ _____ _____    ______ ____
ROOT
ATOM      4  C   UNL     1      -4.791   1.660  24.701  0.00  0.00    +0.006 C 
ATOM      5  C   UNL     1      -4.388   2.350  24.497  0.00  0.00    +0.005 C 
ATOM      6  C   UNL     1      -3.754   2.317  23.970  0.00  0.00    +0.027 C 
ATOM     20  C   UNL     1      -3.524   1.594  23.647  0.00  0.00    -0.048 C 
ATOM     21  C   UNL     1      -2.890   1.561  23.120  0.00  0.00    +0.026 C 
ATOM     22  C   UNL     1      -3.927   0.904  23.851  0.00  0.00    -0.034 C 
ATOM     23  C   UNL     1      -4.561   0.937  24.378  0.00  0.00    +0.037 C 
ENDROOT
BRANCH   4   2
ATOM      1  C   UNL     1      -6.199   1.695  24.942  0.00  0.00    +0.000 C 
ATOM      2  C   UNL     1      -5.424   1.694  25.228  0.00  0.00    +0.000 C 
ATOM      3  C   UNL     1      -5.284   1.727  26.040  0.00  0.00    +0.000 C 
ENDBRANCH   4   2
BRANCH   6   7
ATOM      7  C   UNL     1      -3.351   3.007  23.766  0.00  0.00    +0.091 C 
BRANCH   7   8
ATOM      8  C   UNL     1      -2.781   3.317  24.274  0.00  0.00    +0.227 A 
ATOM      9  N   UNL     1      -2.711   4.108  24.500  0.00  0.00    -0.111 NA
ATOM     10  N   UNL     1      -2.066   4.171  25.011  0.00  0.00    -0.107 NA
ATOM     11  C   UNL     1      -1.738   3.420  25.101  0.00  0.00    +0.250 A 
ATOM     12  O   UNL     1      -2.179   2.892  24.645  0.00  0.00    -0.420 OA
BRANCH  11  13
ATOM     13  C   UNL     1      -1.083   3.229  25.565  0.00  0.00    +0.055 A 
ATOM     14  C   UNL     1      -1.189   2.875  26.303  0.00  0.00    +0.004 A 
ATOM     15  C   UNL     1      -0.535   2.684  26.768  0.00  0.00    -0.004 A 
ATOM     16  C   UNL     1       0.227   2.847  26.493  0.00  0.00    -0.022 A 
ATOM     17  C   UNL     1       0.882   2.656  26.958  0.00  0.00    +0.031 C 
ATOM     18  C   UNL     1       0.334   3.200  25.756  0.00  0.00    -0.004 A 
ATOM     19  C   UNL     1      -0.322   3.391  25.292  0.00  0.00    +0.004 A 
ENDBRANCH  11  13
ENDBRANCH   7   8
ENDBRANCH   6   7
BRANCH  23  24
ATOM     24  C   UNL     1      -4.964   0.247  24.582  0.00  0.00    +0.076 C 
BRANCH  24  25
ATOM     25  N   UNL     1      -4.567  -0.477  24.585  0.00  0.00    -0.269 NA
ATOM     26  C   UNL     1      -4.080  -0.678  25.220  0.00  0.00    +0.094 C 
ATOM     27  C   UNL     1      -3.684  -1.402  25.223  0.00  0.00    +0.111 C 
ATOM     28  N   UNL     1      -3.775  -1.925  24.590  0.00  0.00    -0.277 N 
ATOM     29  C   UNL     1      -4.263  -1.723  23.956  0.00  0.00    +0.111 C 
ATOM     30  C   UNL     1      -4.659  -0.999  23.953  0.00  0.00    +0.094 C 
ATOM     31  C   UNL     1      -3.380  -2.648  24.593  0.00  0.00    +0.226 C 
ATOM     32  C   UNL     1      -2.892  -2.849  25.228  0.00  0.00    +0.095 C 
ATOM     33  O   UNL     1      -3.471  -3.171  23.962  0.00  0.00    -0.275 OA
ENDBRANCH  24  25
ENDBRANCH  23  24
TORSDOF 6
ENDMDL
MODEL 4
REMARK VINA RESULT:     -10.7      1.857      5.673
REMARK  Name = 
REMARK  6 active torsions:
REMARK  status: ('A' for Active; 'I' for Inactive)
REMARK    1  A    between atoms: C_2  and  C_4
REMARK    2  A    between atoms: C_6  and  C_7
REMARK    3  A    between atoms: C_7  and  C_8
REMARK    4  A    between atoms: C_11  and  C_13
REMARK    5  A    between atoms: C_23  and  C_24
REMARK    6  A    between atoms: C_24  and  N_25
REMARK                            x       y       z     vdW  Elec       q    Type
REMARK                         _______ _______ _______ _____ _____    ______ ____
ROOT
ATOM      4  C   UNL     1      -3.436   1.448  23.652  0.00  0.00    +0.006 C 
ATOM      5  C   UNL     1      -3.697   2.116  24.057  0.00  0.00    +0.005 C 
ATOM      6  C   UNL     1      -4.255   2.040  24.661  0.00  0.00    +0.027 C 
ATOM     20  C   UNL     1      -4.551   1.295  24.858  0.00  0.00    -0.048 C 
ATOM     21  C   UNL     1      -5.108   1.220  25.461  0.00  0.00    +0.026 C 
ATOM     22  C   UNL     1      -4.288   0.627  24.452  0.00  0.00    -0.034 C 
ATOM     23  C   UNL     1      -3.731   0.703  23.849  0.00  0.00    +0.037 C 
ENDROOT
BRANCH   4   2
ATOM      1  C   UNL     1      -3.122   1.724  22.285  0.00  0.00    +0.000 C 
ATOM      2  C   UNL     1      -2.878   1.524  23.049  0.00  0.00    +0.000 C 
ATOM      3  C   UNL     1      -2.079   1.402  23.208  0.00  0.00    +0.000 C 
ENDBRANCH   4   2
BRANCH   6   7
ATOM      7  C   UNL     1      -4.517   2.709  25.067  0.00  0.00    +0.091 C 
BRANCH   7   8
ATOM      8  C   UNL     1      -3.972   3.245  25.374  0.00  0.00    +0.227 A 
ATOM      9  N   UNL     1      -3.991   3.579  26.129  0.00  0.00    -0.111 NA
ATOM     10  N   UNL     1      -3.342   4.082  26.202  0.00  0.00    -0.107 NA
ATOM     11  C   UNL     1      -2.921   4.060  25.493  0.00  0.00    +0.250 A 
ATOM     12  O   UNL     1      -3.310   3.543  24.981  0.00  0.00    -0.420 OA
BRANCH  11  13
ATOM     13  C   UNL     1      -2.232   4.481  25.324  0.00  0.00    +0.055 A 
ATOM     14  C   UNL     1      -1.501   4.098  25.334  0.00  0.00    +0.004 A 
ATOM     15  C   UNL     1      -0.811   4.518  25.166  0.00  0.00    -0.004 A 
ATOM     16  C   UNL     1      -0.853   5.323  24.987  0.00  0.00    -0.022 A 
ATOM     17  C   UNL     1      -0.163   5.744  24.818  0.00  0.00    +0.031 C 
ATOM     18  C   UNL     1      -1.583   5.707  24.976  0.00  0.00    -0.004 A 
ATOM     19  C   UNL     1      -2.273   5.285  25.145  0.00  0.00    +0.004 A 
ENDBRANCH  11  13
ENDBRANCH   7   8
ENDBRANCH   6   7
BRANCH  23  24
ATOM     24  C   UNL     1      -3.469   0.035  23.443  0.00  0.00    +0.076 C 
BRANCH  24  25
ATOM     25  N   UNL     1      -3.474  -0.703  23.815  0.00  0.00    -0.269 NA
ATOM     26  C   UNL     1      -2.904  -0.882  24.383  0.00  0.00    +0.094 C 
ATOM     27  C   UNL     1      -2.909  -1.618  24.755  0.00  0.00    +0.111 C 
ATOM     28  N   UNL     1      -3.485  -2.176  24.558  0.00  0.00    -0.277 N 
ATOM     29  C   UNL     1      -4.055  -1.996  23.989  0.00  0.00    +0.111 C 
ATOM     30  C   UNL     1      -4.050  -1.259  23.618  0.00  0.00    +0.094 C 
ATOM     31  C   UNL     1      -3.491  -2.912  24.928  0.00  0.00    +0.226 C 
ATOM     32  C   UNL     1      -2.920  -3.092  25.497  0.00  0.00    +0.095 C 
ATOM     33  O   UNL     1      -4.066  -3.469  24.732  0.00  0.00    -0.275 OA
ENDBRANCH  24  25
ENDBRANCH  23  24
TORSDOF 6
ENDMDL
MODEL 5
REMARK VINA RESULT:     -10.6      1.933      5.364
REMARK  Name = 
REMARK  6 active torsions:
REMARK  status: ('A' for Active; 'I' for Inactive)
REMARK    1  A    between atoms: C_2  and  C_4
REMARK    2  A    between atoms: C_6  and  C_7
REMARK    3  A    between atoms: C_7  and  C_8
REMARK    4  A    between atoms: C_11  and  C_13
REMARK    5  A    between atoms: C_23  and  C_24
REMARK    6  A    between atoms: C_24  and  N_25
REMARK                            x       y       z     vdW  Elec       q    Type
REMARK                         _______ _______ _______ _____ _____    ______ ____
ROOT
ATOM      4  C   UNL     1      -1.022   0.430  24.715  0.00  0.00    +0.006 C 
ATOM      5  C   UNL     1      -1.384   1.104  25.022  0.00  0.00    +0.005 C 
ATOM      6  C   UNL     1      -1.075   1.851  24.854  0.00  0.00    +0.027 C 
ATOM     20  C   UNL     1      -0.404   1.922  24.379  0.00  0.00    -0.048 C 
ATOM     21  C   UNL     1      -0.096   2.668  24.211  0.00  0.00    +0.026 C 
ATOM     22  C   UNL     1      -0.043   1.247  24.072  0.00  0.00    -0.034 C 
ATOM     23  C   UNL     1      -0.351   0.501  24.240  0.00  0.00    +0.037 C 
ENDROOT
BRANCH   4   2
ATOM      1  C   UNL     1      -1.088  -0.719  25.562  0.00  0.00    +0.000 C 
ATOM      2  C   UNL     1      -1.331  -0.316  24.884  0.00  0.00    +0.000 C 
ATOM      3  C   UNL     1      -1.882  -0.659  24.376  0.00  0.00    +0.000 C 
ENDBRANCH   4   2
BRANCH   6   7
ATOM      7  C   UNL     1      -1.437   2.525  25.161  0.00  0.00    +0.091 C 
BRANCH   7   8
ATOM      8  C   UNL     1      -2.213   2.707  24.954  0.00  0.00    +0.227 A 
ATOM      9  N   UNL     1      -2.447   3.248  24.376  0.00  0.00    -0.111 NA
ATOM     10  N   UNL     1      -3.272   3.256  24.353  0.00  0.00    -0.107 NA
ATOM     11  C   UNL     1      -3.548   2.720  24.916  0.00  0.00    +0.250 A 
ATOM     12  O   UNL     1      -2.893   2.381  25.288  0.00  0.00    -0.420 OA
BRANCH  11  13
ATOM     13  C   UNL     1      -4.339   2.552  25.080  0.00  0.00    +0.055 A 
ATOM     14  C   UNL     1      -4.706   1.906  24.722  0.00  0.00    +0.004 A 
ATOM     15  C   UNL     1      -5.497   1.737  24.885  0.00  0.00    -0.004 A 
ATOM     16  C   UNL     1      -5.921   2.216  25.407  0.00  0.00    -0.022 A 
ATOM     17  C   UNL     1      -6.712   2.048  25.571  0.00  0.00    +0.031 C 
ATOM     18  C   UNL     1      -5.555   2.862  25.766  0.00  0.00    -0.004 A 
ATOM     19  C   UNL     1      -4.763   3.030  25.602  0.00  0.00    +0.004 A 
ENDBRANCH  11  13
ENDBRANCH   7   8
ENDBRANCH   6   7
BRANCH  23  24
ATOM     24  C   UNL     1       0.010  -0.173  23.933  0.00  0.00    +0.076 C 
BRANCH  24  25
ATOM     25  N   UNL     1       0.690  -0.103  23.469  0.00  0.00    -0.269 NA
ATOM     26  C   UNL     1       1.415   0.065  23.825  0.00  0.00    +0.094 C 
ATOM     27  C   UNL     1       2.094   0.135  23.361  0.00  0.00    +0.111 C 
ATOM     28  N   UNL     1       2.048   0.038  22.543  0.00  0.00    -0.277 N 
ATOM     29  C   UNL     1       1.322  -0.130  22.189  0.00  0.00    +0.111 C 
ATOM     30  C   UNL     1       0.643  -0.200  22.652  0.00  0.00    +0.094 C 
ATOM     31  C   UNL     1       2.726   0.108  22.080  0.00  0.00    +0.226 C 
ATOM     32  C   UNL     1       3.452   0.276  22.434  0.00  0.00    +0.095 C 
ATOM     33  O   UNL     1       2.680   0.011  21.262  0.00  0.00    -0.275 OA
ENDBRANCH  24  25
ENDBRANCH  23  24
TORSDOF 6
ENDMDL
MODEL 6
REMARK VINA RESULT:     -10.5      1.128      4.752
REMARK  Name = 
REMARK  6 active torsions:
REMARK  status: ('A' for Active; 'I' for Inactive)
REMARK    1  A    between atoms: C_2  and  C_4
REMARK    2  A    between atoms: C_6  and  C_7
REMARK    3  A    between atoms: C_7  and  C_8
REMARK    4  A    between atoms: C_11  and  C_13
REMARK    5  A    between atoms: C_23  and  C_24
REMARK    6  A    between atoms: C_24  and  N_25
REMARK                            x       y       z     vdW  Elec       q    Type
REMARK                         _______ _______ _______ _____ _____    ______ ____
ROOT
ATOM      4  C   UNL     1      -0.948   2.123  24.761  0.00  0.00    +0.006 C 
ATOM      5  C   UNL     1      -1.456   2.709  24.480  0.00  0.00    +0.005 C 
ATOM      6  C   UNL     1      -1.922   2.565  23.814  0.00  0.00    +0.027 C 
ATOM     20  C   UNL     1      -1.880   1.836  23.430  0.00  0.00    -0.048 C 
ATOM     21  C   UNL     1      -2.346   1.693  22.765  0.00  0.00    +0.026 C 
ATOM     22  C   UNL     1      -1.372   1.251  23.713  0.00  0.00    -0.034 C 
ATOM     23  C   UNL     1      -0.906   1.394  24.377  0.00  0.00    +0.037 C 
ENDROOT
BRANCH   4   2
ATOM      1  C   UNL     1      -0.821   2.245  26.179  0.00  0.00    +0.000 C 
ATOM      2  C   UNL     1      -0.482   2.267  25.426  0.00  0.00    +0.000 C 
ATOM      3  C   UNL     1       0.320   2.433  25.340  0.00  0.00    +0.000 C 
ENDBRANCH   4   2
BRANCH   6   7
ATOM      7  C   UNL     1      -2.430   3.151  23.532  0.00  0.00    +0.091 C 
BRANCH   7   8
ATOM      8  C   UNL     1      -3.124   3.327  23.941  0.00  0.00    +0.227 A 
ATOM      9  N   UNL     1      -3.448   4.079  24.046  0.00  0.00    -0.111 NA
ATOM     10  N   UNL     1      -4.141   3.999  24.487  0.00  0.00    -0.107 NA
ATOM     11  C   UNL     1      -4.245   3.198  24.654  0.00  0.00    +0.250 A 
ATOM     12  O   UNL     1      -3.616   2.783  24.317  0.00  0.00    -0.420 OA
BRANCH  11  13
ATOM     13  C   UNL     1      -4.868   2.869  25.084  0.00  0.00    +0.055 A 
ATOM     14  C   UNL     1      -5.336   2.280  24.746  0.00  0.00    +0.004 A 
ATOM     15  C   UNL     1      -5.959   1.950  25.174  0.00  0.00    -0.004 A 
ATOM     16  C   UNL     1      -6.114   2.211  25.942  0.00  0.00    -0.022 A 
ATOM     17  C   UNL     1      -6.737   1.882  26.371  0.00  0.00    +0.031 C 
ATOM     18  C   UNL     1      -5.647   2.800  26.280  0.00  0.00    -0.004 A 
ATOM     19  C   UNL     1      -5.023   3.129  25.850  0.00  0.00    +0.004 A 
ENDBRANCH  11  13
ENDBRANCH   7   8
ENDBRANCH   6   7
BRANCH  23  24
ATOM     24  C   UNL     1      -0.398   0.809  24.659  0.00  0.00    +0.076 C 
BRANCH  24  25
ATOM     25  N   UNL     1      -0.626   0.016  24.630  0.00  0.00    -0.269 NA
ATOM     26  C   UNL     1      -1.188  -0.272  25.160  0.00  0.00    +0.094 C 
ATOM     27  C   UNL     1      -1.416  -1.064  25.131  0.00  0.00    +0.111 C 
ATOM     28  N   UNL     1      -1.080  -1.569  24.570  0.00  0.00    -0.277 N 
ATOM     29  C   UNL     1      -0.518  -1.281  24.040  0.00  0.00    +0.111 C 
ATOM     30  C   UNL     1      -0.291  -0.488  24.070  0.00  0.00    +0.094 C 
ATOM     31  C   UNL     1      -1.307  -2.361  24.541  0.00  0.00    +0.226 C 
ATOM     32  C   UNL     1      -1.870  -2.649  25.072  0.00  0.00    +0.095 C 
ATOM     33  O   UNL     1      -0.973  -2.866  23.981  0.00  0.00    -0.275 OA
ENDBRANCH  24  25
ENDBRANCH  23  24
TORSDOF 6
ENDMDL
MODEL 7
REMARK VINA RESULT:     -10.5      1.915      3.131
REMARK  Name = 
REMARK  6 active torsions:
REMARK  status: ('A' for Active; 'I' for Inactive)
REMARK    1  A    between atoms: C_2  and  C_4
REMARK    2  A    between atoms: C_6  and  C_7
REMARK    3  A    between atoms: C_7  and  C_8
REMARK    4  A    between atoms: C_11  and  C_13
REMARK    5  A    between atoms: C_23  and  C_24
REMARK    6  A    between atoms: C_24  and  N_25
REMARK                            x       y       z     vdW  Elec       q    Type
REMARK                         _______ _______ _______ _____ _____    ______ ____
ROOT
ATOM      4  C   UNL     1      -4.836   1.701  24.924  0.00  0.00    +0.006 C 
ATOM      5  C   UNL     1      -4.798   0.947  24.592  0.00  0.00    +0.005 C 
ATOM      6  C   UNL     1      -4.233   0.780  24.013  0.00  0.00    +0.027 C 
ATOM     20  C   UNL     1      -3.708   1.366  23.768  0.00  0.00    -0.048 C 
ATOM     21  C   UNL     1      -3.144   1.199  23.190  0.00  0.00    +0.026 C 
ATOM     22  C   UNL     1      -3.747   2.120  24.101  0.00  0.00    -0.034 C 
ATOM     23  C   UNL     1      -4.311   2.288  24.678  0.00  0.00    +0.037 C 
ENDROOT
BRANCH   4   2
ATOM      1  C   UNL     1      -6.107   2.241  25.293  0.00  0.00    +0.000 C 
ATOM      2  C   UNL     1      -5.401   1.868  25.502  0.00  0.00    +0.000 C 
ATOM      3  C   UNL     1      -5.260   1.663  26.287  0.00  0.00    +0.000 C 
ENDBRANCH   4   2
BRANCH   6   7
ATOM      7  C   UNL     1      -4.195   0.026  23.682  0.00  0.00    +0.091 C 
BRANCH   7   8
ATOM      8  C   UNL     1      -3.806  -0.582  24.080  0.00  0.00    +0.227 A 
ATOM      9  N   UNL     1      -4.165  -1.222  24.457  0.00  0.00    -0.111 NA
ATOM     10  N   UNL     1      -3.570  -1.693  24.783  0.00  0.00    -0.107 NA
ATOM     11  C   UNL     1      -2.844  -1.342  24.608  0.00  0.00    +0.250 A 
ATOM     12  O   UNL     1      -2.990  -0.656  24.174  0.00  0.00    -0.420 OA
BRANCH  11  13
ATOM     13  C   UNL     1      -2.102  -1.628  24.828  0.00  0.00    +0.055 A 
ATOM     14  C   UNL     1      -1.811  -2.323  24.492  0.00  0.00    +0.004 A 
ATOM     15  C   UNL     1      -1.069  -2.609  24.711  0.00  0.00    -0.004 A 
ATOM     16  C   UNL     1      -0.618  -2.200  25.268  0.00  0.00    -0.022 A 
ATOM     17  C   UNL     1       0.124  -2.486  25.488  0.00  0.00    +0.031 C 
ATOM     18  C   UNL     1      -0.908  -1.505  25.605  0.00  0.00    -0.004 A 
ATOM     19  C   UNL     1      -1.651  -1.219  25.384  0.00  0.00    +0.004 A 
ENDBRANCH  11  13
ENDBRANCH   7   8
ENDBRANCH   6   7
BRANCH  23  24
ATOM     24  C   UNL     1      -4.350   3.041  25.011  0.00  0.00    +0.076 C 
BRANCH  24  25
ATOM     25  N   UNL     1      -3.669   3.507  25.058  0.00  0.00    -0.269 NA
ATOM     26  C   UNL     1      -3.556   4.127  24.525  0.00  0.00    +0.094 C 
ATOM     27  C   UNL     1      -2.876   4.592  24.572  0.00  0.00    +0.111 C 
ATOM     28  N   UNL     1      -2.310   4.438  25.153  0.00  0.00    -0.277 N 
ATOM     29  C   UNL     1      -2.424   3.818  25.685  0.00  0.00    +0.111 C 
ATOM     30  C   UNL     1      -3.104   3.353  25.638  0.00  0.00    +0.094 C 
ATOM     31  C   UNL     1      -1.631   4.902  25.201  0.00  0.00    +0.226 C 
ATOM     32  C   UNL     1      -1.517   5.523  24.667  0.00  0.00    +0.095 C 
ATOM     33  O   UNL     1      -1.065   4.749  25.780  0.00  0.00    -0.275 OA
ENDBRANCH  24  25
ENDBRANCH  23  24
TORSDOF 6
ENDMDL
MODEL 8
REMARK VINA RESULT:     -10.1      2.246      5.015
REMARK  Name = 
REMARK  6 active torsions:
REMARK  status: ('A' for Active; 'I' for Inactive)
REMARK    1  A    between atoms: C_2  and  C_4
REMARK    2  A    between atoms: C_6  and  C_7
REMARK    3  A    between atoms: C_7  and  C_8
REMARK    4  A    between atoms: C_11  and  C_13
REMARK    5  A    between atoms: C_23  and  C_24
REMARK    6  A    between atoms: C_24  and  N_25
REMARK                            x       y       z     vdW  Elec       q    Type
REMARK                         _______ _______ _______ _____ _____    ______ ____
ROOT
ATOM      4  C   UNL     1      -1.232   2.531  24.652  0.00  0.00    +0.006 C 
ATOM      5  C   UNL     1      -1.903   2.892  24.337  0.00  0.00    +0.005 C 
ATOM      6  C   UNL     1      -2.232   2.609  23.634  0.00  0.00    +0.027 C 
ATOM     20  C   UNL     1      -1.889   1.966  23.248  0.00  0.00    -0.048 C 
ATOM     21  C   UNL     1      -2.217   1.683  22.547  0.00  0.00    +0.026 C 
ATOM     22  C   UNL     1      -1.218   1.605  23.565  0.00  0.00    -0.034 C 
ATOM     23  C   UNL     1      -0.889   1.888  24.267  0.00  0.00    +0.037 C 
ENDROOT
BRANCH   4   2
ATOM      1  C   UNL     1      -1.006   2.392  26.056  0.00  0.00    +0.000 C 
ATOM      2  C   UNL     1      -0.904   2.815  25.354  0.00  0.00    +0.000 C 
ATOM      3  C   UNL     1      -0.476   3.518  25.355  0.00  0.00    +0.000 C 
ENDBRANCH   4   2
BRANCH   6   7
ATOM      7  C   UNL     1      -2.903   2.970  23.319  0.00  0.00    +0.091 C 
BRANCH   7   8
ATOM      8  C   UNL     1      -3.553   3.126  23.801  0.00  0.00    +0.227 A 
ATOM      9  N   UNL     1      -3.893   3.867  23.932  0.00  0.00    -0.111 NA
ATOM     10  N   UNL     1      -4.528   3.768  24.449  0.00  0.00    -0.107 NA
ATOM     11  C   UNL     1      -4.580   2.967  24.638  0.00  0.00    +0.250 A 
ATOM     12  O   UNL     1      -3.977   2.570  24.237  0.00  0.00    -0.420 OA
BRANCH  11  13
ATOM     13  C   UNL     1      -5.137   2.622  25.140  0.00  0.00    +0.055 A 
ATOM     14  C   UNL     1      -5.271   2.940  25.889  0.00  0.00    +0.004 A 
ATOM     15  C   UNL     1      -5.827   2.596  26.392  0.00  0.00    -0.004 A 
ATOM     16  C   UNL     1      -6.251   1.932  26.143  0.00  0.00    -0.022 A 
ATOM     17  C   UNL     1      -6.808   1.588  26.646  0.00  0.00    +0.031 C 
ATOM     18  C   UNL     1      -6.118   1.613  25.395  0.00  0.00    -0.004 A 
ATOM     19  C   UNL     1      -5.560   1.959  24.893  0.00  0.00    +0.004 A 
ENDBRANCH  11  13
ENDBRANCH   7   8
ENDBRANCH   6   7
BRANCH  23  24
ATOM     24  C   UNL     1      -0.219   1.527  24.583  0.00  0.00    +0.076 C 
BRANCH  24  25
ATOM     25  N   UNL     1       0.308   1.128  24.087  0.00  0.00    -0.269 NA
ATOM     26  C   UNL     1       1.001   1.500  23.837  0.00  0.00    +0.094 C 
ATOM     27  C   UNL     1       1.527   1.102  23.342  0.00  0.00    +0.111 C 
ATOM     28  N   UNL     1       1.360   0.331  23.097  0.00  0.00    -0.277 N 
ATOM     29  C   UNL     1       0.667  -0.040  23.347  0.00  0.00    +0.111 C 
ATOM     30  C   UNL     1       0.141   0.359  23.842  0.00  0.00    +0.094 C 
ATOM     31  C   UNL     1       1.885  -0.067  22.602  0.00  0.00    +0.226 C 
ATOM     32  C   UNL     1       2.579   0.304  22.351  0.00  0.00    +0.095 C 
ATOM     33  O   UNL     1       1.718  -0.837  22.357  0.00  0.00    -0.275 OA
ENDBRANCH  24  25
ENDBRANCH  23  24
TORSDOF 6
ENDMDL
MODEL 9
REMARK VINA RESULT:     -10.1      1.890      3.566
REMARK  Name = 
REMARK  6 active torsions:
REMARK  status: ('A' for Active; 'I' for Inactive)
REMARK    1  A    between atoms: C_2  and  C_4
REMARK    2  A    between atoms: C_6  and  C_7
REMARK    3  A    between atoms: C_7  and  C_8
REMARK    4  A    between atoms: C_11  and  C_13
REMARK    5  A    between atoms: C_23  and  C_24
REMARK    6  A    between atoms: C_24  and  N_25
REMARK                            x       y       z     vdW  Elec       q    Type
REMARK                         _______ _______ _______ _____ _____    ______ ____
ROOT
ATOM      4  C   UNL     1      -3.128  -0.158  24.556  0.00  0.00    +0.006 C 
ATOM      5  C   UNL     1      -2.365  -0.359  24.796  0.00  0.00    +0.005 C 
ATOM      6  C   UNL     1      -1.857   0.224  25.086  0.00  0.00    +0.027 C 
ATOM     20  C   UNL     1      -2.112   1.007  25.134  0.00  0.00    -0.048 C 
ATOM     21  C   UNL     1      -1.605   1.589  25.423  0.00  0.00    +0.026 C 
ATOM     22  C   UNL     1      -2.876   1.207  24.893  0.00  0.00    -0.034 C 
ATOM     23  C   UNL     1      -3.383   0.625  24.605  0.00  0.00    +0.037 C 
ENDROOT
BRANCH   4   2
ATOM      1  C   UNL     1      -4.010  -1.258  24.791  0.00  0.00    +0.000 C 
ATOM      2  C   UNL     1      -3.635  -0.741  24.267  0.00  0.00    +0.000 C 
ATOM      3  C   UNL     1      -3.767  -0.808  23.457  0.00  0.00    +0.000 C 
ENDBRANCH   4   2
BRANCH   6   7
ATOM      7  C   UNL     1      -1.094   0.023  25.326  0.00  0.00    +0.091 C 
BRANCH   7   8
ATOM      8  C   UNL     1      -0.569  -0.319  24.790  0.00  0.00    +0.227 A 
ATOM      9  N   UNL     1      -0.483  -1.128  24.646  0.00  0.00    -0.111 NA
ATOM     10  N   UNL     1       0.101  -1.223  24.071  0.00  0.00    -0.107 NA
ATOM     11  C   UNL     1       0.376  -0.474  23.860  0.00  0.00    +0.250 A 
ATOM     12  O   UNL     1      -0.038   0.084  24.305  0.00  0.00    -0.420 OA
BRANCH  11  13
ATOM     13  C   UNL     1       0.962  -0.311  23.303  0.00  0.00    +0.055 A 
ATOM     14  C   UNL     1       0.823  -0.457  22.503  0.00  0.00    +0.004 A 
ATOM     15  C   UNL     1       1.409  -0.295  21.945  0.00  0.00    -0.004 A 
ATOM     16  C   UNL     1       2.134   0.014  22.189  0.00  0.00    -0.022 A 
ATOM     17  C   UNL     1       2.721   0.177  21.631  0.00  0.00    +0.031 C 
ATOM     18  C   UNL     1       2.274   0.161  22.988  0.00  0.00    -0.004 A 
ATOM     19  C   UNL     1       1.687  -0.002  23.546  0.00  0.00    +0.004 A 
ENDBRANCH  11  13
ENDBRANCH   7   8
ENDBRANCH   6   7
BRANCH  23  24
ATOM     24  C   UNL     1      -4.146   0.825  24.364  0.00  0.00    +0.076 C 
BRANCH  24  25
ATOM     25  N   UNL     1      -4.514   1.495  24.675  0.00  0.00    -0.269 NA
ATOM     26  C   UNL     1      -4.383   2.234  24.332  0.00  0.00    +0.094 C 
ATOM     27  C   UNL     1      -4.750   2.904  24.642  0.00  0.00    +0.111 C 
ATOM     28  N   UNL     1      -5.250   2.836  25.296  0.00  0.00    -0.277 N 
ATOM     29  C   UNL     1      -5.381   2.097  25.638  0.00  0.00    +0.111 C 
ATOM     30  C   UNL     1      -5.013   1.427  25.328  0.00  0.00    +0.094 C 
ATOM     31  C   UNL     1      -5.617   3.505  25.606  0.00  0.00    +0.226 C 
ATOM     32  C   UNL     1      -5.486   4.244  25.263  0.00  0.00    +0.095 C 
ATOM     33  O   UNL     1      -6.117   3.437  26.259  0.00  0.00    -0.275 OA
ENDBRANCH  24  25
ENDBRANCH  23  24
TORSDOF 6
ENDMDL
MODEL 10
REMARK VINA RESULT:     -10.1      1.934      4.110
REMARK  Name = 
REMARK  6 active torsions:
REMARK  status: ('A' for Active; 'I' for Inactive)
REMARK    1  A    between atoms: C_2  and  C_4
REMARK    2  A    between atoms: C_6  and  C_7
REMARK    3  A    between atoms: C_7  and  C_8
REMARK    4  A    between atoms: C_11  and  C_13
REMARK    5  A    between atoms: C_23  and  C_24
REMARK    6  A    between atoms: C_24  and  N_25
REMARK                            x       y       z     vdW  Elec       q    Type
REMARK                         _______ _______ _______ _____ _____    ______ ____
ROOT
ATOM      4  C   UNL     1      -1.251   2.018  25.003  0.00  0.00    +0.006 C 
ATOM      5  C   UNL     1      -2.066   1.977  24.885  0.00  0.00    +0.005 C 
ATOM      6  C   UNL     1      -2.369   1.913  24.119  0.00  0.00    +0.027 C 
ATOM     20  C   UNL     1      -1.857   1.890  23.473  0.00  0.00    -0.048 C 
ATOM     21  C   UNL     1      -2.160   1.826  22.709  0.00  0.00    +0.026 C 
ATOM     22  C   UNL     1      -1.041   1.932  23.593  0.00  0.00    -0.034 C 
ATOM     23  C   UNL     1      -0.738   1.996  24.357  0.00  0.00    +0.037 C 
ENDROOT
BRANCH   4   2
ATOM      1  C   UNL     1      -0.826   1.402  26.220  0.00  0.00    +0.000 C 
ATOM      2  C   UNL     1      -0.949   2.082  25.768  0.00  0.00    +0.000 C 
ATOM      3  C   UNL     1      -0.769   2.823  26.080  0.00  0.00    +0.000 C 
ENDBRANCH   4   2
BRANCH   6   7
ATOM      7  C   UNL     1      -3.184   1.871  24.002  0.00  0.00    +0.091 C 
BRANCH   7   8
ATOM      8  C   UNL     1      -3.600   1.197  24.229  0.00  0.00    +0.227 A 
ATOM      9  N   UNL     1      -4.339   1.184  24.598  0.00  0.00    -0.111 NA
ATOM     10  N   UNL     1      -4.546   0.395  24.724  0.00  0.00    -0.107 NA
ATOM     11  C   UNL     1      -3.937  -0.079  24.433  0.00  0.00    +0.250 A 
ATOM     12  O   UNL     1      -3.352   0.417  24.127  0.00  0.00    -0.420 OA
BRANCH  11  13
ATOM     13  C   UNL     1      -3.915  -0.903  24.446  0.00  0.00    +0.055 A 
ATOM     14  C   UNL     1      -4.247  -1.334  23.826  0.00  0.00    +0.004 A 
ATOM     15  C   UNL     1      -4.226  -2.159  23.837  0.00  0.00    -0.004 A 
ATOM     16  C   UNL     1      -3.872  -2.553  24.471  0.00  0.00    -0.022 A 
ATOM     17  C   UNL     1      -3.851  -3.378  24.483  0.00  0.00    +0.031 C 
ATOM     18  C   UNL     1      -3.541  -2.123  25.092  0.00  0.00    -0.004 A 
ATOM     19  C   UNL     1      -3.563  -1.297  25.079  0.00  0.00    +0.004 A 
ENDBRANCH  11  13
ENDBRANCH   7   8
ENDBRANCH   6   7
BRANCH  23  24
ATOM     24  C   UNL     1       0.076   2.037  24.475  0.00  0.00    +0.076 C 
BRANCH  24  25
ATOM     25  N   UNL     1       0.583   1.557  24.034  0.00  0.00    -0.269 NA
ATOM     26  C   UNL     1       1.267   1.877  23.701  0.00  0.00    +0.094 C 
ATOM     27  C   UNL     1       1.773   1.397  23.260  0.00  0.00    +0.111 C 
ATOM     28  N   UNL     1       1.595   0.598  23.151  0.00  0.00    -0.277 N 
ATOM     29  C   UNL     1       0.910   0.280  23.484  0.00  0.00    +0.111 C 
ATOM     30  C   UNL     1       0.405   0.760  23.925  0.00  0.00    +0.094 C 
ATOM     31  C   UNL     1       2.100   0.119  22.710  0.00  0.00    +0.226 C 
ATOM     32  C   UNL     1       2.785   0.438  22.377  0.00  0.00    +0.095 C 
ATOM     33  O   UNL     1       1.922  -0.679  22.602  0.00  0.00    -0.275 OA
ENDBRANCH  24  25
ENDBRANCH  23  24
TORSDOF 6
ENDMDL
