REMARK  Name = 
REMARK  6 active torsions:
REMARK  status: ('A' for Active; 'I' for Inactive)
REMARK    1  A    between atoms: C_2  and  C_3
REMARK    2  A    between atoms: C_6  and  C_7
REMARK    3  A    between atoms: C_7  and  N_8
REMARK    4  A    between atoms: C_12  and  C_13
REMARK    5  A    between atoms: C_15  and  C_18
REMARK    6  A    between atoms: C_21  and  N_24
REMARK                            x       y       z     vdW  Elec       q    Type
REMARK                         _______ _______ _______ _____ _____    ______ ____
ROOT
ATOM     13  C   UNL     1      -2.047  -3.270   0.000  0.00  0.00    +0.251 A 
ATOM     14  N   UNL     1      -2.715  -3.755   0.000  0.00  0.00    -0.190 NA
ATOM     15  C   UNL     1      -3.382  -3.270   0.000  0.00  0.00    +0.205 A 
ATOM     16  N   UNL     1      -3.127  -2.486   0.000  0.00  0.00    -0.056 NA
ATOM     17  O   UNL     1      -2.303  -2.486   0.000  0.00  0.00    -0.336 OA
ENDROOT
BRANCH  15  18
ATOM     18  C   UNL     1      -4.167  -3.525   0.000  0.00  0.00    +0.058 A 
ATOM     19  C   UNL     1      -4.338  -4.332   0.000  0.00  0.00    +0.008 A 
ATOM     20  C   UNL     1      -5.123  -4.587   0.000  0.00  0.00    +0.038 A 
ATOM     21  C   UNL     1      -5.736  -4.035   0.000  0.00  0.00    +0.149 A 
ATOM     22  N   UNL     1      -5.565  -3.228   0.000  0.00  0.00    -0.226 NA
ATOM     23  C   UNL     1      -4.780  -2.973   0.000  0.00  0.00    +0.104 A 
BRANCH  21  24
ATOM     24  N   UNL     1      -6.521  -4.290   0.000  0.00  0.00    -0.271 N 
ATOM     25  C   UNL     1      -6.776  -5.075   0.000  0.00  0.00    +0.104 A 
ATOM     26  C   UNL     1      -7.601  -5.075   0.000  0.00  0.00    +0.120 A 
ATOM     27  N   UNL     1      -7.856  -4.290   0.000  0.00  0.00    -0.222 NA
ATOM     28  C   UNL     1      -7.188  -3.805   0.000  0.00  0.00    +0.184 A 
ENDBRANCH  21  24
ENDBRANCH  15  18
BRANCH  13  12
ATOM      8  N   UNL     1      -0.596  -3.041   0.000  0.00  0.00    -0.263 NA
ATOM      9  C   UNL     1       0.072  -3.525   0.000  0.00  0.00    +0.073 C 
ATOM     10  C   UNL     1      -0.183  -4.310   0.000  0.00  0.00    +0.019 C 
ATOM     11  C   UNL     1      -1.008  -4.310   0.000  0.00  0.00    +0.027 C 
ATOM     12  C   UNL     1      -1.263  -3.525   0.000  0.00  0.00    +0.138 C 
BRANCH   8   7
ATOM      7  C   UNL     1      -0.596  -2.216   0.000  0.00  0.00    +0.099 C 
BRANCH   7   6
ATOM      3  C   UNL     1       1.548  -0.978   0.000  0.00  0.00    +0.068 A 
ATOM      4  C   UNL     1       1.548  -1.803   0.000  0.00  0.00    +0.010 A 
ATOM      5  C   UNL     1       0.834  -2.216   0.000  0.00  0.00    -0.002 A 
ATOM      6  C   UNL     1       0.119  -1.803   0.000  0.00  0.00    -0.006 A 
ATOM     29  C   UNL     1       0.119  -0.978   0.000  0.00  0.00    -0.002 A 
ATOM     30  C   UNL     1       0.834  -0.566   0.000  0.00  0.00    +0.010 A 
BRANCH   3   2
ATOM      1  N   UNL     1       2.977  -0.153   0.000  0.00  0.00    -0.191 NA
ATOM      2  C   UNL     1       2.262  -0.566   0.000  0.00  0.00    +0.100 C 
ENDBRANCH   3   2
ENDBRANCH   7   6
ENDBRANCH   8   7
ENDBRANCH  13  12
TORSDOF 6
