MODEL 1
REMARK VINA RESULT:      -9.6      0.000      0.000
REMARK  Name = 
REMARK  8 active torsions:
REMARK  status: ('A' for Active; 'I' for Inactive)
REMARK    1  A    between atoms: N_2  and  C_4
REMARK    2  A    between atoms: C_4  and  C_5
REMARK    3  A    between atoms: C_5  and  N_6
REMARK    4  A    between atoms: N_6  and  C_8
REMARK    5  A    between atoms: C_11  and  C_12
REMARK    6  A    between atoms: C_15  and  C_16
REMARK    7  A    between atoms: C_16  and  N_17
REMARK    8  A    between atoms: N_20  and  C_21
REMARK                            x       y       z     vdW  Elec       q    Type
REMARK                         _______ _______ _______ _____ _____    ______ ____
ROOT
ATOM      8  C   UNL     1      -3.688   2.941  24.599  0.00  0.00    +0.120 C 
ATOM      9  C   UNL     1      -4.156   3.551  24.899  0.00  0.00    +0.198 C 
ATOM     10  O   UNL     1      -3.986   4.357  24.855  0.00  0.00    -0.219 OA
ATOM     11  C   UNL     1      -4.821   3.214  25.250  0.00  0.00    +0.180 C 
ATOM     14  O   UNL     1      -4.766   2.395  25.168  0.00  0.00    -0.350 OA
ATOM     15  C   UNL     1      -4.066   2.226  24.766  0.00  0.00    +0.154 C 
ENDROOT
BRANCH   8   6
ATOM      6  N   UNL     1      -2.970   3.028  24.203  0.00  0.00    -0.267 NA
ATOM      7  C   UNL     1      -2.953   3.054  23.379  0.00  0.00    +0.090 C 
BRANCH   6   5
ATOM      5  C   UNL     1      -2.267   3.090  24.632  0.00  0.00    +0.090 C 
BRANCH   5   4
ATOM      4  C   UNL     1      -1.548   3.159  24.237  0.00  0.00    +0.090 C 
BRANCH   4   2
ATOM      1  C   UNL     1      -0.622   3.932  25.003  0.00  0.00    +0.090 C 
ATOM      2  N   UNL     1      -0.845   3.213  24.666  0.00  0.00    -0.269 NA
ATOM      3  C   UNL     1      -0.365   2.548  24.757  0.00  0.00    +0.090 C 
ENDBRANCH   4   2
ENDBRANCH   5   4
ENDBRANCH   6   5
ENDBRANCH   8   6
BRANCH  11  12
ATOM     12  C   UNL     1      -5.435   3.624  25.619  0.00  0.00    +0.214 C 
ATOM     13  O   UNL     1      -6.007   3.212  26.048  0.00  0.00    -0.218 OA
ENDBRANCH  11  12
BRANCH  15  16
ATOM     16  C   UNL     1      -3.791   1.474  24.565  0.00  0.00    +0.148 C 
BRANCH  16  17
ATOM     17  N   UNL     1      -4.056   0.813  24.982  0.00  0.00    -0.184 NA
ATOM     18  C   UNL     1      -3.880   0.056  24.708  0.00  0.00    +0.344 C 
ATOM     19  O   UNL     1      -3.439  -0.042  24.019  0.00  0.00    -0.249 OA
ATOM     20  N   UNL     1      -4.145  -0.606  25.126  0.00  0.00    -0.159 NA
BRANCH  20  21
ATOM     21  C   UNL     1      -3.968  -1.363  24.852  0.00  0.00    +0.102 A 
ATOM     22  C   UNL     1      -4.196  -1.590  24.091  0.00  0.00    +0.021 A 
ATOM     23  C   UNL     1      -4.020  -2.348  23.817  0.00  0.00    +0.031 A 
ATOM     24  C   UNL     1      -3.617  -2.878  24.302  0.00  0.00    +0.142 A 
ATOM     25  F   UNL     1      -3.440  -3.637  24.028  0.00  0.00    -0.204 F 
ATOM     26  C   UNL     1      -3.389  -2.652  25.062  0.00  0.00    +0.061 A 
ATOM     27  C   UNL     1      -3.565  -1.894  25.337  0.00  0.00    +0.158 A 
ATOM     28  F   UNL     1      -3.338  -1.668  26.097  0.00  0.00    -0.203 F 
ENDBRANCH  20  21
ENDBRANCH  16  17
ENDBRANCH  15  16
TORSDOF 8
ENDMDL
MODEL 2
REMARK VINA RESULT:      -9.3      2.317      4.778
REMARK  Name = 
REMARK  8 active torsions:
REMARK  status: ('A' for Active; 'I' for Inactive)
REMARK    1  A    between atoms: N_2  and  C_4
REMARK    2  A    between atoms: C_4  and  C_5
REMARK    3  A    between atoms: C_5  and  N_6
REMARK    4  A    between atoms: N_6  and  C_8
REMARK    5  A    between atoms: C_11  and  C_12
REMARK    6  A    between atoms: C_15  and  C_16
REMARK    7  A    between atoms: C_16  and  N_17
REMARK    8  A    between atoms: N_20  and  C_21
REMARK                            x       y       z     vdW  Elec       q    Type
REMARK                         _______ _______ _______ _____ _____    ______ ____
ROOT
ATOM      8  C   UNL     1      -2.241  -1.269  24.781  0.00  0.00    +0.120 C 
ATOM      9  C   UNL     1      -2.343  -2.069  24.606  0.00  0.00    +0.198 C 
ATOM     10  O   UNL     1      -1.744  -2.634  24.563  0.00  0.00    -0.219 OA
ATOM     11  C   UNL     1      -3.147  -2.203  24.483  0.00  0.00    +0.180 C 
ATOM     14  O   UNL     1      -3.543  -1.486  24.582  0.00  0.00    -0.350 OA
ATOM     15  C   UNL     1      -2.984  -0.909  24.766  0.00  0.00    +0.154 C 
ENDROOT
BRANCH   8   6
ATOM      6  N   UNL     1      -1.524  -0.894  24.943  0.00  0.00    -0.267 NA
ATOM      7  C   UNL     1      -1.235  -0.872  25.715  0.00  0.00    +0.090 C 
BRANCH   6   5
ATOM      5  C   UNL     1      -1.097  -0.541  24.332  0.00  0.00    +0.090 C 
BRANCH   5   4
ATOM      4  C   UNL     1      -0.360  -0.206  24.485  0.00  0.00    +0.090 C 
BRANCH   4   2
ATOM      1  C   UNL     1      -0.008   1.029  23.858  0.00  0.00    +0.090 C 
ATOM      2  N   UNL     1       0.038   0.206  23.890  0.00  0.00    -0.269 NA
ATOM      3  C   UNL     1       0.481  -0.205  23.329  0.00  0.00    +0.090 C 
ENDBRANCH   4   2
ENDBRANCH   5   4
ENDBRANCH   6   5
ENDBRANCH   8   6
BRANCH  11  12
ATOM     12  C   UNL     1      -3.495  -2.927  24.294  0.00  0.00    +0.214 C 
ATOM     13  O   UNL     1      -4.236  -2.947  23.933  0.00  0.00    -0.218 OA
ENDBRANCH  11  12
BRANCH  15  16
ATOM     16  C   UNL     1      -3.139  -0.111  24.910  0.00  0.00    +0.148 C 
BRANCH  16  17
ATOM     17  N   UNL     1      -3.910   0.176  24.851  0.00  0.00    -0.184 NA
ATOM     18  C   UNL     1      -4.066   0.973  24.999  0.00  0.00    +0.344 C 
ATOM     19  O   UNL     1      -3.451   1.481  25.204  0.00  0.00    -0.249 OA
ATOM     20  N   UNL     1      -4.838   1.260  24.940  0.00  0.00    -0.159 NA
BRANCH  20  21
ATOM     21  C   UNL     1      -4.993   2.056  25.088  0.00  0.00    +0.102 A 
ATOM     22  C   UNL     1      -4.545   2.640  24.712  0.00  0.00    +0.021 A 
ATOM     23  C   UNL     1      -4.700   3.436  24.860  0.00  0.00    +0.031 A 
ATOM     24  C   UNL     1      -5.301   3.650  25.381  0.00  0.00    +0.142 A 
ATOM     25  F   UNL     1      -5.456   4.448  25.529  0.00  0.00    -0.204 F 
ATOM     26  C   UNL     1      -5.749   3.067  25.756  0.00  0.00    +0.061 A 
ATOM     27  C   UNL     1      -5.594   2.270  25.609  0.00  0.00    +0.158 A 
ATOM     28  F   UNL     1      -6.041   1.687  25.984  0.00  0.00    -0.203 F 
ENDBRANCH  20  21
ENDBRANCH  16  17
ENDBRANCH  15  16
TORSDOF 8
ENDMDL
MODEL 3
REMARK VINA RESULT:      -9.2      1.591      2.740
REMARK  Name = 
REMARK  8 active torsions:
REMARK  status: ('A' for Active; 'I' for Inactive)
REMARK    1  A    between atoms: N_2  and  C_4
REMARK    2  A    between atoms: C_4  and  C_5
REMARK    3  A    between atoms: C_5  and  N_6
REMARK    4  A    between atoms: N_6  and  C_8
REMARK    5  A    between atoms: C_11  and  C_12
REMARK    6  A    between atoms: C_15  and  C_16
REMARK    7  A    between atoms: C_16  and  N_17
REMARK    8  A    between atoms: N_20  and  C_21
REMARK                            x       y       z     vdW  Elec       q    Type
REMARK                         _______ _______ _______ _____ _____    ______ ____
ROOT
ATOM      8  C   UNL     1      -2.388   2.821  24.935  0.00  0.00    +0.120 C 
ATOM      9  C   UNL     1      -1.827   3.346  25.237  0.00  0.00    +0.198 C 
ATOM     10  O   UNL     1      -1.910   4.164  25.293  0.00  0.00    -0.219 OA
ATOM     11  C   UNL     1      -1.169   2.907  25.472  0.00  0.00    +0.180 C 
ATOM     14  O   UNL     1      -1.323   2.112  25.316  0.00  0.00    -0.350 OA
ATOM     15  C   UNL     1      -2.076   2.058  24.985  0.00  0.00    +0.154 C 
ENDROOT
BRANCH   8   6
ATOM      6  N   UNL     1      -3.131   3.023  24.637  0.00  0.00    -0.267 NA
ATOM      7  C   UNL     1      -3.225   3.172  23.831  0.00  0.00    +0.090 C 
BRANCH   6   5
ATOM      5  C   UNL     1      -3.779   3.075  25.145  0.00  0.00    +0.090 C 
BRANCH   5   4
ATOM      4  C   UNL     1      -4.532   3.211  24.840  0.00  0.00    +0.090 C 
BRANCH   4   2
ATOM      1  C   UNL     1      -5.400   3.952  25.699  0.00  0.00    +0.090 C 
ATOM      2  N   UNL     1      -5.183   3.239  25.346  0.00  0.00    -0.269 NA
ATOM      3  C   UNL     1      -5.617   2.554  25.498  0.00  0.00    +0.090 C 
ENDBRANCH   4   2
ENDBRANCH   5   4
ENDBRANCH   6   5
ENDBRANCH   8   6
BRANCH  11  12
ATOM     12  C   UNL     1      -0.477   3.211  25.805  0.00  0.00    +0.214 C 
ATOM     13  O   UNL     1       0.095   2.699  26.105  0.00  0.00    -0.218 OA
ENDBRANCH  11  12
BRANCH  15  16
ATOM     16  C   UNL     1      -2.453   1.364  24.744  0.00  0.00    +0.148 C 
BRANCH  16  17
ATOM     17  N   UNL     1      -2.195   0.635  25.032  0.00  0.00    -0.184 NA
ATOM     18  C   UNL     1      -2.575  -0.058  24.796  0.00  0.00    +0.344 C 
ATOM     19  O   UNL     1      -3.212  -0.022  24.275  0.00  0.00    -0.249 OA
ATOM     20  N   UNL     1      -2.318  -0.788  25.084  0.00  0.00    -0.159 NA
BRANCH  20  21
ATOM     21  C   UNL     1      -2.698  -1.481  24.849  0.00  0.00    +0.102 A 
ATOM     22  C   UNL     1      -3.523  -1.519  24.849  0.00  0.00    +0.021 A 
ATOM     23  C   UNL     1      -3.904  -2.211  24.614  0.00  0.00    +0.031 A 
ATOM     24  C   UNL     1      -3.461  -2.865  24.378  0.00  0.00    +0.142 A 
ATOM     25  F   UNL     1      -3.842  -3.559  24.142  0.00  0.00    -0.204 F 
ATOM     26  C   UNL     1      -2.637  -2.828  24.377  0.00  0.00    +0.061 A 
ATOM     27  C   UNL     1      -2.256  -2.135  24.613  0.00  0.00    +0.158 A 
ATOM     28  F   UNL     1      -1.432  -2.097  24.612  0.00  0.00    -0.203 F 
ENDBRANCH  20  21
ENDBRANCH  16  17
ENDBRANCH  15  16
TORSDOF 8
ENDMDL
MODEL 4
REMARK VINA RESULT:      -8.4      2.530      5.355
REMARK  Name = 
REMARK  8 active torsions:
REMARK  status: ('A' for Active; 'I' for Inactive)
REMARK    1  A    between atoms: N_2  and  C_4
REMARK    2  A    between atoms: C_4  and  C_5
REMARK    3  A    between atoms: C_5  and  N_6
REMARK    4  A    between atoms: N_6  and  C_8
REMARK    5  A    between atoms: C_11  and  C_12
REMARK    6  A    between atoms: C_15  and  C_16
REMARK    7  A    between atoms: C_16  and  N_17
REMARK    8  A    between atoms: N_20  and  C_21
REMARK                            x       y       z     vdW  Elec       q    Type
REMARK                         _______ _______ _______ _____ _____    ______ ____
ROOT
ATOM      8  C   UNL     1      -1.282  -0.432  24.619  0.00  0.00    +0.120 C 
ATOM      9  C   UNL     1      -0.547  -0.549  24.262  0.00  0.00    +0.198 C 
ATOM     10  O   UNL     1      -0.138  -1.264  24.218  0.00  0.00    -0.219 OA
ATOM     11  C   UNL     1      -0.294   0.175  23.957  0.00  0.00    +0.180 C 
ATOM     14  O   UNL     1      -0.872   0.739  24.126  0.00  0.00    -0.350 OA
ATOM     15  C   UNL     1      -1.482   0.364  24.535  0.00  0.00    +0.154 C 
ENDROOT
BRANCH   8   6
ATOM      6  N   UNL     1      -1.736  -1.009  24.995  0.00  0.00    -0.267 NA
ATOM      7  C   UNL     1      -1.645  -1.146  25.803  0.00  0.00    +0.090 C 
BRANCH   6   5
ATOM      5  C   UNL     1      -2.283  -1.450  24.561  0.00  0.00    +0.090 C 
BRANCH   5   4
ATOM      4  C   UNL     1      -2.800  -1.961  24.949  0.00  0.00    +0.090 C 
BRANCH   4   2
ATOM      1  C   UNL     1      -3.981  -2.048  24.149  0.00  0.00    +0.090 C 
ATOM      2  N   UNL     1      -3.337  -2.412  24.515  0.00  0.00    -0.269 NA
ATOM      3  C   UNL     1      -3.231  -3.227  24.446  0.00  0.00    +0.090 C 
ENDBRANCH   4   2
ENDBRANCH   5   4
ENDBRANCH   6   5
ENDBRANCH   8   6
BRANCH  11  12
ATOM     12  C   UNL     1       0.414   0.310  23.554  0.00  0.00    +0.214 C 
ATOM     13  O   UNL     1       0.780   1.047  23.602  0.00  0.00    -0.218 OA
ENDBRANCH  11  12
BRANCH  15  16
ATOM     16  C   UNL     1      -2.173   0.722  24.811  0.00  0.00    +0.148 C 
BRANCH  16  17
ATOM     17  N   UNL     1      -2.361   1.490  24.576  0.00  0.00    -0.184 NA
ATOM     18  C   UNL     1      -3.057   1.843  24.844  0.00  0.00    +0.344 C 
ATOM     19  O   UNL     1      -3.563   1.430  25.345  0.00  0.00    -0.249 OA
ATOM     20  N   UNL     1      -3.246   2.612  24.608  0.00  0.00    -0.159 NA
BRANCH  20  21
ATOM     21  C   UNL     1      -3.941   2.965  24.876  0.00  0.00    +0.102 A 
ATOM     22  C   UNL     1      -4.657   2.556  24.826  0.00  0.00    +0.021 A 
ATOM     23  C   UNL     1      -5.353   2.909  25.093  0.00  0.00    +0.031 A 
ATOM     24  C   UNL     1      -5.334   3.670  25.410  0.00  0.00    +0.142 A 
ATOM     25  F   UNL     1      -6.031   4.023  25.677  0.00  0.00    -0.204 F 
ATOM     26  C   UNL     1      -4.620   4.079  25.460  0.00  0.00    +0.061 A 
ATOM     27  C   UNL     1      -3.923   3.726  25.192  0.00  0.00    +0.158 A 
ATOM     28  F   UNL     1      -3.208   4.135  25.242  0.00  0.00    -0.203 F 
ENDBRANCH  20  21
ENDBRANCH  16  17
ENDBRANCH  15  16
TORSDOF 8
ENDMDL
