MODEL 1
REMARK VINA RESULT:     -12.2      0.000      0.000
REMARK  Name = 
REMARK  6 active torsions:
REMARK  status: ('A' for Active; 'I' for Inactive)
REMARK    1  A    between atoms: C_7  and  C_8
REMARK    2  A    between atoms: C_8  and  N_9
REMARK    3  A    between atoms: N_9  and  C_10
REMARK    4  A    between atoms: C_10  and  C_11
REMARK    5  A    between atoms: C_11  and  C_12
REMARK    6  A    between atoms: C_15  and  C_17
REMARK                            x       y       z     vdW  Elec       q    Type
REMARK                         _______ _______ _______ _____ _____    ______ ____
ROOT
ATOM     10  C   UNL     1      -4.722   1.524  24.805  0.00  0.00    +0.120 C 
ATOM     23  C   UNL     1      -5.399   1.198  25.144  0.00  0.00    +0.161 C 
ATOM     24  O   UNL     1      -5.829   1.870  24.934  0.00  0.00    -0.351 OA
ATOM     25  C   UNL     1      -5.151   2.197  24.594  0.00  0.00    +0.161 C 
ENDROOT
BRANCH  10   9
ATOM      9  N   UNL     1      -4.292   0.852  25.015  0.00  0.00    -0.211 NA
BRANCH   9   8
ATOM      8  C   UNL     1      -4.448   0.130  24.648  0.00  0.00    +0.116 C 
BRANCH   8   7
ATOM      1 CL   UNL     1      -4.315  -1.157  23.624  0.00  0.00    -0.083 Cl
ATOM      2  C   UNL     1      -3.986  -1.195  24.380  0.00  0.00    +0.055 A 
ATOM      3  C   UNL     1      -3.590  -1.877  24.624  0.00  0.00    +0.011 A 
ATOM      4  C   UNL     1      -3.261  -1.915  25.380  0.00  0.00    +0.001 A 
ATOM      5  C   UNL     1      -3.328  -1.271  25.891  0.00  0.00    -0.000 A 
ATOM      6  C   UNL     1      -3.724  -0.589  25.648  0.00  0.00    -0.002 A 
ATOM      7  C   UNL     1      -4.052  -0.552  24.892  0.00  0.00    +0.006 A 
ENDBRANCH   8   7
ENDBRANCH   9   8
ENDBRANCH  10   9
BRANCH  10  11
ATOM     11  C   UNL     1      -4.044   1.851  24.465  0.00  0.00    +0.070 C 
BRANCH  11  12
ATOM     12  C   UNL     1      -3.642   2.458  24.851  0.00  0.00    +0.102 A 
ATOM     13  N   UNL     1      -3.860   2.808  25.565  0.00  0.00    -0.081 NA
ATOM     14  O   UNL     1      -3.303   3.389  25.746  0.00  0.00    -0.354 OA
ATOM     15  C   UNL     1      -2.740   3.399  25.143  0.00  0.00    +0.177 A 
ATOM     16  C   UNL     1      -2.949   2.824  24.591  0.00  0.00    +0.058 A 
BRANCH  15  17
ATOM     17  C   UNL     1      -2.083   3.896  25.101  0.00  0.00    +0.037 A 
ATOM     18  C   UNL     1      -1.328   3.574  25.010  0.00  0.00    +0.003 A 
ATOM     19  C   UNL     1      -0.671   4.072  24.968  0.00  0.00    +0.000 A 
ATOM     20  C   UNL     1      -0.769   4.890  25.016  0.00  0.00    +0.000 A 
ATOM     21  C   UNL     1      -1.523   5.210  25.106  0.00  0.00    +0.000 A 
ATOM     22  C   UNL     1      -2.180   4.713  25.149  0.00  0.00    +0.003 A 
ENDBRANCH  15  17
ENDBRANCH  11  12
ENDBRANCH  10  11
TORSDOF 6
ENDMDL
MODEL 2
REMARK VINA RESULT:     -12.1      1.547      4.619
REMARK  Name = 
REMARK  6 active torsions:
REMARK  status: ('A' for Active; 'I' for Inactive)
REMARK    1  A    between atoms: C_7  and  C_8
REMARK    2  A    between atoms: C_8  and  N_9
REMARK    3  A    between atoms: N_9  and  C_10
REMARK    4  A    between atoms: C_10  and  C_11
REMARK    5  A    between atoms: C_11  and  C_12
REMARK    6  A    between atoms: C_15  and  C_17
REMARK                            x       y       z     vdW  Elec       q    Type
REMARK                         _______ _______ _______ _____ _____    ______ ____
ROOT
ATOM     10  C   UNL     1      -4.230   2.860  25.171  0.00  0.00    +0.120 C 
ATOM     23  C   UNL     1      -4.322   3.460  25.729  0.00  0.00    +0.161 C 
ATOM     24  O   UNL     1      -5.135   3.464  25.592  0.00  0.00    -0.351 OA
ATOM     25  C   UNL     1      -5.044   2.863  25.033  0.00  0.00    +0.161 C 
ENDROOT
BRANCH  10   9
ATOM      9  N   UNL     1      -3.416   2.856  25.307  0.00  0.00    -0.211 NA
BRANCH   9   8
ATOM      8  C   UNL     1      -2.993   3.564  25.302  0.00  0.00    +0.116 C 
BRANCH   8   7
ATOM      1 CL   UNL     1      -2.107   4.872  24.826  0.00  0.00    -0.083 Cl
ATOM      2  C   UNL     1      -1.728   4.208  25.137  0.00  0.00    +0.055 A 
ATOM      3  C   UNL     1      -0.906   4.198  25.211  0.00  0.00    +0.011 A 
ATOM      4  C   UNL     1      -0.528   3.534  25.522  0.00  0.00    +0.001 A 
ATOM      5  C   UNL     1      -0.972   2.881  25.760  0.00  0.00    -0.000 A 
ATOM      6  C   UNL     1      -1.793   2.890  25.687  0.00  0.00    -0.002 A 
ATOM      7  C   UNL     1      -2.171   3.554  25.375  0.00  0.00    +0.006 A 
ENDBRANCH   8   7
ENDBRANCH   9   8
ENDBRANCH  10   9
BRANCH  10  11
ATOM     11  C   UNL     1      -4.138   2.260  24.611  0.00  0.00    +0.070 C 
BRANCH  11  12
ATOM     12  C   UNL     1      -4.313   1.480  24.813  0.00  0.00    +0.102 A 
ATOM     13  N   UNL     1      -4.906   1.233  25.331  0.00  0.00    -0.081 NA
ATOM     14  O   UNL     1      -4.884   0.409  25.369  0.00  0.00    -0.354 OA
ATOM     15  C   UNL     1      -4.278   0.146  24.875  0.00  0.00    +0.177 A 
ATOM     16  C   UNL     1      -3.925   0.807  24.531  0.00  0.00    +0.058 A 
BRANCH  15  17
ATOM     17  C   UNL     1      -4.062  -0.640  24.747  0.00  0.00    +0.037 A 
ATOM     18  C   UNL     1      -3.602  -1.037  25.306  0.00  0.00    +0.003 A 
ATOM     19  C   UNL     1      -3.386  -1.823  25.178  0.00  0.00    +0.000 A 
ATOM     20  C   UNL     1      -3.631  -2.212  24.492  0.00  0.00    +0.000 A 
ATOM     21  C   UNL     1      -4.090  -1.814  23.935  0.00  0.00    +0.000 A 
ATOM     22  C   UNL     1      -4.306  -1.029  24.062  0.00  0.00    +0.003 A 
ENDBRANCH  15  17
ENDBRANCH  11  12
ENDBRANCH  10  11
TORSDOF 6
ENDMDL
MODEL 3
REMARK VINA RESULT:     -11.1      2.237      4.847
REMARK  Name = 
REMARK  6 active torsions:
REMARK  status: ('A' for Active; 'I' for Inactive)
REMARK    1  A    between atoms: C_7  and  C_8
REMARK    2  A    between atoms: C_8  and  N_9
REMARK    3  A    between atoms: N_9  and  C_10
REMARK    4  A    between atoms: C_10  and  C_11
REMARK    5  A    between atoms: C_11  and  C_12
REMARK    6  A    between atoms: C_15  and  C_17
REMARK                            x       y       z     vdW  Elec       q    Type
REMARK                         _______ _______ _______ _____ _____    ______ ____
ROOT
ATOM     10  C   UNL     1      -2.558   1.778  24.091  0.00  0.00    +0.120 C 
ATOM     23  C   UNL     1      -2.725   2.272  23.452  0.00  0.00    +0.161 C 
ATOM     24  O   UNL     1      -1.958   2.163  23.167  0.00  0.00    -0.351 OA
ATOM     25  C   UNL     1      -1.791   1.669  23.807  0.00  0.00    +0.161 C 
ENDROOT
BRANCH  10   9
ATOM      9  N   UNL     1      -3.325   1.886  24.376  0.00  0.00    -0.211 NA
BRANCH   9   8
ATOM      8  C   UNL     1      -3.576   2.635  24.611  0.00  0.00    +0.116 C 
BRANCH   8   7
ATOM      1 CL   UNL     1      -3.850   3.831  25.716  0.00  0.00    -0.083 Cl
ATOM      2  C   UNL     1      -4.466   3.335  25.484  0.00  0.00    +0.055 A 
ATOM      3  C   UNL     1      -5.221   3.435  25.803  0.00  0.00    +0.011 A 
ATOM      4  C   UNL     1      -5.838   2.939  25.570  0.00  0.00    +0.001 A 
ATOM      5  C   UNL     1      -5.700   2.342  25.018  0.00  0.00    -0.000 A 
ATOM      6  C   UNL     1      -4.946   2.240  24.698  0.00  0.00    -0.002 A 
ATOM      7  C   UNL     1      -4.330   2.737  24.931  0.00  0.00    +0.006 A 
ENDBRANCH   8   7
ENDBRANCH   9   8
ENDBRANCH  10   9
BRANCH  10  11
ATOM     11  C   UNL     1      -2.391   1.283  24.731  0.00  0.00    +0.070 C 
BRANCH  11  12
ATOM     12  C   UNL     1      -2.333   0.469  24.618  0.00  0.00    +0.102 A 
ATOM     13  N   UNL     1      -1.637   0.043  24.501  0.00  0.00    -0.081 NA
ATOM     14  O   UNL     1      -1.836  -0.753  24.412  0.00  0.00    -0.354 OA
ATOM     15  C   UNL     1      -2.656  -0.820  24.474  0.00  0.00    +0.177 A 
ATOM     16  C   UNL     1      -2.963  -0.065  24.601  0.00  0.00    +0.058 A 
BRANCH  15  17
ATOM     17  C   UNL     1      -3.093  -1.517  24.419  0.00  0.00    +0.037 A 
ATOM     18  C   UNL     1      -3.786  -1.535  23.972  0.00  0.00    +0.003 A 
ATOM     19  C   UNL     1      -4.223  -2.233  23.917  0.00  0.00    +0.000 A 
ATOM     20  C   UNL     1      -3.966  -2.913  24.308  0.00  0.00    +0.000 A 
ATOM     21  C   UNL     1      -3.273  -2.894  24.755  0.00  0.00    +0.000 A 
ATOM     22  C   UNL     1      -2.836  -2.196  24.810  0.00  0.00    +0.003 A 
ENDBRANCH  15  17
ENDBRANCH  11  12
ENDBRANCH  10  11
TORSDOF 6
ENDMDL
MODEL 4
REMARK VINA RESULT:     -11.1      2.013      2.638
REMARK  Name = 
REMARK  6 active torsions:
REMARK  status: ('A' for Active; 'I' for Inactive)
REMARK    1  A    between atoms: C_7  and  C_8
REMARK    2  A    between atoms: C_8  and  N_9
REMARK    3  A    between atoms: N_9  and  C_10
REMARK    4  A    between atoms: C_10  and  C_11
REMARK    5  A    between atoms: C_11  and  C_12
REMARK    6  A    between atoms: C_15  and  C_17
REMARK                            x       y       z     vdW  Elec       q    Type
REMARK                         _______ _______ _______ _____ _____    ______ ____
ROOT
ATOM     10  C   UNL     1      -1.265   0.006  24.749  0.00  0.00    +0.120 C 
ATOM     23  C   UNL     1      -0.869  -0.619  24.383  0.00  0.00    +0.161 C 
ATOM     24  O   UNL     1      -0.146  -0.307  24.631  0.00  0.00    -0.351 OA
ATOM     25  C   UNL     1      -0.543   0.318  24.997  0.00  0.00    +0.161 C 
ENDROOT
BRANCH  10   9
ATOM      9  N   UNL     1      -1.987  -0.306  24.500  0.00  0.00    -0.211 NA
BRANCH   9   8
ATOM      8  C   UNL     1      -2.220  -1.057  24.747  0.00  0.00    +0.116 C 
BRANCH   8   7
ATOM      1 CL   UNL     1      -2.519  -2.672  24.914  0.00  0.00    -0.083 Cl
ATOM      2  C   UNL     1      -3.088  -2.180  24.576  0.00  0.00    +0.055 A 
ATOM      3  C   UNL     1      -3.807  -2.493  24.320  0.00  0.00    +0.011 A 
ATOM      4  C   UNL     1      -4.376  -2.001  23.982  0.00  0.00    +0.001 A 
ATOM      5  C   UNL     1      -4.226  -1.195  23.899  0.00  0.00    -0.000 A 
ATOM      6  C   UNL     1      -3.507  -0.879  24.153  0.00  0.00    -0.002 A 
ATOM      7  C   UNL     1      -2.938  -1.372  24.492  0.00  0.00    +0.006 A 
ENDBRANCH   8   7
ENDBRANCH   9   8
ENDBRANCH  10   9
BRANCH  10  11
ATOM     11  C   UNL     1      -1.661   0.631  25.114  0.00  0.00    +0.070 C 
BRANCH  11  12
ATOM     12  C   UNL     1      -1.612   1.391  24.798  0.00  0.00    +0.102 A 
ATOM     13  N   UNL     1      -1.552   1.581  23.998  0.00  0.00    -0.081 NA
ATOM     14  O   UNL     1      -1.517   2.403  23.933  0.00  0.00    -0.354 OA
ATOM     15  C   UNL     1      -1.554   2.721  24.693  0.00  0.00    +0.177 A 
ATOM     16  C   UNL     1      -1.613   2.096  25.228  0.00  0.00    +0.058 A 
BRANCH  15  17
ATOM     17  C   UNL     1      -1.536   3.523  24.885  0.00  0.00    +0.037 A 
ATOM     18  C   UNL     1      -0.855   3.966  24.739  0.00  0.00    +0.003 A 
ATOM     19  C   UNL     1      -0.837   4.768  24.931  0.00  0.00    +0.000 A 
ATOM     20  C   UNL     1      -1.499   5.127  25.268  0.00  0.00    +0.000 A 
ATOM     21  C   UNL     1      -2.180   4.684  25.414  0.00  0.00    +0.000 A 
ATOM     22  C   UNL     1      -2.198   3.882  25.222  0.00  0.00    +0.003 A 
ENDBRANCH  15  17
ENDBRANCH  11  12
ENDBRANCH  10  11
TORSDOF 6
ENDMDL
MODEL 5
REMARK VINA RESULT:     -11.0      2.302      5.144
REMARK  Name = 
REMARK  6 active torsions:
REMARK  status: ('A' for Active; 'I' for Inactive)
REMARK    1  A    between atoms: C_7  and  C_8
REMARK    2  A    between atoms: C_8  and  N_9
REMARK    3  A    between atoms: N_9  and  C_10
REMARK    4  A    between atoms: C_10  and  C_11
REMARK    5  A    between atoms: C_11  and  C_12
REMARK    6  A    between atoms: C_15  and  C_17
REMARK                            x       y       z     vdW  Elec       q    Type
REMARK                         _______ _______ _______ _____ _____    ______ ____
ROOT
ATOM     10  C   UNL     1      -1.129   1.584  24.932  0.00  0.00    +0.120 C 
ATOM     23  C   UNL     1      -0.787   2.177  24.473  0.00  0.00    +0.161 C 
ATOM     24  O   UNL     1      -0.044   1.834  24.581  0.00  0.00    -0.351 OA
ATOM     25  C   UNL     1      -0.387   1.240  25.041  0.00  0.00    +0.161 C 
ENDROOT
BRANCH  10   9
ATOM      9  N   UNL     1      -1.871   1.927  24.824  0.00  0.00    -0.211 NA
BRANCH   9   8
ATOM      8  C   UNL     1      -2.002   2.709  25.048  0.00  0.00    +0.116 C 
BRANCH   8   7
ATOM      1 CL   UNL     1      -2.535   3.847  26.117  0.00  0.00    -0.083 Cl
ATOM      2  C   UNL     1      -3.015   3.617  25.487  0.00  0.00    +0.055 A 
ATOM      3  C   UNL     1      -3.761   3.955  25.390  0.00  0.00    +0.011 A 
ATOM      4  C   UNL     1      -4.241   3.724  24.759  0.00  0.00    +0.001 A 
ATOM      5  C   UNL     1      -3.973   3.155  24.225  0.00  0.00    -0.000 A 
ATOM      6  C   UNL     1      -3.227   2.817  24.321  0.00  0.00    -0.002 A 
ATOM      7  C   UNL     1      -2.748   3.048  24.952  0.00  0.00    +0.006 A 
ENDBRANCH   8   7
ENDBRANCH   9   8
ENDBRANCH  10   9
BRANCH  10  11
ATOM     11  C   UNL     1      -1.471   0.989  25.392  0.00  0.00    +0.070 C 
BRANCH  11  12
ATOM     12  C   UNL     1      -1.636   0.254  25.057  0.00  0.00    +0.102 A 
ATOM     13  N   UNL     1      -1.093  -0.242  24.683  0.00  0.00    -0.081 NA
ATOM     14  O   UNL     1      -1.495  -0.918  24.433  0.00  0.00    -0.354 OA
ATOM     15  C   UNL     1      -2.286  -0.840  24.652  0.00  0.00    +0.177 A 
ATOM     16  C   UNL     1      -2.373  -0.116  25.038  0.00  0.00    +0.058 A 
BRANCH  15  17
ATOM     17  C   UNL     1      -2.886  -1.389  24.511  0.00  0.00    +0.037 A 
ATOM     18  C   UNL     1      -3.558  -1.166  24.087  0.00  0.00    +0.003 A 
ATOM     19  C   UNL     1      -4.157  -1.715  23.946  0.00  0.00    +0.000 A 
ATOM     20  C   UNL     1      -4.084  -2.487  24.228  0.00  0.00    +0.000 A 
ATOM     21  C   UNL     1      -3.412  -2.710  24.652  0.00  0.00    +0.000 A 
ATOM     22  C   UNL     1      -2.813  -2.160  24.793  0.00  0.00    +0.003 A 
ENDBRANCH  15  17
ENDBRANCH  11  12
ENDBRANCH  10  11
TORSDOF 6
ENDMDL
