REMARK  Name = 
REMARK  8 active torsions:
REMARK  status: ('A' for Active; 'I' for Inactive)
REMARK    1  A    between atoms: C_2  and  N_4
REMARK    2  A    between atoms: N_7  and  C_8
REMARK    3  A    between atoms: C_12  and  C_13
REMARK    4  A    between atoms: N_15  and  C_16
REMARK    5  A    between atoms: C_16  and  C_17
REMARK    6  A    between atoms: C_16  and  C_27
REMARK    7  A    between atoms: C_17  and  C_18
REMARK    8  A    between atoms: C_30  and  C_32
REMARK                            x       y       z     vdW  Elec       q    Type
REMARK                         _______ _______ _______ _____ _____    ______ ____
ROOT
ATOM      8  C   UNL     1      -3.580  -2.880   0.000  0.00  0.00    +0.126 C 
ATOM      9  C   UNL     1      -4.387  -3.052   0.000  0.00  0.00    +0.045 C 
ATOM     10  C   UNL     1      -4.799  -2.337   0.000  0.00  0.00    +0.096 C 
ATOM     11  N   UNL     1      -4.247  -1.724   0.000  0.00  0.00    -0.268 N 
ATOM     12  C   UNL     1      -3.494  -2.060   0.000  0.00  0.00    +0.174 C 
ATOM     30  C   UNL     1      -4.419  -0.917   0.000  0.00  0.00    +0.249 C 
ATOM     31  O   UNL     1      -3.806  -0.365   0.000  0.00  0.00    -0.270 OA
ENDROOT
BRANCH   8   7
ATOM      4  N   UNL     1      -2.525  -4.791   0.000  0.00  0.00    -0.189 NA
ATOM      5  C   UNL     1      -3.138  -4.239   0.000  0.00  0.00    +0.339 C 
ATOM      6  O   UNL     1      -3.923  -4.494   0.000  0.00  0.00    -0.249 OA
ATOM      7  N   UNL     1      -2.967  -3.432   0.000  0.00  0.00    -0.187 NA
BRANCH   4   2
ATOM      1  C   UNL     1      -2.083  -6.150   0.000  0.00  0.00    +0.023 C 
ATOM      2  C   UNL     1      -2.697  -5.598   0.000  0.00  0.00    +0.097 C 
ATOM      3  C   UNL     1      -3.481  -5.853   0.000  0.00  0.00    +0.023 C 
ENDBRANCH   4   2
ENDBRANCH   8   7
BRANCH  30  32
ATOM     32  C   UNL     1      -5.203  -0.662   0.000  0.00  0.00    +0.049 C 
ATOM     33  C   UNL     1      -5.816  -1.214   0.000  0.00  0.00    -0.039 C 
ATOM     34  C   UNL     1      -6.601  -0.959   0.000  0.00  0.00    +0.027 C 
ATOM     35  C   UNL     1      -5.645  -2.021   0.000  0.00  0.00    +0.027 C 
ENDBRANCH  30  32
BRANCH  12  13
ATOM     13  C   UNL     1      -2.779  -1.647   0.000  0.00  0.00    +0.262 C 
ATOM     14  O   UNL     1      -2.065  -2.060   0.000  0.00  0.00    -0.271 OA
ATOM     15  N   UNL     1      -2.779  -0.822   0.000  0.00  0.00    -0.196 NA
BRANCH  15  16
ATOM     16  C   UNL     1      -2.065  -0.410   0.000  0.00  0.00    +0.179 C 
BRANCH  16  27
ATOM     27  C   UNL     1      -1.350  -0.822   0.000  0.00  0.00    +0.281 C 
ATOM     28  N   UNL     1      -0.636  -0.410   0.000  0.00  0.00    -0.086 NA
ATOM     29  O   UNL     1      -1.350  -1.647   0.000  0.00  0.00    -0.270 OA
ENDBRANCH  16  27
BRANCH  16  17
ATOM     17  C   UNL     1      -2.065   0.415   0.000  0.00  0.00    +0.059 C 
BRANCH  17  18
ATOM     18  C   UNL     1      -1.350   0.828   0.000  0.00  0.00    +0.001 A 
ATOM     19  C   UNL     1      -0.597   0.492   0.000  0.00  0.00    +0.095 A 
ATOM     20  N   UNL     1      -0.044   1.105   0.000  0.00  0.00    -0.244 NA
ATOM     21  C   UNL     1      -0.457   1.820   0.000  0.00  0.00    +0.081 A 
ATOM     22  C   UNL     1      -1.264   1.648   0.000  0.00  0.00    +0.015 A 
ATOM     23  C   UNL     1      -1.816   2.261   0.000  0.00  0.00    +0.001 A 
ATOM     24  C   UNL     1      -1.561   3.046   0.000  0.00  0.00    +0.000 A 
ATOM     25  C   UNL     1      -0.754   3.218   0.000  0.00  0.00    +0.002 A 
ATOM     26  C   UNL     1      -0.202   2.605   0.000  0.00  0.00    +0.019 A 
ENDBRANCH  17  18
ENDBRANCH  16  17
ENDBRANCH  15  16
ENDBRANCH  12  13
TORSDOF 8
