REMARK  Name = 
REMARK  4 active torsions:
REMARK  status: ('A' for Active; 'I' for Inactive)
REMARK    1  A    between atoms: O_2  and  C_3
REMARK    2  A    between atoms: C_6  and  C_9
REMARK    3  A    between atoms: N_18  and  C_19
REMARK    4  A    between atoms: C_19  and  C_20
REMARK                            x       y       z     vdW  Elec       q    Type
REMARK                         _______ _______ _______ _____ _____    ______ ____
ROOT
ATOM      9  C   UNL     1      -0.171  -0.698   0.000  0.00  0.00    +0.249 C 
ATOM     10  O   UNL     1      -0.584  -1.412   0.000  0.00  0.00    -0.270 OA
ATOM     11  N   UNL     1       0.654  -0.698   0.000  0.00  0.00    -0.272 N 
ATOM     12  C   UNL     1       1.139  -0.030   0.000  0.00  0.00    +0.125 C 
ATOM     13  C   UNL     1       1.923  -0.285   0.000  0.00  0.00    +0.155 C 
ATOM     14  O   UNL     1       2.638   0.127   0.000  0.00  0.00    -0.343 OA
ATOM     15  C   UNL     1       3.352  -0.285   0.000  0.00  0.00    +0.227 C 
ATOM     16  C   UNL     1       3.352  -1.110   0.000  0.00  0.00    +0.256 C 
ATOM     17  O   UNL     1       4.067  -1.523   0.000  0.00  0.00    -0.272 OA
ATOM     18  N   UNL     1       2.638  -1.523   0.000  0.00  0.00    -0.275 N 
ATOM     23  C   UNL     1       1.923  -1.110   0.000  0.00  0.00    +0.124 C 
ATOM     24  C   UNL     1       1.139  -1.365   0.000  0.00  0.00    +0.116 C 
ENDROOT
BRANCH   9   6
ATOM      3  C   UNL     1      -1.409   1.446   0.000  0.00  0.00    +0.139 A 
ATOM      4  C   UNL     1      -0.584   1.446   0.000  0.00  0.00    +0.037 A 
ATOM      5  C   UNL     1      -0.171   0.731   0.000  0.00  0.00    +0.008 A 
ATOM      6  C   UNL     1      -0.584   0.017   0.000  0.00  0.00    +0.054 A 
ATOM      7  C   UNL     1      -1.409   0.017   0.000  0.00  0.00    +0.008 A 
ATOM      8  C   UNL     1      -1.821   0.731   0.000  0.00  0.00    +0.037 A 
BRANCH   3   2
ATOM      1  C   UNL     1      -2.646   2.160   0.000  0.00  0.00    +0.252 C 
ATOM      2  O   UNL     1      -1.821   2.160   0.000  0.00  0.00    -0.471 OA
ENDBRANCH   3   2
ENDBRANCH   9   6
BRANCH  18  19
ATOM     19  C   UNL     1       2.638  -2.348   0.000  0.00  0.00    +0.094 C 
BRANCH  19  20
ATOM     20  C   UNL     1       1.923  -2.760   0.000  0.00  0.00    +0.020 C 
ATOM     21  C   UNL     1       1.511  -3.475   0.000  0.00  0.00    +0.002 C 
ATOM     22  C   UNL     1       1.098  -2.760   0.000  0.00  0.00    +0.002 C 
ENDBRANCH  19  20
ENDBRANCH  18  19
TORSDOF 4
