REMARK  Name = 
REMARK  4 active torsions:
REMARK  status: ('A' for Active; 'I' for Inactive)
REMARK    1  A    between atoms: C_6  and  N_10
REMARK    2  A    between atoms: C_14  and  S_15
REMARK    3  A    between atoms: S_15  and  C_16
REMARK    4  A    between atoms: C_16  and  C_17
REMARK                            x       y       z     vdW  Elec       q    Type
REMARK                         _______ _______ _______ _____ _____    ______ ____
ROOT
ATOM     10  N   UNL     1       3.094   1.197   0.000  0.00  0.00    -0.205 N 
ATOM     11  N   UNL     1       2.609   1.865   0.000  0.00  0.00    -0.042 NA
ATOM     12  N   UNL     1       3.094   2.532   0.000  0.00  0.00    -0.022 NA
ATOM     13  N   UNL     1       3.878   2.277   0.000  0.00  0.00    -0.101 NA
ATOM     14  C   UNL     1       3.878   1.452   0.000  0.00  0.00    +0.211 A 
ENDROOT
BRANCH  10   6
ATOM      1  O   UNL     1       1.015  -1.707   0.000  0.00  0.00    -0.218 OA
ATOM      2  C   UNL     1       1.270  -0.922   0.000  0.00  0.00    +0.211 C 
ATOM      3  C   UNL     1       0.785  -0.255   0.000  0.00  0.00    +0.178 C 
ATOM      4  O   UNL     1       1.270   0.412   0.000  0.00  0.00    -0.349 OA
ATOM      5  C   UNL     1       2.054   0.158   0.000  0.00  0.00    +0.170 C 
ATOM      6  C   UNL     1       2.839   0.412   0.000  0.00  0.00    +0.168 C 
ATOM      7  C   UNL     1       3.324  -0.255   0.000  0.00  0.00    +0.169 C 
ATOM      8  O   UNL     1       2.839  -0.922   0.000  0.00  0.00    -0.349 OA
ATOM      9  C   UNL     1       2.054  -0.667   0.000  0.00  0.00    +0.177 C 
ENDBRANCH  10   6
BRANCH  14  15
ATOM     15  S   UNL     1       4.546   0.967   0.000  0.00  0.00    -0.066 S 
BRANCH  15  16
ATOM     16  C   UNL     1       5.300   1.303   0.000  0.00  0.00    +0.129 C 
BRANCH  16  17
ATOM     17  C   UNL     1       5.967   0.818   0.000  0.00  0.00    +0.134 A 
ATOM     18  C   UNL     1       6.752   1.073   0.000  0.00  0.00    +0.037 A 
ATOM     19  C   UNL     1       7.236   0.405   0.000  0.00  0.00    +0.043 A 
ATOM     20  C   UNL     1       6.752  -0.262   0.000  0.00  0.00    +0.179 A 
ATOM     21  O   UNL     1       5.967  -0.007   0.000  0.00  0.00    -0.454 OA
ENDBRANCH  16  17
ENDBRANCH  15  16
ENDBRANCH  14  15
TORSDOF 4
