REMARK  Name = 
REMARK  6 active torsions:
REMARK  status: ('A' for Active; 'I' for Inactive)
REMARK    1  A    between atoms: O_2  and  C_3
REMARK    2  A    between atoms: C_3  and  C_4
REMARK    3  A    between atoms: C_6  and  C_7
REMARK    4  A    between atoms: C_7  and  C_8
REMARK    5  A    between atoms: C_13  and  C_14
REMARK    6  A    between atoms: C_14  and  C_15
REMARK                            x       y       z     vdW  Elec       q    Type
REMARK                         _______ _______ _______ _____ _____    ______ ____
ROOT
ATOM      8  C   UNL     1       5.898  -6.862   0.000  0.00  0.00    +0.024 C 
ATOM      9  C   UNL     1       6.234  -6.109   0.000  0.00  0.00    +0.089 C 
ATOM     10  N   UNL     1       7.054  -6.022   0.000  0.00  0.00    -0.218 NA
ATOM     11  C   UNL     1       7.539  -6.690   0.000  0.00  0.00    +0.089 C 
ATOM     12  C   UNL     1       7.203  -7.444   0.000  0.00  0.00    +0.019 C 
ATOM     13  C   UNL     1       6.383  -7.530   0.000  0.00  0.00    +0.012 C 
ENDROOT
BRANCH   8   7
ATOM      7  C   UNL     1       5.077  -6.949   0.000  0.00  0.00    +0.051 C 
BRANCH   7   6
ATOM      4  C   UNL     1       4.180  -5.012   0.000  0.00  0.00    +0.184 A 
ATOM      5  C   UNL     1       4.848  -5.497   0.000  0.00  0.00    +0.056 A 
ATOM      6  C   UNL     1       4.593  -6.281   0.000  0.00  0.00    +0.100 A 
ATOM     29  N   UNL     1       3.768  -6.281   0.000  0.00  0.00    -0.082 NA
ATOM     30  O   UNL     1       3.513  -5.497   0.000  0.00  0.00    -0.356 OA
BRANCH   4   3
ATOM      3  C   UNL     1       4.180  -4.187   0.000  0.00  0.00    +0.209 C 
BRANCH   3   2
ATOM      1  C   UNL     1       3.466  -2.949   0.000  0.00  0.00    +0.175 C 
ATOM      2  O   UNL     1       3.466  -3.774   0.000  0.00  0.00    -0.343 OA
ENDBRANCH   3   2
ENDBRANCH   4   3
ENDBRANCH   7   6
ENDBRANCH   8   7
BRANCH  13  14
ATOM     14  C   UNL     1       6.047  -8.284   0.000  0.00  0.00    +0.085 C 
BRANCH  14  15
ATOM     15  C   UNL     1       6.532  -8.951   0.000  0.00  0.00    +0.226 C 
ATOM     16  O   UNL     1       7.353  -8.865   0.000  0.00  0.00    -0.275 OA
ATOM     17  N   UNL     1       6.197  -9.705   0.000  0.00  0.00    -0.276 N 
ATOM     18  C   UNL     1       6.682 -10.372   0.000  0.00  0.00    +0.115 C 
ATOM     19  C   UNL     1       6.346 -11.126   0.000  0.00  0.00    +0.114 C 
ATOM     20  N   UNL     1       5.526 -11.212   0.000  0.00  0.00    -0.290 N 
ATOM     21  C   UNL     1       5.041 -10.544   0.000  0.00  0.00    +0.114 C 
ATOM     22  C   UNL     1       5.376  -9.791   0.000  0.00  0.00    +0.115 C 
ATOM     23  C   UNL     1       5.190 -11.966   0.000  0.00  0.00    +0.132 A 
ATOM     24  N   UNL     1       5.675 -12.633   0.000  0.00  0.00    -0.229 NA
ATOM     25  C   UNL     1       5.339 -13.387   0.000  0.00  0.00    +0.100 A 
ATOM     26  C   UNL     1       4.519 -13.473   0.000  0.00  0.00    +0.021 A 
ATOM     27  C   UNL     1       4.034 -12.806   0.000  0.00  0.00    +0.004 A 
ATOM     28  C   UNL     1       4.370 -12.052   0.000  0.00  0.00    +0.034 A 
ENDBRANCH  14  15
ENDBRANCH  13  14
TORSDOF 6
