MODEL 1
REMARK VINA RESULT:      -9.1      0.000      0.000
REMARK  Name = 
REMARK  6 active torsions:
REMARK  status: ('A' for Active; 'I' for Inactive)
REMARK    1  A    between atoms: C_2  and  C_3
REMARK    2  A    between atoms: C_2  and  C_27
REMARK    3  A    between atoms: C_14  and  C_16
REMARK    4  A    between atoms: C_16  and  C_17
REMARK    5  A    between atoms: N_29  and  C_31
REMARK    6  A    between atoms: C_31  and  C_32
REMARK                            x       y       z     vdW  Elec       q    Type
REMARK                         _______ _______ _______ _____ _____    ______ ____
ROOT
ATOM      3  C   UNL     1      -2.307   0.650  24.699  0.00  0.00    +0.039 C 
ATOM      4  C   UNL     1      -2.033   1.405  24.886  0.00  0.00    +0.003 C 
ATOM      5  C   UNL     1      -1.260   1.621  24.700  0.00  0.00    +0.001 C 
ATOM      6  C   UNL     1      -0.759   1.081  24.327  0.00  0.00    +0.007 C 
ATOM      7  C   UNL     1      -0.485   1.837  24.514  0.00  0.00    +0.000 C 
ATOM      8  C   UNL     1       0.016   1.297  24.141  0.00  0.00    +0.034 C 
ATOM      9  C   UNL     1       0.516   0.757  23.768  0.00  0.00    +0.023 A 
ATOM     10  C   UNL     1       0.242   0.001  23.581  0.00  0.00    +0.063 A 
ATOM     11  N   UNL     1       0.858  -0.410  23.216  0.00  0.00    -0.227 NA
ATOM     12  C   UNL     1       1.512   0.092  23.178  0.00  0.00    +0.185 A 
ATOM     13  N   UNL     1       2.247  -0.095  22.855  0.00  0.00    -0.154 NA
ATOM     14  C   UNL     1       2.852   0.466  22.856  0.00  0.00    +0.247 C 
ATOM     15  O   UNL     1       2.722   1.213  23.178  0.00  0.00    -0.273 OA
ATOM     21  S   UNL     1       1.300   0.813  23.519  0.00  0.00    -0.054 S 
ATOM     22  C   UNL     1      -0.532  -0.214  23.767  0.00  0.00    +0.043 C 
ATOM     23  C   UNL     1      -0.805  -0.969  23.580  0.00  0.00    +0.006 C 
ATOM     24  C   UNL     1      -1.032   0.326  24.140  0.00  0.00    +0.036 C 
ATOM     25  C   UNL     1      -1.806   0.110  24.326  0.00  0.00    +0.153 C 
ATOM     26  O   UNL     1      -2.080  -0.646  24.140  0.00  0.00    -0.223 OA
ENDROOT
BRANCH   3   2
ATOM      1  C   UNL     1      -3.221  -0.220  25.369  0.00  0.00    +0.010 C 
ATOM      2  C   UNL     1      -3.081   0.434  24.885  0.00  0.00    +0.079 C 
BRANCH   2  27
ATOM     27  C   UNL     1      -3.715   0.870  24.588  0.00  0.00    +0.226 C 
ATOM     28  O   UNL     1      -3.666   1.210  23.837  0.00  0.00    -0.275 OA
ATOM     29  N   UNL     1      -4.398   0.967  25.041  0.00  0.00    -0.274 N 
ATOM     30  C   UNL     1      -4.446   0.628  25.791  0.00  0.00    +0.115 C 
BRANCH  29  31
ATOM     31  C   UNL     1      -5.031   1.403  24.744  0.00  0.00    +0.120 C 
BRANCH  31  32
ATOM     32  C   UNL     1      -5.603   1.703  25.258  0.00  0.00    -0.005 C 
ATOM     33  C   UNL     1      -6.285   2.056  24.956  0.00  0.00    -0.003 C 
ENDBRANCH  31  32
ENDBRANCH  29  31
ENDBRANCH   2  27
ENDBRANCH   3   2
BRANCH  14  16
ATOM     16  C   UNL     1       3.588   0.278  22.533  0.00  0.00    +0.087 C 
BRANCH  16  17
ATOM     17  C   UNL     1       4.278   0.453  22.950  0.00  0.00    +0.009 C 
ATOM     18  C   UNL     1       4.969   0.628  23.368  0.00  0.00    +0.000 C 
ATOM     19  C   UNL     1       4.279  -0.308  23.268  0.00  0.00    +0.000 C 
ATOM     20  C   UNL     1       4.277   1.215  22.633  0.00  0.00    +0.000 C 
ENDBRANCH  16  17
ENDBRANCH  14  16
TORSDOF 6
ENDMDL
MODEL 2
REMARK VINA RESULT:      -8.4      1.174      1.658
REMARK  Name = 
REMARK  6 active torsions:
REMARK  status: ('A' for Active; 'I' for Inactive)
REMARK    1  A    between atoms: C_2  and  C_3
REMARK    2  A    between atoms: C_2  and  C_27
REMARK    3  A    between atoms: C_14  and  C_16
REMARK    4  A    between atoms: C_16  and  C_17
REMARK    5  A    between atoms: N_29  and  C_31
REMARK    6  A    between atoms: C_31  and  C_32
REMARK                            x       y       z     vdW  Elec       q    Type
REMARK                         _______ _______ _______ _____ _____    ______ ____
ROOT
ATOM      3  C   UNL     1      -3.469   1.397  24.515  0.00  0.00    +0.039 C 
ATOM      4  C   UNL     1      -3.311   1.953  23.927  0.00  0.00    +0.003 C 
ATOM      5  C   UNL     1      -2.584   1.946  23.538  0.00  0.00    +0.001 C 
ATOM      6  C   UNL     1      -2.014   1.383  23.738  0.00  0.00    +0.007 C 
ATOM      7  C   UNL     1      -1.856   1.940  23.149  0.00  0.00    +0.000 C 
ATOM      8  C   UNL     1      -1.286   1.377  23.348  0.00  0.00    +0.034 C 
ATOM      9  C   UNL     1      -0.717   0.815  23.548  0.00  0.00    +0.023 A 
ATOM     10  C   UNL     1      -0.875   0.258  24.137  0.00  0.00    +0.063 A 
ATOM     11  N   UNL     1      -0.211  -0.226  24.215  0.00  0.00    -0.227 NA
ATOM     12  C   UNL     1       0.357   0.031  23.674  0.00  0.00    +0.185 A 
ATOM     13  N   UNL     1       1.105  -0.297  23.565  0.00  0.00    -0.154 NA
ATOM     14  C   UNL     1       1.616   0.020  23.000  0.00  0.00    +0.247 C 
ATOM     15  O   UNL     1       1.379   0.665  22.545  0.00  0.00    -0.273 OA
ATOM     21  S   UNL     1       0.044   0.674  23.262  0.00  0.00    -0.054 S 
ATOM     22  C   UNL     1      -1.602   0.265  24.526  0.00  0.00    +0.043 C 
ATOM     23  C   UNL     1      -1.759  -0.291  25.114  0.00  0.00    +0.006 C 
ATOM     24  C   UNL     1      -2.172   0.828  24.326  0.00  0.00    +0.036 C 
ATOM     25  C   UNL     1      -2.898   0.834  24.715  0.00  0.00    +0.153 C 
ATOM     26  O   UNL     1      -3.057   0.278  25.304  0.00  0.00    -0.223 OA
ENDROOT
BRANCH   3   2
ATOM      1  C   UNL     1      -4.696   0.749  24.854  0.00  0.00    +0.010 C 
ATOM      2  C   UNL     1      -4.196   1.403  24.905  0.00  0.00    +0.079 C 
BRANCH   2  27
ATOM     27  C   UNL     1      -4.424   2.063  25.344  0.00  0.00    +0.226 C 
ATOM     28  O   UNL     1      -3.872   2.454  25.817  0.00  0.00    -0.275 OA
ATOM     29  N   UNL     1      -5.203   2.332  25.312  0.00  0.00    -0.274 N 
ATOM     30  C   UNL     1      -5.755   1.941  24.839  0.00  0.00    +0.115 C 
BRANCH  29  31
ATOM     31  C   UNL     1      -5.431   2.991  25.751  0.00  0.00    +0.120 C 
BRANCH  31  32
ATOM     32  C   UNL     1      -6.037   3.481  25.478  0.00  0.00    -0.005 C 
ATOM     33  C   UNL     1      -6.084   4.262  25.736  0.00  0.00    -0.003 C 
ENDBRANCH  31  32
ENDBRANCH  29  31
ENDBRANCH   2  27
ENDBRANCH   3   2
BRANCH  14  16
ATOM     16  C   UNL     1       2.365  -0.309  22.891  0.00  0.00    +0.087 C 
BRANCH  16  17
ATOM     17  C   UNL     1       2.958   0.129  22.521  0.00  0.00    +0.009 C 
ATOM     18  C   UNL     1       3.552   0.569  22.151  0.00  0.00    +0.000 C 
ATOM     19  C   UNL     1       2.664  -0.094  21.784  0.00  0.00    +0.000 C 
ATOM     20  C   UNL     1       3.253   0.353  23.259  0.00  0.00    +0.000 C 
ENDBRANCH  16  17
ENDBRANCH  14  16
TORSDOF 6
ENDMDL
MODEL 3
REMARK VINA RESULT:      -8.0      1.201      6.466
REMARK  Name = 
REMARK  6 active torsions:
REMARK  status: ('A' for Active; 'I' for Inactive)
REMARK    1  A    between atoms: C_2  and  C_3
REMARK    2  A    between atoms: C_2  and  C_27
REMARK    3  A    between atoms: C_14  and  C_16
REMARK    4  A    between atoms: C_16  and  C_17
REMARK    5  A    between atoms: N_29  and  C_31
REMARK    6  A    between atoms: C_31  and  C_32
REMARK                            x       y       z     vdW  Elec       q    Type
REMARK                         _______ _______ _______ _____ _____    ______ ____
ROOT
ATOM      3  C   UNL     1       0.235   0.501  23.405  0.00  0.00    +0.039 C 
ATOM      4  C   UNL     1       0.084   1.256  23.112  0.00  0.00    +0.003 C 
ATOM      5  C   UNL     1      -0.644   1.616  23.255  0.00  0.00    +0.001 C 
ATOM      6  C   UNL     1      -1.222   1.220  23.693  0.00  0.00    +0.007 C 
ATOM      7  C   UNL     1      -1.373   1.977  23.399  0.00  0.00    +0.000 C 
ATOM      8  C   UNL     1      -1.950   1.581  23.836  0.00  0.00    +0.034 C 
ATOM      9  C   UNL     1      -2.527   1.185  24.273  0.00  0.00    +0.023 A 
ATOM     10  C   UNL     1      -2.376   0.428  24.566  0.00  0.00    +0.063 A 
ATOM     11  N   UNL     1      -3.047   0.175  24.975  0.00  0.00    -0.227 NA
ATOM     12  C   UNL     1      -3.612   0.775  24.935  0.00  0.00    +0.185 A 
ATOM     13  N   UNL     1      -4.365   0.755  25.269  0.00  0.00    -0.154 NA
ATOM     14  C   UNL     1      -4.873   1.399  25.183  0.00  0.00    +0.247 C 
ATOM     15  O   UNL     1      -4.627   2.064  24.762  0.00  0.00    -0.273 OA
ATOM     21  S   UNL     1      -3.291   1.399  24.500  0.00  0.00    -0.054 S 
ATOM     22  C   UNL     1      -1.648   0.068  24.423  0.00  0.00    +0.043 C 
ATOM     23  C   UNL     1      -1.498  -0.688  24.716  0.00  0.00    +0.006 C 
ATOM     24  C   UNL     1      -1.071   0.464  23.986  0.00  0.00    +0.036 C 
ATOM     25  C   UNL     1      -0.343   0.104  23.843  0.00  0.00    +0.153 C 
ATOM     26  O   UNL     1      -0.191  -0.652  24.136  0.00  0.00    -0.223 OA
ENDROOT
BRANCH   3   2
ATOM      1  C   UNL     1       0.991  -0.645  23.009  0.00  0.00    +0.010 C 
ATOM      2  C   UNL     1       0.963   0.140  23.262  0.00  0.00    +0.079 C 
BRANCH   2  27
ATOM     27  C   UNL     1       1.662   0.562  23.372  0.00  0.00    +0.226 C 
ATOM     28  O   UNL     1       1.711   1.132  23.969  0.00  0.00    -0.275 OA
ATOM     29  N   UNL     1       2.313   0.418  22.887  0.00  0.00    -0.274 N 
ATOM     30  C   UNL     1       2.265  -0.151  22.291  0.00  0.00    +0.115 C 
BRANCH  29  31
ATOM     31  C   UNL     1       3.012   0.840  22.997  0.00  0.00    +0.120 C 
BRANCH  31  32
ATOM     32  C   UNL     1       3.694   0.627  22.583  0.00  0.00    -0.005 C 
ATOM     33  C   UNL     1       4.430   0.908  22.826  0.00  0.00    -0.003 C 
ENDBRANCH  31  32
ENDBRANCH  29  31
ENDBRANCH   2  27
ENDBRANCH   3   2
BRANCH  14  16
ATOM     16  C   UNL     1      -5.626   1.378  25.518  0.00  0.00    +0.087 C 
BRANCH  16  17
ATOM     17  C   UNL     1      -6.072   2.070  25.574  0.00  0.00    +0.009 C 
ATOM     18  C   UNL     1      -6.518   2.763  25.629  0.00  0.00    +0.000 C 
ATOM     19  C   UNL     1      -6.405   1.914  24.835  0.00  0.00    +0.000 C 
ATOM     20  C   UNL     1      -5.739   2.225  26.312  0.00  0.00    +0.000 C 
ENDBRANCH  16  17
ENDBRANCH  14  16
TORSDOF 6
ENDMDL
