MODEL 1
REMARK VINA RESULT:     -10.7      0.000      0.000
REMARK  Name = 
REMARK  8 active torsions:
REMARK  status: ('A' for Active; 'I' for Inactive)
REMARK    1  A    between atoms: O_2  and  C_3
REMARK    2  A    between atoms: C_6  and  C_7
REMARK    3  A    between atoms: C_7  and  N_8
REMARK    4  A    between atoms: C_9  and  C_11
REMARK    5  A    between atoms: C_11  and  C_13
REMARK    6  A    between atoms: C_20  and  N_21
REMARK    7  A    between atoms: C_22  and  C_24
REMARK    8  A    between atoms: C_27  and  O_28
REMARK                            x       y       z     vdW  Elec       q    Type
REMARK                         _______ _______ _______ _____ _____    ______ ____
ROOT
ATOM     13  C   UNL     1      -3.066   2.666  24.651  0.00  0.00    +0.039 C 
ATOM     14  C   UNL     1      -2.890   3.060  25.355  0.00  0.00    +0.003 C 
ATOM     15  C   UNL     1      -2.106   3.152  25.592  0.00  0.00    +0.000 C 
ATOM     16  C   UNL     1      -1.497   2.850  25.125  0.00  0.00    +0.002 C 
ATOM     17  C   UNL     1      -1.321   3.243  25.828  0.00  0.00    +0.000 C 
ATOM     18  C   UNL     1      -0.711   2.941  25.361  0.00  0.00    +0.002 C 
ATOM     19  C   UNL     1      -0.102   2.640  24.895  0.00  0.00    +0.022 C 
ATOM     20  C   UNL     1      -0.278   2.246  24.191  0.00  0.00    +0.096 C 
ATOM     32  C   UNL     1      -1.062   2.154  23.955  0.00  0.00    +0.022 C 
ATOM     33  C   UNL     1      -1.238   1.760  23.251  0.00  0.00    +0.002 C 
ATOM     34  C   UNL     1      -1.672   2.456  24.421  0.00  0.00    +0.032 C 
ATOM     35  C   UNL     1      -2.457   2.364  24.185  0.00  0.00    +0.152 C 
ATOM     36  O   UNL     1      -2.632   1.971  23.481  0.00  0.00    -0.223 OA
ENDROOT
BRANCH  20  21
ATOM     21  N   UNL     1       0.332   1.944  23.724  0.00  0.00    -0.203 NA
ATOM     22  C   UNL     1       0.801   1.326  24.006  0.00  0.00    +0.265 C 
ATOM     23  O   UNL     1       0.659   1.009  24.755  0.00  0.00    -0.268 OA
BRANCH  22  24
ATOM     24  C   UNL     1       1.411   1.025  23.539  0.00  0.00    +0.055 A 
ATOM     25  C   UNL     1       2.131   1.423  23.493  0.00  0.00    +0.008 A 
ATOM     26  C   UNL     1       2.741   1.121  23.027  0.00  0.00    +0.037 A 
ATOM     27  C   UNL     1       2.630   0.420  22.606  0.00  0.00    +0.139 A 
ATOM     30  C   UNL     1       1.909   0.021  22.653  0.00  0.00    +0.037 A 
ATOM     31  C   UNL     1       1.300   0.323  23.119  0.00  0.00    +0.008 A 
BRANCH  27  28
ATOM     28  O   UNL     1       3.239   0.117  22.140  0.00  0.00    -0.471 OA
ATOM     29  C   UNL     1       4.012   0.389  22.243  0.00  0.00    +0.252 C 
ENDBRANCH  27  28
ENDBRANCH  22  24
ENDBRANCH  20  21
BRANCH  13  11
ATOM     11  C   UNL     1      -3.851   2.575  24.415  0.00  0.00    +0.081 C 
ATOM     12  C   UNL     1      -4.174   3.083  23.851  0.00  0.00    +0.010 C 
BRANCH  11   9
ATOM      8  N   UNL     1      -4.159   1.187  24.559  0.00  0.00    -0.201 NA
ATOM      9  C   UNL     1      -4.315   1.975  24.742  0.00  0.00    +0.241 C 
ATOM     10  O   UNL     1      -4.935   2.165  25.253  0.00  0.00    -0.273 OA
BRANCH   8   7
ATOM      7  C   UNL     1      -4.622   0.588  24.885  0.00  0.00    +0.141 C 
BRANCH   7   6
ATOM      3  C   UNL     1      -3.881  -1.769  24.746  0.00  0.00    +0.139 A 
ATOM      4  C   UNL     1      -3.727  -1.329  25.426  0.00  0.00    +0.037 A 
ATOM      5  C   UNL     1      -3.974  -0.543  25.472  0.00  0.00    +0.001 A 
ATOM      6  C   UNL     1      -4.375  -0.198  24.839  0.00  0.00    -0.000 A 
ATOM     37  C   UNL     1      -4.528  -0.639  24.159  0.00  0.00    +0.001 A 
ATOM     38  C   UNL     1      -4.282  -1.424  24.112  0.00  0.00    +0.037 A 
BRANCH   3   2
ATOM      1  C   UNL     1      -2.842  -2.731  24.551  0.00  0.00    +0.252 C 
ATOM      2  O   UNL     1      -3.634  -2.555  24.698  0.00  0.00    -0.471 OA
ENDBRANCH   3   2
ENDBRANCH   7   6
ENDBRANCH   8   7
ENDBRANCH  11   9
ENDBRANCH  13  11
TORSDOF 8
ENDMDL
MODEL 2
REMARK VINA RESULT:     -10.7      1.713      5.063
REMARK  Name = 
REMARK  8 active torsions:
REMARK  status: ('A' for Active; 'I' for Inactive)
REMARK    1  A    between atoms: O_2  and  C_3
REMARK    2  A    between atoms: C_6  and  C_7
REMARK    3  A    between atoms: C_7  and  N_8
REMARK    4  A    between atoms: C_9  and  C_11
REMARK    5  A    between atoms: C_11  and  C_13
REMARK    6  A    between atoms: C_20  and  N_21
REMARK    7  A    between atoms: C_22  and  C_24
REMARK    8  A    between atoms: C_27  and  O_28
REMARK                            x       y       z     vdW  Elec       q    Type
REMARK                         _______ _______ _______ _____ _____    ______ ____
ROOT
ATOM     13  C   UNL     1      -4.267   3.524  24.922  0.00  0.00    +0.039 C 
ATOM     14  C   UNL     1      -4.907   3.610  25.438  0.00  0.00    +0.003 C 
ATOM     15  C   UNL     1      -5.344   2.949  25.665  0.00  0.00    +0.000 C 
ATOM     16  C   UNL     1      -5.142   2.202  25.378  0.00  0.00    +0.002 C 
ATOM     17  C   UNL     1      -5.781   2.288  25.892  0.00  0.00    +0.000 C 
ATOM     18  C   UNL     1      -5.580   1.540  25.605  0.00  0.00    +0.002 C 
ATOM     19  C   UNL     1      -5.378   0.794  25.319  0.00  0.00    +0.022 C 
ATOM     20  C   UNL     1      -4.738   0.709  24.804  0.00  0.00    +0.096 C 
ATOM     32  C   UNL     1      -4.301   1.370  24.576  0.00  0.00    +0.022 C 
ATOM     33  C   UNL     1      -3.662   1.284  24.062  0.00  0.00    +0.002 C 
ATOM     34  C   UNL     1      -4.502   2.117  24.863  0.00  0.00    +0.032 C 
ATOM     35  C   UNL     1      -4.065   2.778  24.636  0.00  0.00    +0.152 C 
ATOM     36  O   UNL     1      -3.426   2.693  24.121  0.00  0.00    -0.223 OA
ENDROOT
BRANCH  20  21
ATOM     21  N   UNL     1      -4.537  -0.038  24.517  0.00  0.00    -0.203 NA
ATOM     22  C   UNL     1      -4.255  -0.616  25.033  0.00  0.00    +0.265 C 
ATOM     23  O   UNL     1      -4.174  -0.448  25.837  0.00  0.00    -0.268 OA
BRANCH  22  24
ATOM     24  C   UNL     1      -4.054  -1.364  24.746  0.00  0.00    +0.055 A 
ATOM     25  C   UNL     1      -4.373  -1.633  24.035  0.00  0.00    +0.008 A 
ATOM     26  C   UNL     1      -4.171  -2.380  23.748  0.00  0.00    +0.037 A 
ATOM     27  C   UNL     1      -3.651  -2.858  24.174  0.00  0.00    +0.139 A 
ATOM     30  C   UNL     1      -3.331  -2.588  24.886  0.00  0.00    +0.037 A 
ATOM     31  C   UNL     1      -3.533  -1.841  25.171  0.00  0.00    +0.008 A 
BRANCH  27  28
ATOM     28  O   UNL     1      -3.449  -3.605  23.888  0.00  0.00    -0.471 OA
ATOM     29  C   UNL     1      -2.702  -3.732  23.558  0.00  0.00    +0.252 C 
ENDBRANCH  27  28
ENDBRANCH  22  24
ENDBRANCH  20  21
BRANCH  13  11
ATOM     11  C   UNL     1      -3.829   4.186  24.695  0.00  0.00    +0.081 C 
ATOM     12  C   UNL     1      -4.094   4.662  24.076  0.00  0.00    +0.010 C 
BRANCH  11   9
ATOM      8  N   UNL     1      -2.405   4.116  24.785  0.00  0.00    -0.201 NA
ATOM      9  C   UNL     1      -3.128   4.373  25.087  0.00  0.00    +0.241 C 
ATOM     10  O   UNL     1      -3.150   4.817  25.783  0.00  0.00    -0.273 OA
BRANCH   8   7
ATOM      7  C   UNL     1      -1.704   4.303  25.176  0.00  0.00    +0.141 C 
BRANCH   7   6
ATOM      3  C   UNL     1       0.228   2.760  25.065  0.00  0.00    +0.139 A 
ATOM      4  C   UNL     1      -0.219   2.812  25.757  0.00  0.00    +0.037 A 
ATOM      5  C   UNL     1      -0.863   3.327  25.793  0.00  0.00    +0.001 A 
ATOM      6  C   UNL     1      -1.060   3.789  25.140  0.00  0.00    -0.000 A 
ATOM     37  C   UNL     1      -0.614   3.736  24.448  0.00  0.00    +0.001 A 
ATOM     38  C   UNL     1       0.030   3.222  24.410  0.00  0.00    +0.037 A 
BRANCH   3   2
ATOM      1  C   UNL     1       0.873   1.625  24.485  0.00  0.00    +0.252 C 
ATOM      2  O   UNL     1       0.872   2.246  25.027  0.00  0.00    -0.471 OA
ENDBRANCH   3   2
ENDBRANCH   7   6
ENDBRANCH   8   7
ENDBRANCH  11   9
ENDBRANCH  13  11
TORSDOF 8
ENDMDL
MODEL 3
REMARK VINA RESULT:     -10.5      1.573      3.598
REMARK  Name = 
REMARK  8 active torsions:
REMARK  status: ('A' for Active; 'I' for Inactive)
REMARK    1  A    between atoms: O_2  and  C_3
REMARK    2  A    between atoms: C_6  and  C_7
REMARK    3  A    between atoms: C_7  and  N_8
REMARK    4  A    between atoms: C_9  and  C_11
REMARK    5  A    between atoms: C_11  and  C_13
REMARK    6  A    between atoms: C_20  and  N_21
REMARK    7  A    between atoms: C_22  and  C_24
REMARK    8  A    between atoms: C_27  and  O_28
REMARK                            x       y       z     vdW  Elec       q    Type
REMARK                         _______ _______ _______ _____ _____    ______ ____
ROOT
ATOM     13  C   UNL     1      -4.350   0.559  24.953  0.00  0.00    +0.039 C 
ATOM     14  C   UNL     1      -4.388  -0.025  25.536  0.00  0.00    +0.003 C 
ATOM     15  C   UNL     1      -3.752  -0.537  25.649  0.00  0.00    +0.000 C 
ATOM     16  C   UNL     1      -3.078  -0.467  25.180  0.00  0.00    +0.002 C 
ATOM     17  C   UNL     1      -3.117  -1.050  25.762  0.00  0.00    +0.000 C 
ATOM     18  C   UNL     1      -2.441  -0.980  25.292  0.00  0.00    +0.002 C 
ATOM     19  C   UNL     1      -1.767  -0.911  24.823  0.00  0.00    +0.022 C 
ATOM     20  C   UNL     1      -1.729  -0.327  24.240  0.00  0.00    +0.096 C 
ATOM     32  C   UNL     1      -2.364   0.186  24.127  0.00  0.00    +0.022 C 
ATOM     33  C   UNL     1      -2.326   0.768  23.545  0.00  0.00    +0.002 C 
ATOM     34  C   UNL     1      -3.040   0.116  24.597  0.00  0.00    +0.032 C 
ATOM     35  C   UNL     1      -3.675   0.629  24.484  0.00  0.00    +0.152 C 
ATOM     36  O   UNL     1      -3.637   1.212  23.901  0.00  0.00    -0.223 OA
ENDROOT
BRANCH  20  21
ATOM     21  N   UNL     1      -1.053  -0.258  23.771  0.00  0.00    -0.203 NA
ATOM     22  C   UNL     1      -0.319  -0.124  24.121  0.00  0.00    +0.265 C 
ATOM     23  O   UNL     1      -0.259  -0.059  24.942  0.00  0.00    -0.268 OA
BRANCH  22  24
ATOM     24  C   UNL     1       0.356  -0.054  23.651  0.00  0.00    +0.055 A 
ATOM     25  C   UNL     1       0.544  -0.645  23.108  0.00  0.00    +0.008 A 
ATOM     26  C   UNL     1       1.219  -0.576  22.639  0.00  0.00    +0.037 A 
ATOM     27  C   UNL     1       1.706   0.086  22.713  0.00  0.00    +0.139 A 
ATOM     30  C   UNL     1       1.518   0.678  23.257  0.00  0.00    +0.037 A 
ATOM     31  C   UNL     1       0.843   0.608  23.725  0.00  0.00    +0.008 A 
BRANCH  27  28
ATOM     28  O   UNL     1       2.381   0.156  22.245  0.00  0.00    -0.471 OA
ATOM     29  C   UNL     1       3.100   0.377  22.587  0.00  0.00    +0.252 C 
ENDBRANCH  27  28
ENDBRANCH  22  24
ENDBRANCH  20  21
BRANCH  13  11
ATOM     11  C   UNL     1      -4.986   1.072  24.841  0.00  0.00    +0.081 C 
ATOM     12  C   UNL     1      -5.573   0.886  24.291  0.00  0.00    +0.010 C 
BRANCH  11   9
ATOM      8  N   UNL     1      -4.547   2.407  25.096  0.00  0.00    -0.201 NA
ATOM      9  C   UNL     1      -5.037   1.770  25.277  0.00  0.00    +0.241 C 
ATOM     10  O   UNL     1      -5.580   1.830  25.897  0.00  0.00    -0.273 OA
BRANCH   8   7
ATOM      7  C   UNL     1      -4.598   3.105  25.533  0.00  0.00    +0.141 C 
BRANCH   7   6
ATOM      3  C   UNL     1      -2.695   4.686  25.573  0.00  0.00    +0.139 A 
ATOM      4  C   UNL     1      -3.151   4.607  24.890  0.00  0.00    +0.037 A 
ATOM      5  C   UNL     1      -3.785   4.080  24.877  0.00  0.00    +0.001 A 
ATOM      6  C   UNL     1      -3.964   3.632  25.545  0.00  0.00    -0.000 A 
ATOM     37  C   UNL     1      -3.508   3.711  26.228  0.00  0.00    +0.001 A 
ATOM     38  C   UNL     1      -2.873   4.238  26.243  0.00  0.00    +0.037 A 
BRANCH   3   2
ATOM      1  C   UNL     1      -1.380   5.052  25.150  0.00  0.00    +0.252 C 
ATOM      2  O   UNL     1      -2.060   5.213  25.587  0.00  0.00    -0.471 OA
ENDBRANCH   3   2
ENDBRANCH   7   6
ENDBRANCH   8   7
ENDBRANCH  11   9
ENDBRANCH  13  11
TORSDOF 8
ENDMDL
MODEL 4
REMARK VINA RESULT:     -10.4      1.663      6.512
REMARK  Name = 
REMARK  8 active torsions:
REMARK  status: ('A' for Active; 'I' for Inactive)
REMARK    1  A    between atoms: O_2  and  C_3
REMARK    2  A    between atoms: C_6  and  C_7
REMARK    3  A    between atoms: C_7  and  N_8
REMARK    4  A    between atoms: C_9  and  C_11
REMARK    5  A    between atoms: C_11  and  C_13
REMARK    6  A    between atoms: C_20  and  N_21
REMARK    7  A    between atoms: C_22  and  C_24
REMARK    8  A    between atoms: C_27  and  O_28
REMARK                            x       y       z     vdW  Elec       q    Type
REMARK                         _______ _______ _______ _____ _____    ______ ____
ROOT
ATOM     13  C   UNL     1       0.178   0.622  23.812  0.00  0.00    +0.039 C 
ATOM     14  C   UNL     1       0.589   1.338  23.845  0.00  0.00    +0.003 C 
ATOM     15  C   UNL     1       0.212   2.018  24.118  0.00  0.00    +0.000 C 
ATOM     16  C   UNL     1      -0.576   1.984  24.358  0.00  0.00    +0.002 C 
ATOM     17  C   UNL     1      -0.166   2.698  24.391  0.00  0.00    +0.000 C 
ATOM     18  C   UNL     1      -0.955   2.664  24.631  0.00  0.00    +0.002 C 
ATOM     19  C   UNL     1      -1.743   2.630  24.871  0.00  0.00    +0.022 C 
ATOM     20  C   UNL     1      -2.154   1.914  24.837  0.00  0.00    +0.096 C 
ATOM     32  C   UNL     1      -1.776   1.235  24.564  0.00  0.00    +0.022 C 
ATOM     33  C   UNL     1      -2.187   0.520  24.531  0.00  0.00    +0.002 C 
ATOM     34  C   UNL     1      -0.988   1.268  24.324  0.00  0.00    +0.032 C 
ATOM     35  C   UNL     1      -0.610   0.588  24.051  0.00  0.00    +0.152 C 
ATOM     36  O   UNL     1      -1.020  -0.127  24.018  0.00  0.00    -0.223 OA
ENDROOT
BRANCH  20  21
ATOM     21  N   UNL     1      -2.943   1.881  25.077  0.00  0.00    -0.203 NA
ATOM     22  C   UNL     1      -3.479   2.449  24.813  0.00  0.00    +0.265 C 
ATOM     23  O   UNL     1      -3.227   3.052  24.309  0.00  0.00    -0.268 OA
BRANCH  22  24
ATOM     24  C   UNL     1      -4.268   2.415  25.053  0.00  0.00    +0.055 A 
ATOM     25  C   UNL     1      -4.766   1.830  24.755  0.00  0.00    +0.008 A 
ATOM     26  C   UNL     1      -5.555   1.796  24.995  0.00  0.00    +0.037 A 
ATOM     27  C   UNL     1      -5.845   2.349  25.534  0.00  0.00    +0.139 A 
ATOM     30  C   UNL     1      -5.347   2.936  25.833  0.00  0.00    +0.037 A 
ATOM     31  C   UNL     1      -4.559   2.968  25.592  0.00  0.00    +0.008 A 
BRANCH  27  28
ATOM     28  O   UNL     1      -6.634   2.317  25.775  0.00  0.00    -0.471 OA
ATOM     29  C   UNL     1      -6.840   1.895  26.454  0.00  0.00    +0.252 C 
ENDBRANCH  27  28
ENDBRANCH  22  24
ENDBRANCH  20  21
BRANCH  13  11
ATOM     11  C   UNL     1       0.557  -0.058  23.538  0.00  0.00    +0.081 C 
ATOM     12  C   UNL     1       0.358  -0.795  23.852  0.00  0.00    +0.010 C 
BRANCH  11   9
ATOM      8  N   UNL     1       1.933   0.007  23.157  0.00  0.00    -0.201 NA
ATOM      9  C   UNL     1       1.134  -0.003  22.951  0.00  0.00    +0.241 C 
ATOM     10  O   UNL     1       0.912   0.043  22.157  0.00  0.00    -0.273 OA
BRANCH   8   7
ATOM      7  C   UNL     1       2.509   0.062  22.571  0.00  0.00    +0.141 C 
BRANCH   7   6
ATOM      3  C   UNL     1       4.899   0.237  23.192  0.00  0.00    +0.139 A 
ATOM      4  C   UNL     1       4.487  -0.465  23.329  0.00  0.00    +0.037 A 
ATOM      5  C   UNL     1       3.691  -0.523  23.122  0.00  0.00    +0.001 A 
ATOM      6  C   UNL     1       3.306   0.120  22.778  0.00  0.00    -0.000 A 
ATOM     37  C   UNL     1       3.717   0.822  22.641  0.00  0.00    +0.001 A 
ATOM     38  C   UNL     1       4.514   0.881  22.848  0.00  0.00    +0.037 A 
BRANCH   3   2
ATOM      1  C   UNL     1       5.929   0.174  24.180  0.00  0.00    +0.252 C 
ATOM      2  O   UNL     1       5.695   0.296  23.399  0.00  0.00    -0.471 OA
ENDBRANCH   3   2
ENDBRANCH   7   6
ENDBRANCH   8   7
ENDBRANCH  11   9
ENDBRANCH  13  11
TORSDOF 8
ENDMDL
MODEL 5
REMARK VINA RESULT:     -10.4      1.765      3.627
REMARK  Name = 
REMARK  8 active torsions:
REMARK  status: ('A' for Active; 'I' for Inactive)
REMARK    1  A    between atoms: O_2  and  C_3
REMARK    2  A    between atoms: C_6  and  C_7
REMARK    3  A    between atoms: C_7  and  N_8
REMARK    4  A    between atoms: C_9  and  C_11
REMARK    5  A    between atoms: C_11  and  C_13
REMARK    6  A    between atoms: C_20  and  N_21
REMARK    7  A    between atoms: C_22  and  C_24
REMARK    8  A    between atoms: C_27  and  O_28
REMARK                            x       y       z     vdW  Elec       q    Type
REMARK                         _______ _______ _______ _____ _____    ______ ____
ROOT
ATOM     13  C   UNL     1      -2.953  -1.167  25.214  0.00  0.00    +0.039 C 
ATOM     14  C   UNL     1      -3.016  -1.934  24.913  0.00  0.00    +0.003 C 
ATOM     15  C   UNL     1      -2.385  -2.268  24.502  0.00  0.00    +0.000 C 
ATOM     16  C   UNL     1      -1.691  -1.838  24.391  0.00  0.00    +0.002 C 
ATOM     17  C   UNL     1      -1.754  -2.603  24.090  0.00  0.00    +0.000 C 
ATOM     18  C   UNL     1      -1.059  -2.172  23.979  0.00  0.00    +0.002 C 
ATOM     19  C   UNL     1      -0.364  -1.742  23.868  0.00  0.00    +0.022 C 
ATOM     20  C   UNL     1      -0.301  -0.976  24.169  0.00  0.00    +0.096 C 
ATOM     32  C   UNL     1      -0.932  -0.641  24.581  0.00  0.00    +0.022 C 
ATOM     33  C   UNL     1      -0.869   0.124  24.881  0.00  0.00    +0.002 C 
ATOM     34  C   UNL     1      -1.627  -1.071  24.692  0.00  0.00    +0.032 C 
ATOM     35  C   UNL     1      -2.258  -0.737  25.103  0.00  0.00    +0.152 C 
ATOM     36  O   UNL     1      -2.195   0.029  25.404  0.00  0.00    -0.223 OA
ENDROOT
BRANCH  20  21
ATOM     21  N   UNL     1       0.394  -0.545  24.058  0.00  0.00    -0.203 NA
ATOM     22  C   UNL     1       0.677  -0.407  23.296  0.00  0.00    +0.265 C 
ATOM     23  O   UNL     1       0.263  -0.699  22.643  0.00  0.00    -0.268 OA
BRANCH  22  24
ATOM     24  C   UNL     1       1.372   0.023  23.184  0.00  0.00    +0.055 A 
ATOM     25  C   UNL     1       1.438   0.787  23.487  0.00  0.00    +0.008 A 
ATOM     26  C   UNL     1       2.133   1.217  23.376  0.00  0.00    +0.037 A 
ATOM     27  C   UNL     1       2.763   0.883  22.961  0.00  0.00    +0.139 A 
ATOM     30  C   UNL     1       2.697   0.118  22.657  0.00  0.00    +0.037 A 
ATOM     31  C   UNL     1       2.001  -0.311  22.769  0.00  0.00    +0.008 A 
BRANCH  27  28
ATOM     28  O   UNL     1       3.458   1.312  22.849  0.00  0.00    -0.471 OA
ATOM     29  C   UNL     1       4.183   0.918  22.805  0.00  0.00    +0.252 C 
ENDBRANCH  27  28
ENDBRANCH  22  24
ENDBRANCH  20  21
BRANCH  13  11
ATOM     11  C   UNL     1      -3.585  -0.833  25.626  0.00  0.00    +0.081 C 
ATOM     12  C   UNL     1      -3.613  -0.883  26.449  0.00  0.00    +0.010 C 
BRANCH  11   9
ATOM      8  N   UNL     1      -4.361   0.342  25.380  0.00  0.00    -0.201 NA
ATOM      9  C   UNL     1      -4.189  -0.448  25.216  0.00  0.00    +0.241 C 
ATOM     10  O   UNL     1      -4.620  -0.854  24.641  0.00  0.00    -0.273 OA
BRANCH   8   7
ATOM      7  C   UNL     1      -4.965   0.726  24.970  0.00  0.00    +0.141 C 
BRANCH   7   6
ATOM      3  C   UNL     1      -5.355   3.145  25.318  0.00  0.00    +0.139 A 
ATOM      4  C   UNL     1      -5.776   2.591  25.762  0.00  0.00    +0.037 A 
ATOM      5  C   UNL     1      -5.646   1.785  25.646  0.00  0.00    +0.001 A 
ATOM      6  C   UNL     1      -5.095   1.532  25.087  0.00  0.00    -0.000 A 
ATOM     37  C   UNL     1      -4.674   2.086  24.643  0.00  0.00    +0.001 A 
ATOM     38  C   UNL     1      -4.803   2.892  24.758  0.00  0.00    +0.037 A 
BRANCH   3   2
ATOM      1  C   UNL     1      -4.845   4.466  25.503  0.00  0.00    +0.252 C 
ATOM      2  O   UNL     1      -5.484   3.951  25.433  0.00  0.00    -0.471 OA
ENDBRANCH   3   2
ENDBRANCH   7   6
ENDBRANCH   8   7
ENDBRANCH  11   9
ENDBRANCH  13  11
TORSDOF 8
ENDMDL
MODEL 6
REMARK VINA RESULT:     -10.2      1.717      6.404
REMARK  Name = 
REMARK  8 active torsions:
REMARK  status: ('A' for Active; 'I' for Inactive)
REMARK    1  A    between atoms: O_2  and  C_3
REMARK    2  A    between atoms: C_6  and  C_7
REMARK    3  A    between atoms: C_7  and  N_8
REMARK    4  A    between atoms: C_9  and  C_11
REMARK    5  A    between atoms: C_11  and  C_13
REMARK    6  A    between atoms: C_20  and  N_21
REMARK    7  A    between atoms: C_22  and  C_24
REMARK    8  A    between atoms: C_27  and  O_28
REMARK                            x       y       z     vdW  Elec       q    Type
REMARK                         _______ _______ _______ _____ _____    ______ ____
ROOT
ATOM     13  C   UNL     1      -1.510  -1.234  24.621  0.00  0.00    +0.039 C 
ATOM     14  C   UNL     1      -1.992  -1.880  24.442  0.00  0.00    +0.003 C 
ATOM     15  C   UNL     1      -2.812  -1.808  24.491  0.00  0.00    +0.000 C 
ATOM     16  C   UNL     1      -3.150  -1.092  24.719  0.00  0.00    +0.002 C 
ATOM     17  C   UNL     1      -3.632  -1.736  24.540  0.00  0.00    +0.000 C 
ATOM     18  C   UNL     1      -3.971  -1.019  24.769  0.00  0.00    +0.002 C 
ATOM     19  C   UNL     1      -4.309  -0.303  24.997  0.00  0.00    +0.022 C 
ATOM     20  C   UNL     1      -3.826   0.343  25.176  0.00  0.00    +0.096 C 
ATOM     32  C   UNL     1      -3.007   0.271  25.127  0.00  0.00    +0.022 C 
ATOM     33  C   UNL     1      -2.525   0.916  25.306  0.00  0.00    +0.002 C 
ATOM     34  C   UNL     1      -2.668  -0.446  24.899  0.00  0.00    +0.032 C 
ATOM     35  C   UNL     1      -1.848  -0.518  24.849  0.00  0.00    +0.152 C 
ATOM     36  O   UNL     1      -1.366   0.127  25.029  0.00  0.00    -0.223 OA
ENDROOT
BRANCH  20  21
ATOM     21  N   UNL     1      -4.166   1.059  25.405  0.00  0.00    -0.203 NA
ATOM     22  C   UNL     1      -4.778   1.387  24.961  0.00  0.00    +0.265 C 
ATOM     23  O   UNL     1      -5.053   0.997  24.286  0.00  0.00    -0.268 OA
BRANCH  22  24
ATOM     24  C   UNL     1      -5.117   2.103  25.189  0.00  0.00    +0.055 A 
ATOM     25  C   UNL     1      -4.780   2.816  24.947  0.00  0.00    +0.008 A 
ATOM     26  C   UNL     1      -5.119   3.532  25.176  0.00  0.00    +0.037 A 
ATOM     27  C   UNL     1      -5.796   3.536  25.647  0.00  0.00    +0.139 A 
ATOM     30  C   UNL     1      -6.134   2.823  25.889  0.00  0.00    +0.037 A 
ATOM     31  C   UNL     1      -5.794   2.107  25.660  0.00  0.00    +0.008 A 
BRANCH  27  28
ATOM     28  O   UNL     1      -6.136   4.252  25.876  0.00  0.00    -0.471 OA
ATOM     29  C   UNL     1      -5.942   4.947  25.475  0.00  0.00    +0.252 C 
ENDBRANCH  27  28
ENDBRANCH  22  24
ENDBRANCH  20  21
BRANCH  13  11
ATOM     11  C   UNL     1      -0.689  -1.307  24.572  0.00  0.00    +0.081 C 
ATOM     12  C   UNL     1      -0.250  -1.483  25.247  0.00  0.00    +0.010 C 
BRANCH  11   9
ATOM      8  N   UNL     1       0.278  -0.628  23.767  0.00  0.00    -0.201 NA
ATOM      9  C   UNL     1      -0.307  -1.203  23.847  0.00  0.00    +0.241 C 
ATOM     10  O   UNL     1      -0.512  -1.677  23.202  0.00  0.00    -0.273 OA
BRANCH   8   7
ATOM      7  C   UNL     1       0.659  -0.525  23.043  0.00  0.00    +0.141 C 
BRANCH   7   6
ATOM      3  C   UNL     1       2.749   0.795  22.918  0.00  0.00    +0.139 A 
ATOM      4  C   UNL     1       2.103   1.084  23.343  0.00  0.00    +0.037 A 
ATOM      5  C   UNL     1       1.407   0.643  23.384  0.00  0.00    +0.001 A 
ATOM      6  C   UNL     1       1.355  -0.085  23.002  0.00  0.00    -0.000 A 
ATOM     37  C   UNL     1       2.001  -0.374  22.577  0.00  0.00    +0.001 A 
ATOM     38  C   UNL     1       2.697   0.065  22.535  0.00  0.00    +0.037 A 
BRANCH   3   2
ATOM      1  C   UNL     1       4.175   0.851  22.866  0.00  0.00    +0.252 C 
ATOM      2  O   UNL     1       3.446   1.234  22.876  0.00  0.00    -0.471 OA
ENDBRANCH   3   2
ENDBRANCH   7   6
ENDBRANCH   8   7
ENDBRANCH  11   9
ENDBRANCH  13  11
TORSDOF 8
ENDMDL
MODEL 7
REMARK VINA RESULT:      -9.7      2.488      4.522
REMARK  Name = 
REMARK  8 active torsions:
REMARK  status: ('A' for Active; 'I' for Inactive)
REMARK    1  A    between atoms: O_2  and  C_3
REMARK    2  A    between atoms: C_6  and  C_7
REMARK    3  A    between atoms: C_7  and  N_8
REMARK    4  A    between atoms: C_9  and  C_11
REMARK    5  A    between atoms: C_11  and  C_13
REMARK    6  A    between atoms: C_20  and  N_21
REMARK    7  A    between atoms: C_22  and  C_24
REMARK    8  A    between atoms: C_27  and  O_28
REMARK                            x       y       z     vdW  Elec       q    Type
REMARK                         _______ _______ _______ _____ _____    ______ ____
ROOT
ATOM     13  C   UNL     1      -0.794   3.243  25.025  0.00  0.00    +0.039 C 
ATOM     14  C   UNL     1      -0.307   3.183  25.690  0.00  0.00    +0.003 C 
ATOM     15  C   UNL     1      -0.180   2.450  26.043  0.00  0.00    +0.000 C 
ATOM     16  C   UNL     1      -0.538   1.775  25.732  0.00  0.00    +0.002 C 
ATOM     17  C   UNL     1      -0.052   1.716  26.396  0.00  0.00    +0.000 C 
ATOM     18  C   UNL     1      -0.410   1.040  26.085  0.00  0.00    +0.002 C 
ATOM     19  C   UNL     1      -0.768   0.365  25.775  0.00  0.00    +0.022 C 
ATOM     20  C   UNL     1      -1.254   0.425  25.110  0.00  0.00    +0.096 C 
ATOM     32  C   UNL     1      -1.382   1.159  24.757  0.00  0.00    +0.022 C 
ATOM     33  C   UNL     1      -1.868   1.218  24.093  0.00  0.00    +0.002 C 
ATOM     34  C   UNL     1      -1.024   1.834  25.067  0.00  0.00    +0.032 C 
ATOM     35  C   UNL     1      -1.151   2.568  24.714  0.00  0.00    +0.152 C 
ATOM     36  O   UNL     1      -1.637   2.628  24.050  0.00  0.00    -0.223 OA
ENDROOT
BRANCH  20  21
ATOM     21  N   UNL     1      -1.612  -0.251  24.800  0.00  0.00    -0.203 NA
ATOM     22  C   UNL     1      -2.032  -0.760  25.294  0.00  0.00    +0.265 C 
ATOM     23  O   UNL     1      -2.094  -0.594  26.101  0.00  0.00    -0.268 OA
BRANCH  22  24
ATOM     24  C   UNL     1      -2.390  -1.436  24.984  0.00  0.00    +0.055 A 
ATOM     25  C   UNL     1      -1.926  -2.049  24.685  0.00  0.00    +0.008 A 
ATOM     26  C   UNL     1      -2.284  -2.724  24.375  0.00  0.00    +0.037 A 
ATOM     27  C   UNL     1      -3.106  -2.787  24.363  0.00  0.00    +0.139 A 
ATOM     30  C   UNL     1      -3.571  -2.173  24.662  0.00  0.00    +0.037 A 
ATOM     31  C   UNL     1      -3.212  -1.498  24.972  0.00  0.00    +0.008 A 
BRANCH  27  28
ATOM     28  O   UNL     1      -3.465  -3.461  24.053  0.00  0.00    -0.471 OA
ATOM     29  C   UNL     1      -4.201  -3.404  23.682  0.00  0.00    +0.252 C 
ENDBRANCH  27  28
ENDBRANCH  22  24
ENDBRANCH  20  21
BRANCH  13  11
ATOM     11  C   UNL     1      -0.921   3.978  24.672  0.00  0.00    +0.081 C 
ATOM     12  C   UNL     1      -0.435   4.228  24.054  0.00  0.00    +0.010 C 
BRANCH  11   9
ATOM      8  N   UNL     1      -2.310   4.188  24.931  0.00  0.00    -0.201 NA
ATOM      9  C   UNL     1      -1.534   4.463  24.936  0.00  0.00    +0.241 C 
ATOM     10  O   UNL     1      -1.368   5.226  25.206  0.00  0.00    -0.273 OA
BRANCH   8   7
ATOM      7  C   UNL     1      -2.922   4.673  25.195  0.00  0.00    +0.141 C 
BRANCH   7   6
ATOM      3  C   UNL     1      -5.148   3.707  25.686  0.00  0.00    +0.139 A 
ATOM      4  C   UNL     1      -4.965   3.954  24.920  0.00  0.00    +0.037 A 
ATOM      5  C   UNL     1      -4.223   4.276  24.757  0.00  0.00    +0.001 A 
ATOM      6  C   UNL     1      -3.664   4.351  25.358  0.00  0.00    -0.000 A 
ATOM     37  C   UNL     1      -3.847   4.104  26.124  0.00  0.00    +0.001 A 
ATOM     38  C   UNL     1      -4.588   3.781  26.288  0.00  0.00    +0.037 A 
BRANCH   3   2
ATOM      1  C   UNL     1      -6.004   2.570  25.806  0.00  0.00    +0.252 C 
ATOM      2  O   UNL     1      -5.889   3.385  25.850  0.00  0.00    -0.471 OA
ENDBRANCH   3   2
ENDBRANCH   7   6
ENDBRANCH   8   7
ENDBRANCH  11   9
ENDBRANCH  13  11
TORSDOF 8
ENDMDL
MODEL 8
REMARK VINA RESULT:      -9.1      1.911      2.902
REMARK  Name = 
REMARK  8 active torsions:
REMARK  status: ('A' for Active; 'I' for Inactive)
REMARK    1  A    between atoms: O_2  and  C_3
REMARK    2  A    between atoms: C_6  and  C_7
REMARK    3  A    between atoms: C_7  and  N_8
REMARK    4  A    between atoms: C_9  and  C_11
REMARK    5  A    between atoms: C_11  and  C_13
REMARK    6  A    between atoms: C_20  and  N_21
REMARK    7  A    between atoms: C_22  and  C_24
REMARK    8  A    between atoms: C_27  and  O_28
REMARK                            x       y       z     vdW  Elec       q    Type
REMARK                         _______ _______ _______ _____ _____    ______ ____
ROOT
ATOM     13  C   UNL     1      -1.604   2.220  24.398  0.00  0.00    +0.039 C 
ATOM     14  C   UNL     1      -2.053   1.548  24.228  0.00  0.00    +0.003 C 
ATOM     15  C   UNL     1      -1.681   0.854  23.984  0.00  0.00    +0.000 C 
ATOM     16  C   UNL     1      -0.860   0.830  23.911  0.00  0.00    +0.002 C 
ATOM     17  C   UNL     1      -1.309   0.160  23.741  0.00  0.00    +0.000 C 
ATOM     18  C   UNL     1      -0.487   0.135  23.667  0.00  0.00    +0.002 C 
ATOM     19  C   UNL     1       0.333   0.111  23.594  0.00  0.00    +0.022 C 
ATOM     20  C   UNL     1       0.783   0.783  23.764  0.00  0.00    +0.096 C 
ATOM     32  C   UNL     1       0.411   1.477  24.007  0.00  0.00    +0.022 C 
ATOM     33  C   UNL     1       0.860   2.148  24.177  0.00  0.00    +0.002 C 
ATOM     34  C   UNL     1      -0.411   1.501  24.081  0.00  0.00    +0.032 C 
ATOM     35  C   UNL     1      -0.783   2.196  24.324  0.00  0.00    +0.152 C 
ATOM     36  O   UNL     1      -0.334   2.866  24.494  0.00  0.00    -0.223 OA
ENDROOT
BRANCH  20  21
ATOM     21  N   UNL     1       1.605   0.758  23.690  0.00  0.00    -0.203 NA
ATOM     22  C   UNL     1       1.951   0.342  23.069  0.00  0.00    +0.265 C 
ATOM     23  O   UNL     1       1.476  -0.050  22.519  0.00  0.00    -0.268 OA
BRANCH  22  24
ATOM     24  C   UNL     1       2.773   0.318  22.995  0.00  0.00    +0.055 A 
ATOM     25  C   UNL     1       3.187   0.992  22.765  0.00  0.00    +0.008 A 
ATOM     26  C   UNL     1       4.009   0.968  22.691  0.00  0.00    +0.037 A 
ATOM     27  C   UNL     1       4.415   0.267  22.848  0.00  0.00    +0.139 A 
ATOM     30  C   UNL     1       4.001  -0.408  23.079  0.00  0.00    +0.037 A 
ATOM     31  C   UNL     1       3.180  -0.383  23.152  0.00  0.00    +0.008 A 
BRANCH  27  28
ATOM     28  O   UNL     1       5.237   0.242  22.775  0.00  0.00    -0.471 OA
ATOM     29  C   UNL     1       5.708   0.161  23.448  0.00  0.00    +0.252 C 
ENDBRANCH  27  28
ENDBRANCH  22  24
ENDBRANCH  20  21
BRANCH  13  11
ATOM     11  C   UNL     1      -1.977   2.914  24.641  0.00  0.00    +0.081 C 
ATOM     12  C   UNL     1      -1.590   3.431  25.156  0.00  0.00    +0.010 C 
BRANCH  11   9
ATOM      8  N   UNL     1      -3.389   2.960  24.856  0.00  0.00    -0.201 NA
ATOM      9  C   UNL     1      -2.736   3.093  24.371  0.00  0.00    +0.241 C 
ATOM     10  O   UNL     1      -2.841   3.405  23.614  0.00  0.00    -0.273 OA
BRANCH   8   7
ATOM      7  C   UNL     1      -4.147   3.139  24.586  0.00  0.00    +0.141 C 
BRANCH   7   6
ATOM      3  C   UNL     1      -6.127   2.206  25.742  0.00  0.00    +0.139 A 
ATOM      4  C   UNL     1      -5.882   1.888  25.022  0.00  0.00    +0.037 A 
ATOM      5  C   UNL     1      -5.222   2.199  24.637  0.00  0.00    +0.001 A 
ATOM      6  C   UNL     1      -4.807   2.828  24.971  0.00  0.00    -0.000 A 
ATOM     37  C   UNL     1      -5.052   3.147  25.692  0.00  0.00    +0.001 A 
ATOM     38  C   UNL     1      -5.712   2.836  26.078  0.00  0.00    +0.037 A 
BRANCH   3   2
ATOM      1  C   UNL     1      -6.697   1.501  26.845  0.00  0.00    +0.252 C 
ATOM      2  O   UNL     1      -6.787   1.896  26.128  0.00  0.00    -0.471 OA
ENDBRANCH   3   2
ENDBRANCH   7   6
ENDBRANCH   8   7
ENDBRANCH  11   9
ENDBRANCH  13  11
TORSDOF 8
ENDMDL
MODEL 9
REMARK VINA RESULT:      -7.8     15.373     17.865
REMARK  Name = 
REMARK  8 active torsions:
REMARK  status: ('A' for Active; 'I' for Inactive)
REMARK    1  A    between atoms: O_2  and  C_3
REMARK    2  A    between atoms: C_6  and  C_7
REMARK    3  A    between atoms: C_7  and  N_8
REMARK    4  A    between atoms: C_9  and  C_11
REMARK    5  A    between atoms: C_11  and  C_13
REMARK    6  A    between atoms: C_20  and  N_21
REMARK    7  A    between atoms: C_22  and  C_24
REMARK    8  A    between atoms: C_27  and  O_28
REMARK                            x       y       z     vdW  Elec       q    Type
REMARK                         _______ _______ _______ _____ _____    ______ ____
ROOT
ATOM     13  C   UNL     1      -6.951  -9.289   9.902  0.00  0.00    +0.039 C 
ATOM     14  C   UNL     1      -6.152  -9.268   9.692  0.00  0.00    +0.003 C 
ATOM     15  C   UNL     1      -5.572  -9.326  10.275  0.00  0.00    +0.000 C 
ATOM     16  C   UNL     1      -5.788  -9.404  11.067  0.00  0.00    +0.002 C 
ATOM     17  C   UNL     1      -4.992  -9.383  10.858  0.00  0.00    +0.000 C 
ATOM     18  C   UNL     1      -5.208  -9.462  11.650  0.00  0.00    +0.002 C 
ATOM     19  C   UNL     1      -5.425  -9.540  12.442  0.00  0.00    +0.022 C 
ATOM     20  C   UNL     1      -6.223  -9.561  12.651  0.00  0.00    +0.096 C 
ATOM     32  C   UNL     1      -6.804  -9.503  12.068  0.00  0.00    +0.022 C 
ATOM     33  C   UNL     1      -7.601  -9.524  12.278  0.00  0.00    +0.002 C 
ATOM     34  C   UNL     1      -6.587  -9.425  11.276  0.00  0.00    +0.032 C 
ATOM     35  C   UNL     1      -7.167  -9.367  10.693  0.00  0.00    +0.152 C 
ATOM     36  O   UNL     1      -7.965  -9.388  10.902  0.00  0.00    -0.223 OA
ENDROOT
BRANCH  20  21
ATOM     21  N   UNL     1      -6.440  -9.640  13.444  0.00  0.00    -0.203 NA
ATOM     22  C   UNL     1      -5.924  -9.995  13.979  0.00  0.00    +0.265 C 
ATOM     23  O   UNL     1      -5.190 -10.274  13.723  0.00  0.00    -0.268 OA
BRANCH  22  24
ATOM     24  C   UNL     1      -6.140 -10.074  14.772  0.00  0.00    +0.055 A 
ATOM     25  C   UNL     1      -6.773 -10.558  14.981  0.00  0.00    +0.008 A 
ATOM     26  C   UNL     1      -6.990 -10.637  15.773  0.00  0.00    +0.037 A 
ATOM     27  C   UNL     1      -6.572 -10.230  16.357  0.00  0.00    +0.139 A 
ATOM     30  C   UNL     1      -5.937  -9.744  16.148  0.00  0.00    +0.037 A 
ATOM     31  C   UNL     1      -5.722  -9.667  15.355  0.00  0.00    +0.008 A 
BRANCH  27  28
ATOM     28  O   UNL     1      -6.787 -10.307  17.149  0.00  0.00    -0.471 OA
ATOM     29  C   UNL     1      -6.227 -10.547  17.707  0.00  0.00    +0.252 C 
ENDBRANCH  27  28
ENDBRANCH  22  24
ENDBRANCH  20  21
BRANCH  13  11
ATOM     11  C   UNL     1      -7.531  -9.231   9.318  0.00  0.00    +0.081 C 
ATOM     12  C   UNL     1      -8.154  -9.772   9.301  0.00  0.00    +0.010 C 
BRANCH  11   9
ATOM      8  N   UNL     1      -7.981  -7.973   8.811  0.00  0.00    -0.201 NA
ATOM      9  C   UNL     1      -7.490  -8.633   8.751  0.00  0.00    +0.241 C 
ATOM     10  O   UNL     1      -6.957  -8.695   8.124  0.00  0.00    -0.273 OA
BRANCH   8   7
ATOM      7  C   UNL     1      -7.939  -7.376   8.244  0.00  0.00    +0.141 C 
BRANCH   7   6
ATOM      3  C   UNL     1      -9.297  -5.323   8.506  0.00  0.00    +0.139 A 
ATOM      4  C   UNL     1      -8.475  -5.270   8.460  0.00  0.00    +0.037 A 
ATOM      5  C   UNL     1      -8.023  -5.955   8.373  0.00  0.00    +0.001 A 
ATOM      6  C   UNL     1      -8.391  -6.691   8.332  0.00  0.00    -0.000 A 
ATOM     37  C   UNL     1      -9.214  -6.743   8.377  0.00  0.00    +0.001 A 
ATOM     38  C   UNL     1      -9.667  -6.060   8.465  0.00  0.00    +0.037 A 
BRANCH   3   2
ATOM      1  C   UNL     1     -10.515  -4.687   8.898  0.00  0.00    +0.252 C 
ATOM      2  O   UNL     1      -9.750  -4.639   8.593  0.00  0.00    -0.471 OA
ENDBRANCH   3   2
ENDBRANCH   7   6
ENDBRANCH   8   7
ENDBRANCH  11   9
ENDBRANCH  13  11
TORSDOF 8
ENDMDL
MODEL 10
REMARK VINA RESULT:      -7.4     16.409     18.385
REMARK  Name = 
REMARK  8 active torsions:
REMARK  status: ('A' for Active; 'I' for Inactive)
REMARK    1  A    between atoms: O_2  and  C_3
REMARK    2  A    between atoms: C_6  and  C_7
REMARK    3  A    between atoms: C_7  and  N_8
REMARK    4  A    between atoms: C_9  and  C_11
REMARK    5  A    between atoms: C_11  and  C_13
REMARK    6  A    between atoms: C_20  and  N_21
REMARK    7  A    between atoms: C_22  and  C_24
REMARK    8  A    between atoms: C_27  and  O_28
REMARK                            x       y       z     vdW  Elec       q    Type
REMARK                         _______ _______ _______ _____ _____    ______ ____
ROOT
ATOM     13  C   UNL     1      -7.242  -9.126   9.282  0.00  0.00    +0.039 C 
ATOM     14  C   UNL     1      -6.935  -9.132   8.515  0.00  0.00    +0.003 C 
ATOM     15  C   UNL     1      -6.144  -9.326   8.389  0.00  0.00    +0.000 C 
ATOM     16  C   UNL     1      -5.658  -9.515   9.029  0.00  0.00    +0.002 C 
ATOM     17  C   UNL     1      -5.352  -9.520   8.264  0.00  0.00    +0.000 C 
ATOM     18  C   UNL     1      -4.866  -9.709   8.903  0.00  0.00    +0.002 C 
ATOM     19  C   UNL     1      -4.381  -9.897   9.543  0.00  0.00    +0.022 C 
ATOM     20  C   UNL     1      -4.688  -9.891  10.310  0.00  0.00    +0.096 C 
ATOM     32  C   UNL     1      -5.479  -9.697  10.435  0.00  0.00    +0.022 C 
ATOM     33  C   UNL     1      -5.786  -9.691  11.201  0.00  0.00    +0.002 C 
ATOM     34  C   UNL     1      -5.965  -9.509   9.796  0.00  0.00    +0.032 C 
ATOM     35  C   UNL     1      -6.756  -9.315   9.921  0.00  0.00    +0.152 C 
ATOM     36  O   UNL     1      -7.063  -9.309  10.687  0.00  0.00    -0.223 OA
ENDROOT
BRANCH  20  21
ATOM     21  N   UNL     1      -4.202 -10.080  10.949  0.00  0.00    -0.203 NA
ATOM     22  C   UNL     1      -3.405  -9.871  10.938  0.00  0.00    +0.265 C 
ATOM     23  O   UNL     1      -3.092  -9.473  10.285  0.00  0.00    -0.268 OA
BRANCH  22  24
ATOM     24  C   UNL     1      -2.919 -10.060  11.577  0.00  0.00    +0.055 A 
ATOM     25  C   UNL     1      -3.248 -10.355  12.273  0.00  0.00    +0.008 A 
ATOM     26  C   UNL     1      -2.762 -10.543  12.913  0.00  0.00    +0.037 A 
ATOM     27  C   UNL     1      -1.946 -10.436  12.856  0.00  0.00    +0.139 A 
ATOM     30  C   UNL     1      -1.616 -10.141  12.159  0.00  0.00    +0.037 A 
ATOM     31  C   UNL     1      -2.103  -9.953  11.520  0.00  0.00    +0.008 A 
BRANCH  27  28
ATOM     28  O   UNL     1      -1.459 -10.624  13.494  0.00  0.00    -0.471 OA
ATOM     29  C   UNL     1      -1.724 -10.498  14.266  0.00  0.00    +0.252 C 
ENDBRANCH  27  28
ENDBRANCH  22  24
ENDBRANCH  20  21
BRANCH  13  11
ATOM     11  C   UNL     1      -8.034  -8.932   9.407  0.00  0.00    +0.081 C 
ATOM     12  C   UNL     1      -8.398  -9.128  10.121  0.00  0.00    +0.010 C 
BRANCH  11   9
ATOM      8  N   UNL     1      -8.690  -7.757   8.927  0.00  0.00    -0.201 NA
ATOM      9  C   UNL     1      -8.462  -8.542   8.820  0.00  0.00    +0.241 C 
ATOM     10  O   UNL     1      -8.663  -8.938   8.124  0.00  0.00    -0.273 OA
BRANCH   8   7
ATOM      7  C   UNL     1      -9.118  -7.368   8.340  0.00  0.00    +0.141 C 
BRANCH   7   6
ATOM      3  C   UNL     1     -10.130  -5.157   8.803  0.00  0.00    +0.139 A 
ATOM      4  C   UNL     1     -10.592  -5.839   8.846  0.00  0.00    +0.037 A 
ATOM      5  C   UNL     1     -10.254  -6.576   8.692  0.00  0.00    +0.001 A 
ATOM      6  C   UNL     1      -9.456  -6.631   8.494  0.00  0.00    -0.000 A 
ATOM     37  C   UNL     1      -8.994  -5.949   8.451  0.00  0.00    +0.001 A 
ATOM     38  C   UNL     1      -9.331  -5.211   8.605  0.00  0.00    +0.037 A 
BRANCH   3   2
ATOM      1  C   UNL     1     -10.014  -3.735   8.880  0.00  0.00    +0.252 C 
ATOM      2  O   UNL     1     -10.467  -4.420   8.957  0.00  0.00    -0.471 OA
ENDBRANCH   3   2
ENDBRANCH   7   6
ENDBRANCH   8   7
ENDBRANCH  11   9
ENDBRANCH  13  11
TORSDOF 8
ENDMDL
