REMARK  Name = 
REMARK  8 active torsions:
REMARK  status: ('A' for Active; 'I' for Inactive)
REMARK    1  A    between atoms: O_2  and  C_3
REMARK    2  A    between atoms: C_6  and  C_7
REMARK    3  A    between atoms: C_7  and  C_8
REMARK    4  A    between atoms: C_8  and  N_9
REMARK    5  A    between atoms: C_8  and  C_29
REMARK    6  A    between atoms: C_10  and  C_12
REMARK    7  A    between atoms: C_14  and  N_15
REMARK    8  A    between atoms: C_16  and  C_18
REMARK                            x       y       z     vdW  Elec       q    Type
REMARK                         _______ _______ _______ _____ _____    ______ ____
ROOT
ATOM     12  C   UNL     1      -0.715  -6.188   0.000  0.00  0.00    +0.033 C 
ATOM     13  C   UNL     1      -0.715  -7.013   0.000  0.00  0.00    -0.002 C 
ATOM     14  C   UNL     1      -1.429  -7.425   0.000  0.00  0.00    +0.150 C 
ATOM     24  C   UNL     1      -2.143  -7.013   0.000  0.00  0.00    +0.206 C 
ATOM     25  O   UNL     1      -2.858  -7.425   0.000  0.00  0.00    -0.218 OA
ATOM     26  C   UNL     1      -2.143  -6.188   0.000  0.00  0.00    +0.189 C 
ATOM     27  O   UNL     1      -2.858  -5.775   0.000  0.00  0.00    -0.220 OA
ATOM     28  C   UNL     1      -1.429  -5.775   0.000  0.00  0.00    +0.066 C 
ENDROOT
BRANCH  12  10
ATOM      9  N   UNL     1       0.000  -4.950   0.000  0.00  0.00    -0.194 NA
ATOM     10  C   UNL     1       0.000  -5.775   0.000  0.00  0.00    +0.261 C 
ATOM     11  O   UNL     1       0.715  -6.188   0.000  0.00  0.00    -0.269 OA
BRANCH   9   8
ATOM      8  C   UNL     1       0.715  -4.537   0.000  0.00  0.00    +0.179 C 
BRANCH   8  29
ATOM     29  C   UNL     1       1.429  -4.950   0.000  0.00  0.00    +0.281 C 
ATOM     30  N   UNL     1       1.429  -5.775   0.000  0.00  0.00    -0.086 NA
ATOM     31  O   UNL     1       2.143  -4.537   0.000  0.00  0.00    -0.270 OA
ENDBRANCH   8  29
BRANCH   8   7
ATOM      7  C   UNL     1       0.715  -3.712   0.000  0.00  0.00    +0.057 C 
BRANCH   7   6
ATOM      3  C   UNL     1       2.858  -2.475   0.000  0.00  0.00    +0.139 A 
ATOM      4  C   UNL     1       2.858  -3.300   0.000  0.00  0.00    +0.037 A 
ATOM      5  C   UNL     1       2.143  -3.712   0.000  0.00  0.00    -0.001 A 
ATOM      6  C   UNL     1       1.429  -3.300   0.000  0.00  0.00    -0.020 A 
ATOM     32  C   UNL     1       1.429  -2.475   0.000  0.00  0.00    -0.001 A 
ATOM     33  C   UNL     1       2.143  -2.062   0.000  0.00  0.00    +0.037 A 
BRANCH   3   2
ATOM      1  C   UNL     1       3.572  -1.238   0.000  0.00  0.00    +0.252 C 
ATOM      2  O   UNL     1       3.572  -2.062   0.000  0.00  0.00    -0.471 OA
ENDBRANCH   3   2
ENDBRANCH   7   6
ENDBRANCH   8   7
ENDBRANCH   9   8
ENDBRANCH  12  10
BRANCH  14  15
ATOM     15  N   UNL     1      -1.429  -8.250   0.000  0.00  0.00    -0.196 NA
ATOM     16  C   UNL     1      -0.715  -8.662   0.000  0.00  0.00    +0.267 C 
ATOM     17  O   UNL     1       0.000  -8.250   0.000  0.00  0.00    -0.268 OA
BRANCH  16  18
ATOM     18  C   UNL     1      -0.715  -9.488   0.000  0.00  0.00    +0.074 A 
ATOM     19  C   UNL     1       0.000  -9.900   0.000  0.00  0.00    +0.103 A 
ATOM     20  N   UNL     1       0.000 -10.725   0.000  0.00  0.00    -0.242 NA
ATOM     21  C   UNL     1      -0.715 -11.137   0.000  0.00  0.00    +0.099 A 
ATOM     22  C   UNL     1      -1.429 -10.725   0.000  0.00  0.00    +0.021 A 
ATOM     23  C   UNL     1      -1.429  -9.900   0.000  0.00  0.00    +0.008 A 
ENDBRANCH  16  18
ENDBRANCH  14  15
TORSDOF 8
