MODEL 1
REMARK VINA RESULT:     -12.6      0.000      0.000
REMARK  Name = 
REMARK  6 active torsions:
REMARK  status: ('A' for Active; 'I' for Inactive)
REMARK    1  A    between atoms: O_2  and  C_3
REMARK    2  A    between atoms: C_3  and  C_4
REMARK    3  A    between atoms: C_4  and  C_5
REMARK    4  A    between atoms: N_7  and  C_8
REMARK    5  A    between atoms: C_15  and  C_16
REMARK    6  A    between atoms: C_16  and  C_18
REMARK                            x       y       z     vdW  Elec       q    Type
REMARK                         _______ _______ _______ _____ _____    ______ ____
ROOT
ATOM      8  C   UNL     1      -3.742   3.267  24.818  0.00  0.00    +0.095 C 
ATOM      9  C   UNL     1      -4.448   3.373  25.230  0.00  0.00    +0.022 C 
ATOM     10  C   UNL     1      -4.932   2.725  25.396  0.00  0.00    +0.002 C 
ATOM     11  C   UNL     1      -4.708   1.971  25.148  0.00  0.00    +0.002 C 
ATOM     12  C   UNL     1      -5.415   2.078  25.562  0.00  0.00    +0.000 C 
ATOM     13  C   UNL     1      -5.192   1.323  25.314  0.00  0.00    +0.000 C 
ATOM     14  C   UNL     1      -4.969   0.568  25.067  0.00  0.00    +0.003 C 
ATOM     15  C   UNL     1      -4.263   0.461  24.654  0.00  0.00    +0.039 C 
ATOM     26  C   UNL     1      -3.780   1.108  24.488  0.00  0.00    +0.152 C 
ATOM     27  O   UNL     1      -3.073   1.001  24.075  0.00  0.00    -0.223 OA
ATOM     28  C   UNL     1      -4.003   1.864  24.736  0.00  0.00    +0.032 C 
ATOM     29  C   UNL     1      -3.519   2.511  24.570  0.00  0.00    +0.022 C 
ATOM     30  C   UNL     1      -2.813   2.404  24.157  0.00  0.00    +0.002 C 
ENDROOT
BRANCH   8   7
ATOM      5  C   UNL     1      -2.920   4.344  25.270  0.00  0.00    +0.244 C 
ATOM      6  O   UNL     1      -3.065   4.127  26.051  0.00  0.00    -0.273 OA
ATOM      7  N   UNL     1      -3.259   3.914  24.652  0.00  0.00    -0.207 NA
BRANCH   5   4
ATOM      4  C   UNL     1      -2.436   4.992  25.104  0.00  0.00    +0.119 C 
BRANCH   4   3
ATOM      3  C   UNL     1      -1.644   4.984  25.336  0.00  0.00    +0.152 C 
BRANCH   3   2
ATOM      1  C   UNL     1      -0.414   5.292  24.677  0.00  0.00    +0.174 C 
ATOM      2  O   UNL     1      -1.119   5.541  25.027  0.00  0.00    -0.351 OA
ENDBRANCH   3   2
ENDBRANCH   4   3
ENDBRANCH   5   4
ENDBRANCH   8   7
BRANCH  15  16
ATOM     16  C   UNL     1      -4.040  -0.293  24.407  0.00  0.00    +0.079 C 
ATOM     17  C   UNL     1      -4.094  -0.499  23.610  0.00  0.00    +0.010 C 
BRANCH  16  18
ATOM     18  C   UNL     1      -3.762  -0.842  24.957  0.00  0.00    +0.225 C 
ATOM     19  O   UNL     1      -3.511  -0.590  25.701  0.00  0.00    -0.275 OA
ATOM     20  N   UNL     1      -3.736  -1.644  24.763  0.00  0.00    -0.280 N 
ATOM     21  C   UNL     1      -3.458  -2.192  25.313  0.00  0.00    +0.093 C 
ATOM     22  C   UNL     1      -3.432  -2.994  25.119  0.00  0.00    +0.022 C 
ATOM     23  C   UNL     1      -3.683  -3.246  24.375  0.00  0.00    +0.004 C 
ATOM     24  C   UNL     1      -3.960  -2.698  23.825  0.00  0.00    +0.022 C 
ATOM     25  C   UNL     1      -3.987  -1.897  24.019  0.00  0.00    +0.093 C 
ENDBRANCH  16  18
ENDBRANCH  15  16
TORSDOF 6
ENDMDL
MODEL 2
REMARK VINA RESULT:     -11.2      2.771      4.569
REMARK  Name = 
REMARK  6 active torsions:
REMARK  status: ('A' for Active; 'I' for Inactive)
REMARK    1  A    between atoms: O_2  and  C_3
REMARK    2  A    between atoms: C_3  and  C_4
REMARK    3  A    between atoms: C_4  and  C_5
REMARK    4  A    between atoms: N_7  and  C_8
REMARK    5  A    between atoms: C_15  and  C_16
REMARK    6  A    between atoms: C_16  and  C_18
REMARK                            x       y       z     vdW  Elec       q    Type
REMARK                         _______ _______ _______ _____ _____    ______ ____
ROOT
ATOM      8  C   UNL     1      -0.393   1.523  24.452  0.00  0.00    +0.095 C 
ATOM      9  C   UNL     1      -0.009   1.941  25.050  0.00  0.00    +0.022 C 
ATOM     10  C   UNL     1      -0.410   2.533  25.463  0.00  0.00    +0.002 C 
ATOM     11  C   UNL     1      -1.194   2.707  25.276  0.00  0.00    +0.002 C 
ATOM     12  C   UNL     1      -0.810   3.125  25.876  0.00  0.00    +0.000 C 
ATOM     13  C   UNL     1      -1.595   3.299  25.689  0.00  0.00    +0.000 C 
ATOM     14  C   UNL     1      -2.379   3.473  25.502  0.00  0.00    +0.003 C 
ATOM     15  C   UNL     1      -2.763   3.055  24.904  0.00  0.00    +0.039 C 
ATOM     26  C   UNL     1      -2.363   2.464  24.491  0.00  0.00    +0.152 C 
ATOM     27  O   UNL     1      -2.747   2.046  23.892  0.00  0.00    -0.223 OA
ATOM     28  C   UNL     1      -1.578   2.289  24.678  0.00  0.00    +0.032 C 
ATOM     29  C   UNL     1      -1.178   1.698  24.265  0.00  0.00    +0.022 C 
ATOM     30  C   UNL     1      -1.562   1.280  23.666  0.00  0.00    +0.002 C 
ENDROOT
BRANCH   8   7
ATOM      5  C   UNL     1       0.789   1.051  23.802  0.00  0.00    +0.244 C 
ATOM      6  O   UNL     1       1.169   1.760  23.977  0.00  0.00    -0.273 OA
ATOM      7  N   UNL     1       0.007   0.932  24.039  0.00  0.00    -0.207 NA
BRANCH   5   4
ATOM      4  C   UNL     1       1.188   0.459  23.389  0.00  0.00    +0.119 C 
BRANCH   4   3
ATOM      3  C   UNL     1       1.937   0.610  23.075  0.00  0.00    +0.152 C 
BRANCH   3   2
ATOM      1  C   UNL     1       3.071   0.144  22.340  0.00  0.00    +0.174 C 
ATOM      2  O   UNL     1       2.271   0.081  22.537  0.00  0.00    -0.351 OA
ENDBRANCH   3   2
ENDBRANCH   4   3
ENDBRANCH   5   4
ENDBRANCH   8   7
BRANCH  15  16
ATOM     16  C   UNL     1      -3.547   3.229  24.717  0.00  0.00    +0.079 C 
ATOM     17  C   UNL     1      -3.779   3.298  23.928  0.00  0.00    +0.010 C 
BRANCH  16  18
ATOM     18  C   UNL     1      -4.101   3.334  25.321  0.00  0.00    +0.225 C 
ATOM     19  O   UNL     1      -3.974   3.904  25.902  0.00  0.00    -0.275 OA
ATOM     20  N   UNL     1      -4.783   2.869  25.341  0.00  0.00    -0.280 N 
ATOM     21  C   UNL     1      -5.336   2.974  25.944  0.00  0.00    +0.093 C 
ATOM     22  C   UNL     1      -6.016   2.509  25.964  0.00  0.00    +0.022 C 
ATOM     23  C   UNL     1      -6.144   1.938  25.382  0.00  0.00    +0.004 C 
ATOM     24  C   UNL     1      -5.591   1.833  24.780  0.00  0.00    +0.022 C 
ATOM     25  C   UNL     1      -4.910   2.298  24.759  0.00  0.00    +0.093 C 
ENDBRANCH  16  18
ENDBRANCH  15  16
TORSDOF 6
ENDMDL
MODEL 3
REMARK VINA RESULT:     -10.9      1.009      5.107
REMARK  Name = 
REMARK  6 active torsions:
REMARK  status: ('A' for Active; 'I' for Inactive)
REMARK    1  A    between atoms: O_2  and  C_3
REMARK    2  A    between atoms: C_3  and  C_4
REMARK    3  A    between atoms: C_4  and  C_5
REMARK    4  A    between atoms: N_7  and  C_8
REMARK    5  A    between atoms: C_15  and  C_16
REMARK    6  A    between atoms: C_16  and  C_18
REMARK                            x       y       z     vdW  Elec       q    Type
REMARK                         _______ _______ _______ _____ _____    ______ ____
ROOT
ATOM      8  C   UNL     1      -4.255  -0.084  24.457  0.00  0.00    +0.095 C 
ATOM      9  C   UNL     1      -4.903  -0.027  24.964  0.00  0.00    +0.022 C 
ATOM     10  C   UNL     1      -5.154   0.713  25.232  0.00  0.00    +0.002 C 
ATOM     11  C   UNL     1      -4.757   1.394  24.991  0.00  0.00    +0.002 C 
ATOM     12  C   UNL     1      -5.406   1.451  25.499  0.00  0.00    +0.000 C 
ATOM     13  C   UNL     1      -5.009   2.134  25.258  0.00  0.00    +0.000 C 
ATOM     14  C   UNL     1      -4.612   2.816  25.018  0.00  0.00    +0.003 C 
ATOM     15  C   UNL     1      -3.965   2.759  24.511  0.00  0.00    +0.039 C 
ATOM     26  C   UNL     1      -3.713   2.021  24.244  0.00  0.00    +0.152 C 
ATOM     27  O   UNL     1      -3.065   1.964  23.736  0.00  0.00    -0.223 OA
ATOM     28  C   UNL     1      -4.110   1.338  24.484  0.00  0.00    +0.032 C 
ATOM     29  C   UNL     1      -3.858   0.599  24.217  0.00  0.00    +0.022 C 
ATOM     30  C   UNL     1      -3.210   0.543  23.709  0.00  0.00    +0.002 C 
ENDROOT
BRANCH   8   7
ATOM      5  C   UNL     1      -3.803  -1.411  24.733  0.00  0.00    +0.244 C 
ATOM      6  O   UNL     1      -3.855  -1.260  25.542  0.00  0.00    -0.273 OA
ATOM      7  N   UNL     1      -4.004  -0.822  24.190  0.00  0.00    -0.207 NA
BRANCH   5   4
ATOM      4  C   UNL     1      -3.551  -2.149  24.466  0.00  0.00    +0.119 C 
BRANCH   4   3
ATOM      3  C   UNL     1      -2.842  -2.469  24.744  0.00  0.00    +0.152 C 
BRANCH   3   2
ATOM      1  C   UNL     1      -1.549  -2.905  24.321  0.00  0.00    +0.174 C 
ATOM      2  O   UNL     1      -2.371  -2.923  24.242  0.00  0.00    -0.351 OA
ENDBRANCH   3   2
ENDBRANCH   4   3
ENDBRANCH   5   4
ENDBRANCH   8   7
BRANCH  15  16
ATOM     16  C   UNL     1      -3.568   3.441  24.270  0.00  0.00    +0.079 C 
ATOM     17  C   UNL     1      -3.412   3.568  23.470  0.00  0.00    +0.010 C 
BRANCH  16  18
ATOM     18  C   UNL     1      -3.326   3.997  24.831  0.00  0.00    +0.225 C 
ATOM     19  O   UNL     1      -3.880   4.344  25.333  0.00  0.00    -0.275 OA
ATOM     20  N   UNL     1      -2.529   4.205  24.889  0.00  0.00    -0.280 N 
ATOM     21  C   UNL     1      -2.289   4.760  25.449  0.00  0.00    +0.093 C 
ATOM     22  C   UNL     1      -1.493   4.968  25.507  0.00  0.00    +0.022 C 
ATOM     23  C   UNL     1      -0.938   4.621  25.005  0.00  0.00    +0.004 C 
ATOM     24  C   UNL     1      -1.179   4.066  24.445  0.00  0.00    +0.022 C 
ATOM     25  C   UNL     1      -1.975   3.858  24.387  0.00  0.00    +0.093 C 
ENDBRANCH  16  18
ENDBRANCH  15  16
TORSDOF 6
ENDMDL
MODEL 4
REMARK VINA RESULT:     -10.8      2.915      4.560
REMARK  Name = 
REMARK  6 active torsions:
REMARK  status: ('A' for Active; 'I' for Inactive)
REMARK    1  A    between atoms: O_2  and  C_3
REMARK    2  A    between atoms: C_3  and  C_4
REMARK    3  A    between atoms: C_4  and  C_5
REMARK    4  A    between atoms: N_7  and  C_8
REMARK    5  A    between atoms: C_15  and  C_16
REMARK    6  A    between atoms: C_16  and  C_18
REMARK                            x       y       z     vdW  Elec       q    Type
REMARK                         _______ _______ _______ _____ _____    ______ ____
ROOT
ATOM      8  C   UNL     1      -0.509   0.450  24.146  0.00  0.00    +0.095 C 
ATOM      9  C   UNL     1      -0.588  -0.246  24.580  0.00  0.00    +0.022 C 
ATOM     10  C   UNL     1      -1.329  -0.477  24.859  0.00  0.00    +0.002 C 
ATOM     11  C   UNL     1      -1.991  -0.010  24.704  0.00  0.00    +0.002 C 
ATOM     12  C   UNL     1      -2.070  -0.708  25.139  0.00  0.00    +0.000 C 
ATOM     13  C   UNL     1      -2.733  -0.241  24.984  0.00  0.00    +0.000 C 
ATOM     14  C   UNL     1      -3.395   0.226  24.829  0.00  0.00    +0.003 C 
ATOM     15  C   UNL     1      -3.317   0.922  24.395  0.00  0.00    +0.039 C 
ATOM     26  C   UNL     1      -2.576   1.153  24.115  0.00  0.00    +0.152 C 
ATOM     27  O   UNL     1      -2.497   1.850  23.681  0.00  0.00    -0.223 OA
ATOM     28  C   UNL     1      -1.913   0.686  24.270  0.00  0.00    +0.032 C 
ATOM     29  C   UNL     1      -1.172   0.917  23.991  0.00  0.00    +0.022 C 
ATOM     30  C   UNL     1      -1.093   1.614  23.556  0.00  0.00    +0.002 C 
ENDROOT
BRANCH   8   7
ATOM      5  C   UNL     1       0.712   0.136  23.472  0.00  0.00    +0.244 C 
ATOM      6  O   UNL     1       0.450  -0.637  23.358  0.00  0.00    -0.273 OA
ATOM      7  N   UNL     1       0.232   0.681  23.866  0.00  0.00    -0.207 NA
BRANCH   5   4
ATOM      4  C   UNL     1       1.452   0.367  23.192  0.00  0.00    +0.119 C 
BRANCH   4   3
ATOM      3  C   UNL     1       1.900  -0.153  22.733  0.00  0.00    +0.152 C 
BRANCH   3   2
ATOM      1  C   UNL     1       3.244   0.161  22.362  0.00  0.00    +0.174 C 
ATOM      2  O   UNL     1       2.438   0.144  22.182  0.00  0.00    -0.351 OA
ENDBRANCH   3   2
ENDBRANCH   4   3
ENDBRANCH   5   4
ENDBRANCH   8   7
BRANCH  15  16
ATOM     16  C   UNL     1      -3.979   1.389  24.239  0.00  0.00    +0.079 C 
ATOM     17  C   UNL     1      -3.987   1.889  23.584  0.00  0.00    +0.010 C 
BRANCH  16  18
ATOM     18  C   UNL     1      -4.634   1.354  24.741  0.00  0.00    +0.225 C 
ATOM     19  O   UNL     1      -5.000   0.631  24.892  0.00  0.00    -0.275 OA
ATOM     20  N   UNL     1      -4.923   2.044  25.091  0.00  0.00    -0.280 N 
ATOM     21  C   UNL     1      -5.577   2.009  25.591  0.00  0.00    +0.093 C 
ATOM     22  C   UNL     1      -5.865   2.699  25.940  0.00  0.00    +0.022 C 
ATOM     23  C   UNL     1      -5.499   3.423  25.789  0.00  0.00    +0.004 C 
ATOM     24  C   UNL     1      -4.844   3.457  25.289  0.00  0.00    +0.022 C 
ATOM     25  C   UNL     1      -4.556   2.768  24.939  0.00  0.00    +0.093 C 
ENDBRANCH  16  18
ENDBRANCH  15  16
TORSDOF 6
ENDMDL
MODEL 5
REMARK VINA RESULT:     -10.3      1.832      2.737
REMARK  Name = 
REMARK  6 active torsions:
REMARK  status: ('A' for Active; 'I' for Inactive)
REMARK    1  A    between atoms: O_2  and  C_3
REMARK    2  A    between atoms: C_3  and  C_4
REMARK    3  A    between atoms: C_4  and  C_5
REMARK    4  A    between atoms: N_7  and  C_8
REMARK    5  A    between atoms: C_15  and  C_16
REMARK    6  A    between atoms: C_16  and  C_18
REMARK                            x       y       z     vdW  Elec       q    Type
REMARK                         _______ _______ _______ _____ _____    ______ ____
ROOT
ATOM      8  C   UNL     1      -0.741   2.223  25.087  0.00  0.00    +0.095 C 
ATOM      9  C   UNL     1      -0.107   1.889  24.680  0.00  0.00    +0.022 C 
ATOM     10  C   UNL     1      -0.143   1.102  24.435  0.00  0.00    +0.002 C 
ATOM     11  C   UNL     1      -0.814   0.650  24.596  0.00  0.00    +0.002 C 
ATOM     12  C   UNL     1      -0.179   0.315  24.189  0.00  0.00    +0.000 C 
ATOM     13  C   UNL     1      -0.851  -0.137  24.350  0.00  0.00    +0.000 C 
ATOM     14  C   UNL     1      -1.522  -0.589  24.512  0.00  0.00    +0.003 C 
ATOM     15  C   UNL     1      -2.156  -0.254  24.919  0.00  0.00    +0.039 C 
ATOM     26  C   UNL     1      -2.120   0.532  25.165  0.00  0.00    +0.152 C 
ATOM     27  O   UNL     1      -2.755   0.867  25.572  0.00  0.00    -0.223 OA
ATOM     28  C   UNL     1      -1.448   0.984  25.003  0.00  0.00    +0.032 C 
ATOM     29  C   UNL     1      -1.413   1.771  25.249  0.00  0.00    +0.022 C 
ATOM     30  C   UNL     1      -2.047   2.106  25.656  0.00  0.00    +0.002 C 
ENDROOT
BRANCH   8   7
ATOM      5  C   UNL     1      -0.532   3.605  24.788  0.00  0.00    +0.244 C 
ATOM      6  O   UNL     1      -0.394   3.413  23.998  0.00  0.00    -0.273 OA
ATOM      7  N   UNL     1      -0.705   3.010  25.333  0.00  0.00    -0.207 NA
BRANCH   5   4
ATOM      4  C   UNL     1      -0.496   4.391  25.033  0.00  0.00    +0.119 C 
BRANCH   4   3
ATOM      3  C   UNL     1      -0.992   4.954  24.688  0.00  0.00    +0.152 C 
BRANCH   3   2
ATOM      1  C   UNL     1      -1.919   5.970  25.077  0.00  0.00    +0.174 C 
ATOM      2  O   UNL     1      -1.154   5.659  25.085  0.00  0.00    -0.351 OA
ENDBRANCH   3   2
ENDBRANCH   4   3
ENDBRANCH   5   4
ENDBRANCH   8   7
BRANCH  15  16
ATOM     16  C   UNL     1      -2.827  -0.706  25.081  0.00  0.00    +0.079 C 
ATOM     17  C   UNL     1      -2.966  -0.979  25.847  0.00  0.00    +0.010 C 
BRANCH  16  18
ATOM     18  C   UNL     1      -3.359  -0.885  24.475  0.00  0.00    +0.225 C 
ATOM     19  O   UNL     1      -3.654  -0.284  23.995  0.00  0.00    -0.275 OA
ATOM     20  N   UNL     1      -3.595  -1.666  24.351  0.00  0.00    -0.280 N 
ATOM     21  C   UNL     1      -4.127  -1.844  23.746  0.00  0.00    +0.093 C 
ATOM     22  C   UNL     1      -4.363  -2.625  23.623  0.00  0.00    +0.022 C 
ATOM     23  C   UNL     1      -4.067  -3.227  24.104  0.00  0.00    +0.004 C 
ATOM     24  C   UNL     1      -3.536  -3.048  24.708  0.00  0.00    +0.022 C 
ATOM     25  C   UNL     1      -3.300  -2.268  24.832  0.00  0.00    +0.093 C 
ENDBRANCH  16  18
ENDBRANCH  15  16
TORSDOF 6
ENDMDL
MODEL 6
REMARK VINA RESULT:      -9.5      2.524      3.737
REMARK  Name = 
REMARK  6 active torsions:
REMARK  status: ('A' for Active; 'I' for Inactive)
REMARK    1  A    between atoms: O_2  and  C_3
REMARK    2  A    between atoms: C_3  and  C_4
REMARK    3  A    between atoms: C_4  and  C_5
REMARK    4  A    between atoms: N_7  and  C_8
REMARK    5  A    between atoms: C_15  and  C_16
REMARK    6  A    between atoms: C_16  and  C_18
REMARK                            x       y       z     vdW  Elec       q    Type
REMARK                         _______ _______ _______ _____ _____    ______ ____
ROOT
ATOM      8  C   UNL     1      -4.409   1.112  24.707  0.00  0.00    +0.095 C 
ATOM      9  C   UNL     1      -4.794   0.384  24.707  0.00  0.00    +0.022 C 
ATOM     10  C   UNL     1      -4.357  -0.315  24.750  0.00  0.00    +0.002 C 
ATOM     11  C   UNL     1      -3.534  -0.284  24.795  0.00  0.00    +0.002 C 
ATOM     12  C   UNL     1      -3.921  -1.014  24.794  0.00  0.00    +0.000 C 
ATOM     13  C   UNL     1      -3.097  -0.983  24.838  0.00  0.00    +0.000 C 
ATOM     14  C   UNL     1      -2.274  -0.951  24.882  0.00  0.00    +0.003 C 
ATOM     15  C   UNL     1      -1.888  -0.223  24.883  0.00  0.00    +0.039 C 
ATOM     26  C   UNL     1      -2.324   0.475  24.839  0.00  0.00    +0.152 C 
ATOM     27  O   UNL     1      -1.938   1.205  24.840  0.00  0.00    -0.223 OA
ATOM     28  C   UNL     1      -3.148   0.445  24.795  0.00  0.00    +0.032 C 
ATOM     29  C   UNL     1      -3.585   1.143  24.751  0.00  0.00    +0.022 C 
ATOM     30  C   UNL     1      -3.199   1.872  24.752  0.00  0.00    +0.002 C 
ENDROOT
BRANCH   8   7
ATOM      5  C   UNL     1      -5.424   1.971  25.230  0.00  0.00    +0.244 C 
ATOM      6  O   UNL     1      -5.566   1.433  25.838  0.00  0.00    -0.273 OA
ATOM      7  N   UNL     1      -4.845   1.811  24.664  0.00  0.00    -0.207 NA
BRANCH   5   4
ATOM      4  C   UNL     1      -5.861   2.669  25.186  0.00  0.00    +0.119 C 
BRANCH   4   3
ATOM      3  C   UNL     1      -5.741   3.266  25.744  0.00  0.00    +0.152 C 
BRANCH   3   2
ATOM      1  C   UNL     1      -5.804   4.686  25.599  0.00  0.00    +0.174 C 
ATOM      2  O   UNL     1      -6.184   3.961  25.706  0.00  0.00    -0.351 OA
ENDBRANCH   3   2
ENDBRANCH   4   3
ENDBRANCH   5   4
ENDBRANCH   8   7
BRANCH  15  16
ATOM     16  C   UNL     1      -1.065  -0.192  24.927  0.00  0.00    +0.079 C 
ATOM     17  C   UNL     1      -0.699   0.273  25.503  0.00  0.00    +0.010 C 
BRANCH  16  18
ATOM     18  C   UNL     1      -0.607  -0.626  24.395  0.00  0.00    +0.225 C 
ATOM     19  O   UNL     1      -0.736  -1.434  24.304  0.00  0.00    -0.275 OA
ATOM     20  N   UNL     1      -0.019  -0.249  23.953  0.00  0.00    -0.280 N 
ATOM     21  C   UNL     1       0.438  -0.683  23.421  0.00  0.00    +0.093 C 
ATOM     22  C   UNL     1       1.025  -0.306  22.980  0.00  0.00    +0.022 C 
ATOM     23  C   UNL     1       1.154   0.503  23.071  0.00  0.00    +0.004 C 
ATOM     24  C   UNL     1       0.696   0.936  23.603  0.00  0.00    +0.022 C 
ATOM     25  C   UNL     1       0.110   0.561  24.044  0.00  0.00    +0.093 C 
ENDBRANCH  16  18
ENDBRANCH  15  16
TORSDOF 6
ENDMDL
MODEL 7
REMARK VINA RESULT:      -9.2      1.762      5.866
REMARK  Name = 
REMARK  6 active torsions:
REMARK  status: ('A' for Active; 'I' for Inactive)
REMARK    1  A    between atoms: O_2  and  C_3
REMARK    2  A    between atoms: C_3  and  C_4
REMARK    3  A    between atoms: C_4  and  C_5
REMARK    4  A    between atoms: N_7  and  C_8
REMARK    5  A    between atoms: C_15  and  C_16
REMARK    6  A    between atoms: C_16  and  C_18
REMARK                            x       y       z     vdW  Elec       q    Type
REMARK                         _______ _______ _______ _____ _____    ______ ____
ROOT
ATOM      8  C   UNL     1      -2.585  -0.761  25.396  0.00  0.00    +0.095 C 
ATOM      9  C   UNL     1      -1.856  -0.932  25.741  0.00  0.00    +0.022 C 
ATOM     10  C   UNL     1      -1.291  -0.337  25.829  0.00  0.00    +0.002 C 
ATOM     11  C   UNL     1      -1.457   0.429  25.572  0.00  0.00    +0.002 C 
ATOM     12  C   UNL     1      -0.726   0.258  25.917  0.00  0.00    +0.000 C 
ATOM     13  C   UNL     1      -0.891   1.025  25.660  0.00  0.00    +0.000 C 
ATOM     14  C   UNL     1      -1.057   1.791  25.404  0.00  0.00    +0.003 C 
ATOM     15  C   UNL     1      -1.785   1.962  25.059  0.00  0.00    +0.039 C 
ATOM     26  C   UNL     1      -2.350   1.368  24.971  0.00  0.00    +0.152 C 
ATOM     27  O   UNL     1      -3.080   1.539  24.626  0.00  0.00    -0.223 OA
ATOM     28  C   UNL     1      -2.185   0.601  25.228  0.00  0.00    +0.032 C 
ATOM     29  C   UNL     1      -2.750   0.006  25.139  0.00  0.00    +0.022 C 
ATOM     30  C   UNL     1      -3.480   0.178  24.794  0.00  0.00    +0.002 C 
ENDROOT
BRANCH   8   7
ATOM      5  C   UNL     1      -2.939  -2.077  24.965  0.00  0.00    +0.244 C 
ATOM      6  O   UNL     1      -2.165  -2.202  24.712  0.00  0.00    -0.273 OA
ATOM      7  N   UNL     1      -3.150  -1.355  25.308  0.00  0.00    -0.207 NA
BRANCH   5   4
ATOM      4  C   UNL     1      -3.504  -2.671  24.877  0.00  0.00    +0.119 C 
BRANCH   4   3
ATOM      3  C   UNL     1      -3.654  -2.989  24.130  0.00  0.00    +0.152 C 
BRANCH   3   2
ATOM      1  C   UNL     1      -4.622  -3.283  23.120  0.00  0.00    +0.174 C 
ATOM      2  O   UNL     1      -4.424  -3.196  23.917  0.00  0.00    -0.351 OA
ENDBRANCH   3   2
ENDBRANCH   4   3
ENDBRANCH   5   4
ENDBRANCH   8   7
BRANCH  15  16
ATOM     16  C   UNL     1      -1.951   2.728  24.802  0.00  0.00    +0.079 C 
ATOM     17  C   UNL     1      -2.713   3.034  24.879  0.00  0.00    +0.010 C 
BRANCH  16  18
ATOM     18  C   UNL     1      -1.353   3.189  24.469  0.00  0.00    +0.225 C 
ATOM     19  O   UNL     1      -0.820   2.852  23.938  0.00  0.00    -0.275 OA
ATOM     20  N   UNL     1      -1.289   3.988  24.666  0.00  0.00    -0.280 N 
ATOM     21  C   UNL     1      -0.691   4.449  24.333  0.00  0.00    +0.093 C 
ATOM     22  C   UNL     1      -0.628   5.247  24.530  0.00  0.00    +0.022 C 
ATOM     23  C   UNL     1      -1.161   5.585  25.061  0.00  0.00    +0.004 C 
ATOM     24  C   UNL     1      -1.758   5.124  25.394  0.00  0.00    +0.022 C 
ATOM     25  C   UNL     1      -1.822   4.326  25.197  0.00  0.00    +0.093 C 
ENDBRANCH  16  18
ENDBRANCH  15  16
TORSDOF 6
ENDMDL
