REMARK  Name = 
REMARK  4 active torsions:
REMARK  status: ('A' for Active; 'I' for Inactive)
REMARK    1  A    between atoms: C_2  and  C_18
REMARK    2  A    between atoms: C_8  and  O_10
REMARK    3  A    between atoms: O_10  and  C_11
REMARK    4  A    between atoms: C_11  and  C_12
REMARK                            x       y       z     vdW  Elec       q    Type
REMARK                         _______ _______ _______ _____ _____    ______ ____
ROOT
ATOM      1  O   UNL     1       1.688   4.756   0.000  0.00  0.00    -0.270 OA
ATOM      2  C   UNL     1       2.249   5.360   0.000  0.00  0.00    +0.249 C 
ATOM      3  N   UNL     1       3.053   5.177   0.000  0.00  0.00    -0.271 N 
ATOM      4  C   UNL     1       3.568   5.822   0.000  0.00  0.00    +0.126 C 
ATOM      5  C   UNL     1       4.393   5.822   0.000  0.00  0.00    +0.164 C 
ATOM      6  O   UNL     1       4.907   5.177   0.000  0.00  0.00    -0.349 OA
ATOM      7  C   UNL     1       4.724   4.372   0.000  0.00  0.00    +0.173 C 
ATOM      8  C   UNL     1       3.980   4.014   0.000  0.00  0.00    +0.165 C 
ATOM      9  C   UNL     1       3.237   4.372   0.000  0.00  0.00    +0.126 C 
ENDROOT
BRANCH   2  18
ATOM     18  C   UNL     1       2.006   6.149   0.000  0.00  0.00    +0.054 A 
ATOM     19  C   UNL     1       1.202   6.332   0.000  0.00  0.00    +0.005 A 
ATOM     20  C   UNL     1       0.959   7.121   0.000  0.00  0.00    +0.000 A 
ATOM     21  C   UNL     1       1.520   7.725   0.000  0.00  0.00    +0.000 A 
ATOM     22  C   UNL     1       2.324   7.542   0.000  0.00  0.00    +0.000 A 
ATOM     23  C   UNL     1       2.567   6.753   0.000  0.00  0.00    +0.005 A 
ENDBRANCH   2  18
BRANCH   8  10
ATOM     10  O   UNL     1       3.980   3.189   0.000  0.00  0.00    -0.347 OA
BRANCH  10  11
ATOM     11  C   UNL     1       4.695   2.777   0.000  0.00  0.00    +0.169 C 
BRANCH  11  12
ATOM     12  C   UNL     1       4.695   1.952   0.000  0.00  0.00    +0.007 A 
ATOM     13  C   UNL     1       5.409   1.540   0.000  0.00  0.00    -0.002 A 
ATOM     14  C   UNL     1       5.409   0.715   0.000  0.00  0.00    -0.000 A 
ATOM     15  C   UNL     1       4.695   0.302   0.000  0.00  0.00    -0.000 A 
ATOM     16  C   UNL     1       3.980   0.715   0.000  0.00  0.00    -0.000 A 
ATOM     17  C   UNL     1       3.980   1.540   0.000  0.00  0.00    -0.002 A 
ENDBRANCH  11  12
ENDBRANCH  10  11
ENDBRANCH   8  10
TORSDOF 4
