MODEL 1
REMARK VINA RESULT:      -9.8      0.000      0.000
REMARK  Name = 
REMARK  7 active torsions:
REMARK  status: ('A' for Active; 'I' for Inactive)
REMARK    1  A    between atoms: O_2  and  C_3
REMARK    2  A    between atoms: C_6  and  N_7
REMARK    3  A    between atoms: C_8  and  O_10
REMARK    4  A    between atoms: O_10  and  C_11
REMARK    5  A    between atoms: C_15  and  N_19
REMARK    6  A    between atoms: N_19  and  S_20
REMARK    7  A    between atoms: S_20  and  C_23
REMARK                            x       y       z     vdW  Elec       q    Type
REMARK                         _______ _______ _______ _____ _____    ______ ____
ROOT
ATOM     11  C   UNL     1       0.103   0.941  23.693  0.00  0.00    +0.229 C 
ATOM     12  C   UNL     1       0.298   1.245  24.435  0.00  0.00    +0.188 C 
ATOM     13  O   UNL     1      -0.351   1.667  24.717  0.00  0.00    -0.348 OA
ATOM     14  C   UNL     1      -0.949   1.625  24.149  0.00  0.00    +0.166 C 
ATOM     15  C   UNL     1      -1.720   1.860  23.972  0.00  0.00    +0.157 C 
ATOM     16  C   UNL     1      -1.915   1.557  23.231  0.00  0.00    +0.164 C 
ATOM     17  O   UNL     1      -1.265   1.135  22.949  0.00  0.00    -0.348 OA
ATOM     18  C   UNL     1      -0.669   1.176  23.516  0.00  0.00    +0.186 C 
ENDROOT
BRANCH  11  10
ATOM     10  O   UNL     1       0.591   0.484  23.212  0.00  0.00    -0.432 OA
BRANCH  10   8
ATOM      7  N   UNL     1       1.901   0.110  22.776  0.00  0.00    -0.142 NA
ATOM      8  C   UNL     1       1.411   0.558  23.268  0.00  0.00    +0.425 C 
ATOM      9  O   UNL     1       1.742   1.079  23.814  0.00  0.00    -0.224 OA
BRANCH   7   6
ATOM      3  C   UNL     1       4.360   0.332  22.944  0.00  0.00    +0.139 A 
ATOM      4  C   UNL     1       3.985  -0.335  23.252  0.00  0.00    +0.038 A 
ATOM      5  C   UNL     1       3.165  -0.409  23.197  0.00  0.00    +0.020 A 
ATOM      6  C   UNL     1       2.721   0.184  22.832  0.00  0.00    +0.077 A 
ATOM     33  C   UNL     1       3.097   0.850  22.524  0.00  0.00    +0.020 A 
ATOM     34  C   UNL     1       3.917   0.924  22.580  0.00  0.00    +0.038 A 
BRANCH   3   2
ATOM      1  C   UNL     1       5.580   0.093  23.650  0.00  0.00    +0.252 C 
ATOM      2  O   UNL     1       5.180   0.406  23.000  0.00  0.00    -0.471 OA
ENDBRANCH   3   2
ENDBRANCH   7   6
ENDBRANCH  10   8
ENDBRANCH  11  10
BRANCH  15  19
ATOM     19  N   UNL     1      -2.209   2.318  24.454  0.00  0.00    -0.074 NA
BRANCH  19  20
ATOM     20  S   UNL     1      -2.987   2.081  24.596  0.00  0.00    +0.078 S 
ATOM     21  O   UNL     1      -2.763   1.792  25.336  0.00  0.00    -0.152 OA
ATOM     22  O   UNL     1      -3.210   2.370  23.856  0.00  0.00    -0.152 OA
BRANCH  20  23
ATOM     23  C   UNL     1      -3.764   1.844  24.738  0.00  0.00    +0.141 A 
ATOM     24  C   UNL     1      -3.993   1.067  24.581  0.00  0.00    +0.022 A 
ATOM     25  C   UNL     1      -4.771   0.830  24.723  0.00  0.00    +0.001 A 
ATOM     26  C   UNL     1      -5.319   1.370  25.022  0.00  0.00    +0.002 A 
ATOM     27  C   UNL     1      -5.090   2.147  25.179  0.00  0.00    +0.019 A 
ATOM     28  C   UNL     1      -4.311   2.384  25.037  0.00  0.00    +0.100 A 
ATOM     29  N   UNL     1      -4.082   3.161  25.194  0.00  0.00    -0.242 NA
ATOM     30  C   UNL     1      -4.629   3.700  25.493  0.00  0.00    +0.099 A 
ATOM     31  C   UNL     1      -5.407   3.463  25.635  0.00  0.00    +0.021 A 
ATOM     32  C   UNL     1      -5.637   2.686  25.478  0.00  0.00    +0.003 A 
ENDBRANCH  20  23
ENDBRANCH  19  20
ENDBRANCH  15  19
TORSDOF 7
ENDMDL
MODEL 2
REMARK VINA RESULT:      -9.7      0.774      1.252
REMARK  Name = 
REMARK  7 active torsions:
REMARK  status: ('A' for Active; 'I' for Inactive)
REMARK    1  A    between atoms: O_2  and  C_3
REMARK    2  A    between atoms: C_6  and  N_7
REMARK    3  A    between atoms: C_8  and  O_10
REMARK    4  A    between atoms: O_10  and  C_11
REMARK    5  A    between atoms: C_15  and  N_19
REMARK    6  A    between atoms: N_19  and  S_20
REMARK    7  A    between atoms: S_20  and  C_23
REMARK                            x       y       z     vdW  Elec       q    Type
REMARK                         _______ _______ _______ _____ _____    ______ ____
ROOT
ATOM     11  C   UNL     1       0.074   0.216  23.393  0.00  0.00    +0.229 C 
ATOM     12  C   UNL     1       0.060  -0.228  24.089  0.00  0.00    +0.188 C 
ATOM     13  O   UNL     1      -0.619  -0.022  24.509  0.00  0.00    -0.348 OA
ATOM     14  C   UNL     1      -1.024   0.550  24.074  0.00  0.00    +0.166 C 
ATOM     15  C   UNL     1      -1.695   1.032  24.064  0.00  0.00    +0.157 C 
ATOM     16  C   UNL     1      -1.680   1.475  23.370  0.00  0.00    +0.164 C 
ATOM     17  O   UNL     1      -1.001   1.269  22.949  0.00  0.00    -0.348 OA
ATOM     18  C   UNL     1      -0.596   0.697  23.384  0.00  0.00    +0.186 C 
ENDROOT
BRANCH  11  10
ATOM     10  O   UNL     1       0.656   0.184  22.810  0.00  0.00    -0.432 OA
BRANCH  10   8
ATOM      7  N   UNL     1       2.045   0.036  22.504  0.00  0.00    -0.142 NA
ATOM      8  C   UNL     1       1.448   0.298  23.011  0.00  0.00    +0.425 C 
ATOM      9  O   UNL     1       1.645   0.674  23.718  0.00  0.00    -0.224 OA
BRANCH   7   6
ATOM      3  C   UNL     1       4.421   0.378  23.107  0.00  0.00    +0.139 A 
ATOM      4  C   UNL     1       3.988   0.995  22.770  0.00  0.00    +0.038 A 
ATOM      5  C   UNL     1       3.196   0.881  22.569  0.00  0.00    +0.020 A 
ATOM      6  C   UNL     1       2.837   0.150  22.705  0.00  0.00    +0.077 A 
ATOM     33  C   UNL     1       3.270  -0.466  23.042  0.00  0.00    +0.020 A 
ATOM     34  C   UNL     1       4.062  -0.352  23.243  0.00  0.00    +0.038 A 
BRANCH   3   2
ATOM      1  C   UNL     1       5.552   0.051  23.917  0.00  0.00    +0.252 C 
ATOM      2  O   UNL     1       5.213   0.492  23.308  0.00  0.00    -0.471 OA
ENDBRANCH   3   2
ENDBRANCH   7   6
ENDBRANCH  10   8
ENDBRANCH  11  10
BRANCH  15  19
ATOM     19  N   UNL     1      -2.277   1.063  24.648  0.00  0.00    -0.074 NA
BRANCH  19  20
ATOM     20  S   UNL     1      -2.811   1.691  24.664  0.00  0.00    +0.078 S 
ATOM     21  O   UNL     1      -2.427   2.001  25.325  0.00  0.00    -0.152 OA
ATOM     22  O   UNL     1      -3.195   1.381  24.003  0.00  0.00    -0.152 OA
BRANCH  20  23
ATOM     23  C   UNL     1      -3.345   2.320  24.680  0.00  0.00    +0.141 A 
ATOM     24  C   UNL     1      -3.101   3.074  24.453  0.00  0.00    +0.022 A 
ATOM     25  C   UNL     1      -3.636   3.704  24.469  0.00  0.00    +0.001 A 
ATOM     26  C   UNL     1      -4.414   3.577  24.712  0.00  0.00    +0.002 A 
ATOM     27  C   UNL     1      -4.658   2.822  24.940  0.00  0.00    +0.019 A 
ATOM     28  C   UNL     1      -4.124   2.193  24.924  0.00  0.00    +0.100 A 
ATOM     29  N   UNL     1      -4.367   1.439  25.151  0.00  0.00    -0.242 NA
ATOM     30  C   UNL     1      -5.145   1.312  25.394  0.00  0.00    +0.099 A 
ATOM     31  C   UNL     1      -5.680   1.942  25.410  0.00  0.00    +0.021 A 
ATOM     32  C   UNL     1      -5.436   2.696  25.183  0.00  0.00    +0.003 A 
ENDBRANCH  20  23
ENDBRANCH  19  20
ENDBRANCH  15  19
TORSDOF 7
ENDMDL
MODEL 3
REMARK VINA RESULT:      -8.9      2.942      4.959
REMARK  Name = 
REMARK  7 active torsions:
REMARK  status: ('A' for Active; 'I' for Inactive)
REMARK    1  A    between atoms: O_2  and  C_3
REMARK    2  A    between atoms: C_6  and  N_7
REMARK    3  A    between atoms: C_8  and  O_10
REMARK    4  A    between atoms: O_10  and  C_11
REMARK    5  A    between atoms: C_15  and  N_19
REMARK    6  A    between atoms: N_19  and  S_20
REMARK    7  A    between atoms: S_20  and  C_23
REMARK                            x       y       z     vdW  Elec       q    Type
REMARK                         _______ _______ _______ _____ _____    ______ ____
ROOT
ATOM     11  C   UNL     1      -0.316  -0.242  24.561  0.00  0.00    +0.229 C 
ATOM     12  C   UNL     1      -0.063   0.069  23.840  0.00  0.00    +0.188 C 
ATOM     13  O   UNL     1      -0.025   0.889  23.914  0.00  0.00    -0.348 OA
ATOM     14  C   UNL     1      -0.254   1.086  24.683  0.00  0.00    +0.166 C 
ATOM     15  C   UNL     1      -0.372   1.715  25.204  0.00  0.00    +0.157 C 
ATOM     16  C   UNL     1      -0.625   1.405  25.925  0.00  0.00    +0.164 C 
ATOM     17  O   UNL     1      -0.663   0.584  25.850  0.00  0.00    -0.348 OA
ATOM     18  C   UNL     1      -0.434   0.387  25.083  0.00  0.00    +0.186 C 
ENDROOT
BRANCH  11  10
ATOM     10  O   UNL     1      -0.431  -1.040  24.732  0.00  0.00    -0.432 OA
BRANCH  10   8
ATOM      7  N   UNL     1      -1.692  -1.647  25.023  0.00  0.00    -0.142 NA
ATOM      8  C   UNL     1      -1.116  -1.422  24.476  0.00  0.00    +0.425 C 
ATOM      9  O   UNL     1      -1.226  -1.579  23.674  0.00  0.00    -0.224 OA
BRANCH   7   6
ATOM      3  C   UNL     1      -3.748  -2.793  24.256  0.00  0.00    +0.139 A 
ATOM      4  C   UNL     1      -3.772  -1.993  24.456  0.00  0.00    +0.038 A 
ATOM      5  C   UNL     1      -3.087  -1.611  24.711  0.00  0.00    +0.020 A 
ATOM      6  C   UNL     1      -2.377  -2.029  24.768  0.00  0.00    +0.077 A 
ATOM     33  C   UNL     1      -2.354  -2.829  24.568  0.00  0.00    +0.020 A 
ATOM     34  C   UNL     1      -3.039  -3.211  24.312  0.00  0.00    +0.038 A 
BRANCH   3   2
ATOM      1  C   UNL     1      -4.906  -2.829  23.420  0.00  0.00    +0.252 C 
ATOM      2  O   UNL     1      -4.433  -3.175  24.000  0.00  0.00    -0.471 OA
ENDBRANCH   3   2
ENDBRANCH   7   6
ENDBRANCH  10   8
ENDBRANCH  11  10
BRANCH  15  19
ATOM     19  N   UNL     1      -0.257   2.514  25.033  0.00  0.00    -0.074 NA
BRANCH  19  20
ATOM     20  S   UNL     1      -0.844   3.063  25.217  0.00  0.00    +0.078 S 
ATOM     21  O   UNL     1      -0.510   3.169  25.964  0.00  0.00    -0.152 OA
ATOM     22  O   UNL     1      -1.178   2.957  24.470  0.00  0.00    -0.152 OA
BRANCH  20  23
ATOM     23  C   UNL     1      -1.431   3.613  25.402  0.00  0.00    +0.141 A 
ATOM     24  C   UNL     1      -2.111   3.371  25.802  0.00  0.00    +0.022 A 
ATOM     25  C   UNL     1      -2.699   3.921  25.987  0.00  0.00    +0.001 A 
ATOM     26  C   UNL     1      -2.605   4.712  25.770  0.00  0.00    +0.002 A 
ATOM     27  C   UNL     1      -1.926   4.954  25.369  0.00  0.00    +0.019 A 
ATOM     28  C   UNL     1      -1.338   4.404  25.185  0.00  0.00    +0.100 A 
ATOM     29  N   UNL     1      -0.659   4.645  24.784  0.00  0.00    -0.242 NA
ATOM     30  C   UNL     1      -0.567   5.435  24.568  0.00  0.00    +0.099 A 
ATOM     31  C   UNL     1      -1.154   5.985  24.752  0.00  0.00    +0.021 A 
ATOM     32  C   UNL     1      -1.833   5.744  25.153  0.00  0.00    +0.003 A 
ENDBRANCH  20  23
ENDBRANCH  19  20
ENDBRANCH  15  19
TORSDOF 7
ENDMDL
MODEL 4
REMARK VINA RESULT:      -8.0      3.835      5.485
REMARK  Name = 
REMARK  7 active torsions:
REMARK  status: ('A' for Active; 'I' for Inactive)
REMARK    1  A    between atoms: O_2  and  C_3
REMARK    2  A    between atoms: C_6  and  N_7
REMARK    3  A    between atoms: C_8  and  O_10
REMARK    4  A    between atoms: O_10  and  C_11
REMARK    5  A    between atoms: C_15  and  N_19
REMARK    6  A    between atoms: N_19  and  S_20
REMARK    7  A    between atoms: S_20  and  C_23
REMARK                            x       y       z     vdW  Elec       q    Type
REMARK                         _______ _______ _______ _____ _____    ______ ____
ROOT
ATOM     11  C   UNL     1      -4.894   1.483  24.907  0.00  0.00    +0.229 C 
ATOM     12  C   UNL     1      -5.006   1.645  25.708  0.00  0.00    +0.188 C 
ATOM     13  O   UNL     1      -4.668   2.379  25.870  0.00  0.00    -0.348 OA
ATOM     14  C   UNL     1      -4.346   2.672  25.168  0.00  0.00    +0.166 C 
ATOM     15  C   UNL     1      -3.937   3.306  24.835  0.00  0.00    +0.157 C 
ATOM     16  C   UNL     1      -3.825   3.144  24.034  0.00  0.00    +0.164 C 
ATOM     17  O   UNL     1      -4.164   2.410  23.873  0.00  0.00    -0.348 OA
ATOM     18  C   UNL     1      -4.486   2.118  24.573  0.00  0.00    +0.186 C 
ENDROOT
BRANCH  11  10
ATOM     10  O   UNL     1      -5.145   0.806  24.509  0.00  0.00    -0.432 OA
BRANCH  10   8
ATOM      7  N   UNL     1      -4.411  -0.299  23.978  0.00  0.00    -0.142 NA
ATOM      8  C   UNL     1      -4.750   0.091  24.622  0.00  0.00    +0.425 C 
ATOM      9  O   UNL     1      -4.693  -0.235  25.378  0.00  0.00    -0.224 OA
BRANCH   7   6
ATOM      3  C   UNL     1      -3.224  -2.445  24.316  0.00  0.00    +0.139 A 
ATOM      4  C   UNL     1      -4.000  -2.443  24.036  0.00  0.00    +0.038 A 
ATOM      5  C   UNL     1      -4.395  -1.728  23.924  0.00  0.00    +0.020 A 
ATOM      6  C   UNL     1      -4.015  -1.014  24.091  0.00  0.00    +0.077 A 
ATOM     33  C   UNL     1      -3.239  -1.018  24.371  0.00  0.00    +0.020 A 
ATOM     34  C   UNL     1      -2.843  -1.733  24.483  0.00  0.00    +0.038 A 
BRANCH   3   2
ATOM      1  C   UNL     1      -2.003  -3.182  24.419  0.00  0.00    +0.252 C 
ATOM      2  O   UNL     1      -2.828  -3.160  24.429  0.00  0.00    -0.471 OA
ENDBRANCH   3   2
ENDBRANCH   7   6
ENDBRANCH  10   8
ENDBRANCH  11  10
BRANCH  15  19
ATOM     19  N   UNL     1      -3.686   3.984  25.233  0.00  0.00    -0.074 NA
BRANCH  19  20
ATOM     20  S   UNL     1      -2.899   4.224  25.181  0.00  0.00    +0.078 S 
ATOM     21  O   UNL     1      -2.861   4.279  26.003  0.00  0.00    -0.152 OA
ATOM     22  O   UNL     1      -2.937   4.169  24.358  0.00  0.00    -0.152 OA
BRANCH  20  23
ATOM     23  C   UNL     1      -2.111   4.465  25.128  0.00  0.00    +0.141 A 
ATOM     24  C   UNL     1      -1.928   5.217  24.842  0.00  0.00    +0.022 A 
ATOM     25  C   UNL     1      -1.140   5.457  24.790  0.00  0.00    +0.001 A 
ATOM     26  C   UNL     1      -0.536   4.945  25.023  0.00  0.00    +0.002 A 
ATOM     27  C   UNL     1      -0.719   4.193  25.309  0.00  0.00    +0.019 A 
ATOM     28  C   UNL     1      -1.508   3.953  25.362  0.00  0.00    +0.100 A 
ATOM     29  N   UNL     1      -1.691   3.201  25.647  0.00  0.00    -0.242 NA
ATOM     30  C   UNL     1      -1.088   2.690  25.880  0.00  0.00    +0.099 A 
ATOM     31  C   UNL     1      -0.299   2.931  25.828  0.00  0.00    +0.021 A 
ATOM     32  C   UNL     1      -0.116   3.682  25.542  0.00  0.00    +0.003 A 
ENDBRANCH  20  23
ENDBRANCH  19  20
ENDBRANCH  15  19
TORSDOF 7
ENDMDL
MODEL 5
REMARK VINA RESULT:      -7.6      2.983      5.020
REMARK  Name = 
REMARK  7 active torsions:
REMARK  status: ('A' for Active; 'I' for Inactive)
REMARK    1  A    between atoms: O_2  and  C_3
REMARK    2  A    between atoms: C_6  and  N_7
REMARK    3  A    between atoms: C_8  and  O_10
REMARK    4  A    between atoms: O_10  and  C_11
REMARK    5  A    between atoms: C_15  and  N_19
REMARK    6  A    between atoms: N_19  and  S_20
REMARK    7  A    between atoms: S_20  and  C_23
REMARK                            x       y       z     vdW  Elec       q    Type
REMARK                         _______ _______ _______ _____ _____    ______ ____
ROOT
ATOM     11  C   UNL     1       0.028   1.352  24.723  0.00  0.00    +0.229 C 
ATOM     12  C   UNL     1       0.136   1.046  23.964  0.00  0.00    +0.188 C 
ATOM     13  O   UNL     1      -0.248   0.318  23.925  0.00  0.00    -0.348 OA
ATOM     14  C   UNL     1      -0.595   0.173  24.661  0.00  0.00    +0.166 C 
ATOM     15  C   UNL     1      -1.047  -0.367  25.091  0.00  0.00    +0.157 C 
ATOM     16  C   UNL     1      -1.155  -0.062  25.849  0.00  0.00    +0.164 C 
ATOM     17  O   UNL     1      -0.770   0.667  25.888  0.00  0.00    -0.348 OA
ATOM     18  C   UNL     1      -0.424   0.812  25.154  0.00  0.00    +0.186 C 
ENDROOT
BRANCH  11  10
ATOM     10  O   UNL     1       0.320   2.070  25.003  0.00  0.00    -0.432 OA
BRANCH  10   8
ATOM      7  N   UNL     1      -0.340   3.236  25.501  0.00  0.00    -0.142 NA
ATOM      8  C   UNL     1      -0.099   2.767  24.865  0.00  0.00    +0.425 C 
ATOM      9  O   UNL     1      -0.279   2.996  24.094  0.00  0.00    -0.224 OA
BRANCH   7   6
ATOM      3  C   UNL     1      -1.599   5.327  25.090  0.00  0.00    +0.139 A 
ATOM      4  C   UNL     1      -0.810   5.269  24.857  0.00  0.00    +0.038 A 
ATOM      5  C   UNL     1      -0.390   4.572  24.994  0.00  0.00    +0.020 A 
ATOM      6  C   UNL     1      -0.760   3.933  25.364  0.00  0.00    +0.077 A 
ATOM     33  C   UNL     1      -1.549   3.993  25.596  0.00  0.00    +0.020 A 
ATOM     34  C   UNL     1      -1.969   4.690  25.459  0.00  0.00    +0.038 A 
BRANCH   3   2
ATOM      1  C   UNL     1      -2.455   6.114  24.259  0.00  0.00    +0.252 C 
ATOM      2  O   UNL     1      -2.019   6.024  24.953  0.00  0.00    -0.471 OA
ENDBRANCH   3   2
ENDBRANCH   7   6
ENDBRANCH  10   8
ENDBRANCH  11  10
BRANCH  15  19
ATOM     19  N   UNL     1      -1.339  -1.086  24.811  0.00  0.00    -0.074 NA
BRANCH  19  20
ATOM     20  S   UNL     1      -2.140  -1.163  24.630  0.00  0.00    +0.078 S 
ATOM     21  O   UNL     1      -1.962  -1.130  23.826  0.00  0.00    -0.152 OA
ATOM     22  O   UNL     1      -2.318  -1.195  25.435  0.00  0.00    -0.152 OA
BRANCH  20  23
ATOM     23  C   UNL     1      -2.941  -1.240  24.450  0.00  0.00    +0.141 A 
ATOM     24  C   UNL     1      -3.419  -0.568  24.401  0.00  0.00    +0.022 A 
ATOM     25  C   UNL     1      -4.221  -0.645  24.220  0.00  0.00    +0.001 A 
ATOM     26  C   UNL     1      -4.544  -1.393  24.088  0.00  0.00    +0.002 A 
ATOM     27  C   UNL     1      -4.066  -2.064  24.137  0.00  0.00    +0.019 A 
ATOM     28  C   UNL     1      -3.264  -1.988  24.318  0.00  0.00    +0.100 A 
ATOM     29  N   UNL     1      -2.787  -2.658  24.367  0.00  0.00    -0.242 NA
ATOM     30  C   UNL     1      -3.110  -3.405  24.235  0.00  0.00    +0.099 A 
ATOM     31  C   UNL     1      -3.912  -3.482  24.054  0.00  0.00    +0.021 A 
ATOM     32  C   UNL     1      -4.389  -2.811  24.005  0.00  0.00    +0.003 A 
ENDBRANCH  20  23
ENDBRANCH  19  20
ENDBRANCH  15  19
TORSDOF 7
ENDMDL
