REMARK  Name = 
REMARK  3 active torsions:
REMARK  status: ('A' for Active; 'I' for Inactive)
REMARK    1  A    between atoms: C_2  and  C_4
REMARK    2  A    between atoms: C_7  and  C_8
REMARK    3  A    between atoms: C_8  and  N_9
REMARK                            x       y       z     vdW  Elec       q    Type
REMARK                         _______ _______ _______ _____ _____    ______ ____
ROOT
ATOM      8  C   UNL     1       4.067   2.348   0.000  0.00  0.00    +0.099 C 
ENDROOT
BRANCH   8   9
ATOM      9  N   UNL     1       3.352   1.935   0.000  0.00  0.00    -0.266 NA
ATOM     10  C   UNL     1       3.352   1.110   0.000  0.00  0.00    +0.094 C 
ATOM     11  C   UNL     1       2.638   0.698   0.000  0.00  0.00    +0.112 C 
ATOM     12  N   UNL     1       1.923   1.110   0.000  0.00  0.00    -0.260 N 
ATOM     13  C   UNL     1       1.923   1.935   0.000  0.00  0.00    +0.115 C 
ATOM     14  C   UNL     1       1.139   2.190   0.000  0.00  0.00    +0.138 C 
ATOM     15  N   UNL     1       0.654   1.523   0.000  0.00  0.00    -0.187 NA
ATOM     16  C   UNL     1       1.139   0.856   0.000  0.00  0.00    +0.323 C 
ATOM     17  O   UNL     1       0.884   0.071   0.000  0.00  0.00    -0.251 OA
ATOM     18  C   UNL     1       2.638   2.348   0.000  0.00  0.00    +0.094 C 
ENDBRANCH   8   9
BRANCH   8   7
ATOM      4  C   UNL     1       4.067   4.823   0.000  0.00  0.00    +0.080 A 
ATOM      5  C   UNL     1       4.781   4.410   0.000  0.00  0.00    +0.006 A 
ATOM      6  C   UNL     1       4.781   3.585   0.000  0.00  0.00    -0.003 A 
ATOM      7  C   UNL     1       4.067   3.173   0.000  0.00  0.00    -0.006 A 
ATOM     19  C   UNL     1       3.352   3.585   0.000  0.00  0.00    -0.003 A 
ATOM     20  C   UNL     1       3.352   4.410   0.000  0.00  0.00    +0.006 A 
BRANCH   4   2
ATOM      1  O   UNL     1       3.352   6.060   0.000  0.00  0.00    -0.241 OA
ATOM      2  C   UNL     1       4.067   5.648   0.000  0.00  0.00    +0.388 C 
ATOM      3  O   UNL     1       4.781   6.060   0.000  0.00  0.00    -0.241 OA
ENDBRANCH   4   2
ENDBRANCH   8   7
TORSDOF 3
