REMARK  Name = 
REMARK  5 active torsions:
REMARK  status: ('A' for Active; 'I' for Inactive)
REMARK    1  A    between atoms: C_2  and  N_3
REMARK    2  A    between atoms: C_4  and  C_10
REMARK    3  A    between atoms: C_10  and  C_12
REMARK    4  A    between atoms: C_15  and  N_16
REMARK    5  A    between atoms: C_17  and  C_19
REMARK                            x       y       z     vdW  Elec       q    Type
REMARK                         _______ _______ _______ _____ _____    ______ ____
ROOT
ATOM     12  C   UNL     1      -0.715   8.416   0.000  0.00  0.00    +0.010 A 
ATOM     13  C   UNL     1       0.000   8.004   0.000  0.00  0.00    -0.000 A 
ATOM     14  C   UNL     1       0.000   7.179   0.000  0.00  0.00    +0.016 A 
ATOM     15  C   UNL     1      -0.715   6.766   0.000  0.00  0.00    +0.074 A 
ATOM     26  C   UNL     1      -1.429   7.179   0.000  0.00  0.00    +0.016 A 
ATOM     27  C   UNL     1      -1.429   8.004   0.000  0.00  0.00    -0.000 A 
ENDROOT
BRANCH  15  16
ATOM     16  N   UNL     1      -0.715   5.941   0.000  0.00  0.00    -0.174 NA
ATOM     17  C   UNL     1       0.000   5.529   0.000  0.00  0.00    +0.286 C 
ATOM     18  O   UNL     1       0.715   5.941   0.000  0.00  0.00    -0.266 OA
BRANCH  17  19
ATOM     19  C   UNL     1       0.000   4.704   0.000  0.00  0.00    +0.134 A 
ATOM     20  C   UNL     1       0.667   4.219   0.000  0.00  0.00    +0.040 A 
ATOM     21  C   UNL     1       0.412   3.434   0.000  0.00  0.00    +0.081 A 
ATOM     22  C   UNL     1       0.897   2.767   0.000  0.00  0.00    +0.054 C 
ATOM     23  N   UNL     1      -0.412   3.434   0.000  0.00  0.00    -0.173 NA
ATOM     24  N   UNL     1      -0.667   4.219   0.000  0.00  0.00    -0.245 N 
ATOM     25  C   UNL     1      -1.452   4.474   0.000  0.00  0.00    +0.154 C 
ENDBRANCH  17  19
ENDBRANCH  15  16
BRANCH  12  10
ATOM     10  C   UNL     1      -0.715   9.241   0.000  0.00  0.00    +0.195 C 
ATOM     11  O   UNL     1       0.000   9.654   0.000  0.00  0.00    -0.216 OA
BRANCH  10   4
ATOM      3  N   UNL     1      -1.429  10.479   0.000  0.00  0.00    -0.274 N 
ATOM      4  C   UNL     1      -1.429   9.654   0.000  0.00  0.00    +0.139 C 
ATOM      5  C   UNL     1      -2.143   9.241   0.000  0.00  0.00    +0.165 C 
ATOM      6  O   UNL     1      -2.858   9.654   0.000  0.00  0.00    -0.343 OA
ATOM      7  C   UNL     1      -2.858  10.479   0.000  0.00  0.00    +0.227 C 
ATOM      8  C   UNL     1      -2.143  10.891   0.000  0.00  0.00    +0.256 C 
ATOM      9  O   UNL     1      -2.143  11.716   0.000  0.00  0.00    -0.272 OA
BRANCH   3   2
ATOM      1  C   UNL     1      -0.715  11.716   0.000  0.00  0.00    +0.023 C 
ATOM      2  C   UNL     1      -0.715  10.891   0.000  0.00  0.00    +0.094 C 
ENDBRANCH   3   2
ENDBRANCH  10   4
ENDBRANCH  12  10
TORSDOF 5
