REMARK  Name = 
REMARK  5 active torsions:
REMARK  status: ('A' for Active; 'I' for Inactive)
REMARK    1  A    between atoms: C_2  and  C_3
REMARK    2  A    between atoms: C_2  and  C_22
REMARK    3  A    between atoms: C_10  and  N_11
REMARK    4  A    between atoms: C_12  and  C_14
REMARK    5  A    between atoms: N_24  and  C_25
REMARK                            x       y       z     vdW  Elec       q    Type
REMARK                         _______ _______ _______ _____ _____    ______ ____
ROOT
ATOM      3  C   UNL     1       0.715  -1.238   0.000  0.00  0.00    +0.039 C 
ATOM      4  C   UNL     1       0.715  -0.412   0.000  0.00  0.00    +0.003 C 
ATOM      5  C   UNL     1       1.429   0.000   0.000  0.00  0.00    +0.000 C 
ATOM      6  C   UNL     1       2.143  -0.412   0.000  0.00  0.00    +0.002 C 
ATOM      7  C   UNL     1       2.143   0.412   0.000  0.00  0.00    +0.000 C 
ATOM      8  C   UNL     1       2.858   0.000   0.000  0.00  0.00    +0.002 C 
ATOM      9  C   UNL     1       3.572  -0.412   0.000  0.00  0.00    +0.022 C 
ATOM     10  C   UNL     1       3.572  -1.238   0.000  0.00  0.00    +0.095 C 
ATOM     17  C   UNL     1       2.858  -1.650   0.000  0.00  0.00    +0.022 C 
ATOM     18  C   UNL     1       2.858  -2.475   0.000  0.00  0.00    +0.002 C 
ATOM     19  C   UNL     1       2.143  -1.238   0.000  0.00  0.00    +0.032 C 
ATOM     20  C   UNL     1       1.429  -1.650   0.000  0.00  0.00    +0.152 C 
ATOM     21  O   UNL     1       1.429  -2.475   0.000  0.00  0.00    -0.223 OA
ENDROOT
BRANCH  10  11
ATOM     11  N   UNL     1       4.287  -1.650   0.000  0.00  0.00    -0.207 NA
ATOM     12  C   UNL     1       5.001  -1.238   0.000  0.00  0.00    +0.241 C 
ATOM     13  O   UNL     1       5.001  -0.412   0.000  0.00  0.00    -0.273 OA
BRANCH  12  14
ATOM     14  C   UNL     1       5.716  -1.650   0.000  0.00  0.00    +0.078 C 
ATOM     15  C   UNL     1       6.541  -1.650   0.000  0.00  0.00    +0.010 C 
ATOM     16  C   UNL     1       6.128  -2.365   0.000  0.00  0.00    +0.010 C 
ENDBRANCH  12  14
ENDBRANCH  10  11
BRANCH   3   2
ATOM      1  C   UNL     1       0.000  -2.475   0.000  0.00  0.00    +0.010 C 
ATOM      2  C   UNL     1       0.000  -1.650   0.000  0.00  0.00    +0.081 C 
BRANCH   2  22
ATOM     22  C   UNL     1      -0.715  -1.238   0.000  0.00  0.00    +0.241 C 
ATOM     23  O   UNL     1      -0.715  -0.412   0.000  0.00  0.00    -0.273 OA
ATOM     24  N   UNL     1      -1.429  -1.650   0.000  0.00  0.00    -0.207 NA
BRANCH  24  25
ATOM     25  C   UNL     1      -2.143  -1.238   0.000  0.00  0.00    +0.095 C 
ATOM     26  C   UNL     1      -2.858  -1.650   0.000  0.00  0.00    +0.022 C 
ATOM     27  C   UNL     1      -3.572  -1.238   0.000  0.00  0.00    +0.002 C 
ATOM     28  C   UNL     1      -3.572  -0.412   0.000  0.00  0.00    +0.000 C 
ATOM     29  C   UNL     1      -2.858   0.000   0.000  0.00  0.00    +0.002 C 
ATOM     30  C   UNL     1      -2.143  -0.412   0.000  0.00  0.00    +0.022 C 
ENDBRANCH  24  25
ENDBRANCH   2  22
ENDBRANCH   3   2
TORSDOF 5
