REMARK  Name = 
REMARK  7 active torsions:
REMARK  status: ('A' for Active; 'I' for Inactive)
REMARK    1  A    between atoms: N_2  and  C_4
REMARK    2  A    between atoms: C_7  and  C_10
REMARK    3  A    between atoms: N_14  and  C_15
REMARK    4  A    between atoms: C_19  and  O_23
REMARK    5  A    between atoms: O_23  and  C_24
REMARK    6  A    between atoms: N_26  and  C_27
REMARK    7  A    between atoms: C_29  and  C_33
REMARK                            x       y       z     vdW  Elec       q    Type
REMARK                         _______ _______ _______ _____ _____    ______ ____
ROOT
ATOM     15  C   UNL     1       1.270  -0.922   0.000  0.00  0.00    +0.167 C 
ATOM     16  C   UNL     1       0.785  -0.255   0.000  0.00  0.00    +0.169 C 
ATOM     17  O   UNL     1       1.270   0.412   0.000  0.00  0.00    -0.348 OA
ATOM     18  C   UNL     1       2.054   0.158   0.000  0.00  0.00    +0.187 C 
ATOM     19  C   UNL     1       2.839   0.412   0.000  0.00  0.00    +0.229 C 
ATOM     20  C   UNL     1       3.324  -0.255   0.000  0.00  0.00    +0.188 C 
ATOM     21  O   UNL     1       2.839  -0.922   0.000  0.00  0.00    -0.348 OA
ATOM     22  C   UNL     1       2.054  -0.667   0.000  0.00  0.00    +0.171 C 
ENDROOT
BRANCH  15  14
ATOM     10  C   UNL     1       1.500  -2.374   0.000  0.00  0.00    +0.184 A 
ATOM     11  N   UNL     1       1.015  -3.042   0.000  0.00  0.00    -0.108 NA
ATOM     12  N   UNL     1       0.230  -2.787   0.000  0.00  0.00    -0.023 NA
ATOM     13  N   UNL     1       0.230  -1.962   0.000  0.00  0.00    -0.043 NA
ATOM     14  N   UNL     1       1.015  -1.707   0.000  0.00  0.00    -0.210 N 
BRANCH  10   7
ATOM      4  C   UNL     1       3.974  -2.374   0.000  0.00  0.00    +0.048 A 
ATOM      5  C   UNL     1       3.562  -3.089   0.000  0.00  0.00    +0.015 A 
ATOM      6  C   UNL     1       2.737  -3.089   0.000  0.00  0.00    +0.004 A 
ATOM      7  C   UNL     1       2.325  -2.374   0.000  0.00  0.00    +0.037 A 
ATOM      8  C   UNL     1       2.737  -1.660   0.000  0.00  0.00    +0.004 A 
ATOM      9  C   UNL     1       3.562  -1.660   0.000  0.00  0.00    +0.015 A 
BRANCH   4   2
ATOM      1  C   UNL     1       5.212  -1.660   0.000  0.00  0.00    +0.112 C 
ATOM      2  N   UNL     1       4.800  -2.374   0.000  0.00  0.00    -0.304 N 
ATOM      3  C   UNL     1       5.212  -3.089   0.000  0.00  0.00    +0.112 C 
ENDBRANCH   4   2
ENDBRANCH  10   7
ENDBRANCH  15  14
BRANCH  19  23
ATOM     23  O   UNL     1       3.094   1.197   0.000  0.00  0.00    -0.432 OA
BRANCH  23  24
ATOM     24  C   UNL     1       3.901   1.369   0.000  0.00  0.00    +0.425 C 
ATOM     25  O   UNL     1       4.453   0.756   0.000  0.00  0.00    -0.224 OA
ATOM     26  N   UNL     1       4.156   2.153   0.000  0.00  0.00    -0.142 NA
BRANCH  26  27
ATOM     27  C   UNL     1       4.963   2.325   0.000  0.00  0.00    +0.077 A 
ATOM     28  C   UNL     1       5.218   3.109   0.000  0.00  0.00    +0.021 A 
ATOM     29  C   UNL     1       6.024   3.281   0.000  0.00  0.00    +0.073 A 
ATOM     30  C   UNL     1       6.577   2.668   0.000  0.00  0.00    +0.004 A 
ATOM     31  C   UNL     1       6.322   1.883   0.000  0.00  0.00    +0.001 A 
ATOM     32  C   UNL     1       5.515   1.712   0.000  0.00  0.00    +0.017 A 
BRANCH  29  33
ATOM     33  C   UNL     1       6.279   4.066   0.000  0.00  0.00    +0.419 C 
ATOM     34  F   UNL     1       6.534   4.850   0.000  0.00  0.00    -0.166 F 
ATOM     35  F   UNL     1       7.064   3.811   0.000  0.00  0.00    -0.166 F 
ATOM     36  F   UNL     1       5.495   4.321   0.000  0.00  0.00    -0.166 F 
ENDBRANCH  29  33
ENDBRANCH  26  27
ENDBRANCH  23  24
ENDBRANCH  19  23
TORSDOF 7
