MODEL 1
REMARK VINA RESULT:     -10.8      0.000      0.000
REMARK  Name = 
REMARK  9 active torsions:
REMARK  status: ('A' for Active; 'I' for Inactive)
REMARK    1  A    between atoms: O_2  and  C_3
REMARK    2  A    between atoms: C_3  and  C_4
REMARK    3  A    between atoms: C_4  and  O_5
REMARK    4  A    between atoms: O_5  and  C_6
REMARK    5  A    between atoms: C_7  and  C_12
REMARK    6  A    between atoms: C_15  and  C_17
REMARK    7  A    between atoms: N_21  and  C_22
REMARK    8  A    between atoms: C_22  and  C_23
REMARK    9  A    between atoms: C_27  and  O_28
REMARK                            x       y       z     vdW  Elec       q    Type
REMARK                         _______ _______ _______ _____ _____    ______ ____
ROOT
ATOM     12  C   UNL     1      -2.855   3.287  24.568  0.00  0.00    +0.208 A 
ATOM     13  N   UNL     1      -3.221   3.282  23.828  0.00  0.00    -0.056 NA
ATOM     14  O   UNL     1      -3.893   2.805  23.880  0.00  0.00    -0.336 OA
ATOM     15  C   UNL     1      -3.941   2.516  24.651  0.00  0.00    +0.251 A 
ATOM     16  N   UNL     1      -3.300   2.814  25.076  0.00  0.00    -0.189 NA
ENDROOT
BRANCH  12   7
ATOM      6  C   UNL     1      -1.431   3.328  24.677  0.00  0.00    +0.228 A 
ATOM      7  C   UNL     1      -2.165   3.695  24.764  0.00  0.00    +0.092 A 
ATOM      8  C   UNL     1      -2.209   4.468  25.046  0.00  0.00    +0.009 A 
ATOM      9  C   UNL     1      -1.519   4.875  25.242  0.00  0.00    +0.021 A 
ATOM     10  C   UNL     1      -0.784   4.509  25.156  0.00  0.00    +0.102 A 
ATOM     11  N   UNL     1      -0.741   3.735  24.873  0.00  0.00    -0.210 NA
BRANCH   6   5
ATOM      5  O   UNL     1      -1.387   2.554  24.395  0.00  0.00    -0.457 OA
BRANCH   5   4
ATOM      4  C   UNL     1      -0.670   2.146  24.419  0.00  0.00    +0.239 C 
BRANCH   4   3
ATOM      3  C   UNL     1      -0.586   1.434  24.011  0.00  0.00    +0.189 C 
BRANCH   3   2
ATOM      1  C   UNL     1      -0.197   0.060  24.003  0.00  0.00    +0.174 C 
ATOM      2  O   UNL     1      -0.391   0.744  24.419  0.00  0.00    -0.347 OA
ENDBRANCH   3   2
ENDBRANCH   4   3
ENDBRANCH   5   4
ENDBRANCH   6   5
ENDBRANCH  12   7
BRANCH  15  17
ATOM     17  C   UNL     1      -4.528   2.016  24.946  0.00  0.00    +0.138 C 
ATOM     18  C   UNL     1      -5.190   2.250  25.379  0.00  0.00    +0.027 C 
ATOM     19  C   UNL     1      -5.627   1.573  25.561  0.00  0.00    +0.019 C 
ATOM     20  C   UNL     1      -5.235   0.923  25.240  0.00  0.00    +0.073 C 
ATOM     21  N   UNL     1      -4.555   1.196  24.860  0.00  0.00    -0.263 NA
BRANCH  21  22
ATOM     22  C   UNL     1      -4.001   0.731  24.464  0.00  0.00    +0.103 C 
BRANCH  22  23
ATOM     23  C   UNL     1      -3.897  -0.058  24.677  0.00  0.00    +0.033 A 
ATOM     24  C   UNL     1      -3.894  -0.645  24.096  0.00  0.00    +0.196 A 
ATOM     25  O   UNL     1      -3.994  -0.440  23.303  0.00  0.00    -0.287 OA
ATOM     26  C   UNL     1      -3.791  -1.435  24.308  0.00  0.00    +0.079 A 
ATOM     27  C   UNL     1      -3.691  -1.640  25.101  0.00  0.00    +0.142 A 
ATOM     30  C   UNL     1      -3.695  -1.054  25.682  0.00  0.00    +0.037 A 
ATOM     31  C   UNL     1      -3.798  -0.263  25.469  0.00  0.00    +0.003 A 
BRANCH  27  28
ATOM     28  O   UNL     1      -3.588  -2.431  25.314  0.00  0.00    -0.471 OA
ATOM     29  C   UNL     1      -3.219  -2.953  24.792  0.00  0.00    +0.252 C 
ENDBRANCH  27  28
ENDBRANCH  22  23
ENDBRANCH  21  22
ENDBRANCH  15  17
TORSDOF 9
ENDMDL
MODEL 2
REMARK VINA RESULT:     -10.5      1.336      4.563
REMARK  Name = 
REMARK  9 active torsions:
REMARK  status: ('A' for Active; 'I' for Inactive)
REMARK    1  A    between atoms: O_2  and  C_3
REMARK    2  A    between atoms: C_3  and  C_4
REMARK    3  A    between atoms: C_4  and  O_5
REMARK    4  A    between atoms: O_5  and  C_6
REMARK    5  A    between atoms: C_7  and  C_12
REMARK    6  A    between atoms: C_15  and  C_17
REMARK    7  A    between atoms: N_21  and  C_22
REMARK    8  A    between atoms: C_22  and  C_23
REMARK    9  A    between atoms: C_27  and  O_28
REMARK                            x       y       z     vdW  Elec       q    Type
REMARK                         _______ _______ _______ _____ _____    ______ ____
ROOT
ATOM     12  C   UNL     1      -3.627  -0.512  24.212  0.00  0.00    +0.208 A 
ATOM     13  N   UNL     1      -3.543  -0.098  23.503  0.00  0.00    -0.056 NA
ATOM     14  O   UNL     1      -3.783   0.681  23.632  0.00  0.00    -0.336 OA
ATOM     15  C   UNL     1      -4.014   0.749  24.421  0.00  0.00    +0.251 A 
ATOM     16  N   UNL     1      -3.917   0.011  24.780  0.00  0.00    -0.189 NA
ENDROOT
BRANCH  12   7
ATOM      6  C   UNL     1      -2.671  -1.542  24.472  0.00  0.00    +0.228 A 
ATOM      7  C   UNL     1      -3.450  -1.309  24.333  0.00  0.00    +0.092 A 
ATOM      8  C   UNL     1      -4.052  -1.872  24.313  0.00  0.00    +0.009 A 
ATOM      9  C   UNL     1      -3.876  -2.669  24.433  0.00  0.00    +0.021 A 
ATOM     10  C   UNL     1      -3.097  -2.903  24.573  0.00  0.00    +0.102 A 
ATOM     11  N   UNL     1      -2.495  -2.339  24.592  0.00  0.00    -0.210 NA
BRANCH   6   5
ATOM      5  O   UNL     1      -2.069  -0.979  24.492  0.00  0.00    -0.457 OA
BRANCH   5   4
ATOM      4  C   UNL     1      -1.280  -1.219  24.530  0.00  0.00    +0.239 C 
BRANCH   4   3
ATOM      3  C   UNL     1      -0.678  -0.656  24.552  0.00  0.00    +0.189 C 
BRANCH   3   2
ATOM      1  C   UNL     1       0.333  -0.073  23.727  0.00  0.00    +0.174 C 
ATOM      2  O   UNL     1      -0.017  -0.739  24.065  0.00  0.00    -0.347 OA
ENDBRANCH   3   2
ENDBRANCH   4   3
ENDBRANCH   5   4
ENDBRANCH   6   5
ENDBRANCH  12   7
BRANCH  15  17
ATOM     17  C   UNL     1      -4.292   1.433  24.788  0.00  0.00    +0.138 C 
ATOM     18  C   UNL     1      -5.076   1.587  24.996  0.00  0.00    +0.027 C 
ATOM     19  C   UNL     1      -5.105   2.333  25.348  0.00  0.00    +0.019 C 
ATOM     20  C   UNL     1      -4.339   2.639  25.358  0.00  0.00    +0.073 C 
ATOM     21  N   UNL     1      -3.837   2.083  25.012  0.00  0.00    -0.263 NA
BRANCH  21  22
ATOM     22  C   UNL     1      -3.023   2.164  24.909  0.00  0.00    +0.103 C 
BRANCH  22  23
ATOM     23  C   UNL     1      -2.662   2.896  25.025  0.00  0.00    +0.033 A 
ATOM     24  C   UNL     1      -1.948   2.944  25.437  0.00  0.00    +0.196 A 
ATOM     25  O   UNL     1      -1.596   2.259  25.732  0.00  0.00    -0.287 OA
ATOM     26  C   UNL     1      -1.588   3.676  25.553  0.00  0.00    +0.079 A 
ATOM     27  C   UNL     1      -1.940   4.361  25.258  0.00  0.00    +0.142 A 
ATOM     30  C   UNL     1      -2.654   4.314  24.847  0.00  0.00    +0.037 A 
ATOM     31  C   UNL     1      -3.014   3.581  24.730  0.00  0.00    +0.003 A 
BRANCH  27  28
ATOM     28  O   UNL     1      -1.579   5.095  25.375  0.00  0.00    -0.471 OA
ATOM     29  C   UNL     1      -0.935   5.315  24.909  0.00  0.00    +0.252 C 
ENDBRANCH  27  28
ENDBRANCH  22  23
ENDBRANCH  21  22
ENDBRANCH  15  17
TORSDOF 9
ENDMDL
MODEL 3
REMARK VINA RESULT:     -10.4      1.356      3.058
REMARK  Name = 
REMARK  9 active torsions:
REMARK  status: ('A' for Active; 'I' for Inactive)
REMARK    1  A    between atoms: O_2  and  C_3
REMARK    2  A    between atoms: C_3  and  C_4
REMARK    3  A    between atoms: C_4  and  O_5
REMARK    4  A    between atoms: O_5  and  C_6
REMARK    5  A    between atoms: C_7  and  C_12
REMARK    6  A    between atoms: C_15  and  C_17
REMARK    7  A    between atoms: N_21  and  C_22
REMARK    8  A    between atoms: C_22  and  C_23
REMARK    9  A    between atoms: C_27  and  O_28
REMARK                            x       y       z     vdW  Elec       q    Type
REMARK                         _______ _______ _______ _____ _____    ______ ____
ROOT
ATOM     12  C   UNL     1      -1.094   2.894  25.394  0.00  0.00    +0.208 A 
ATOM     13  N   UNL     1      -0.900   2.534  26.111  0.00  0.00    -0.056 NA
ATOM     14  O   UNL     1      -0.755   1.735  25.964  0.00  0.00    -0.336 OA
ATOM     15  C   UNL     1      -0.860   1.601  25.157  0.00  0.00    +0.251 A 
ATOM     16  N   UNL     1      -1.070   2.318  24.805  0.00  0.00    -0.189 NA
ENDROOT
BRANCH  12   7
ATOM      6  C   UNL     1      -2.065   3.942  25.343  0.00  0.00    +0.228 A 
ATOM      7  C   UNL     1      -1.281   3.690  25.287  0.00  0.00    +0.092 A 
ATOM      8  C   UNL     1      -0.683   4.235  25.122  0.00  0.00    +0.009 A 
ATOM      9  C   UNL     1      -0.870   5.031  25.015  0.00  0.00    +0.021 A 
ATOM     10  C   UNL     1      -1.653   5.283  25.071  0.00  0.00    +0.102 A 
ATOM     11  N   UNL     1      -2.251   4.738  25.235  0.00  0.00    -0.210 NA
BRANCH   6   5
ATOM      5  O   UNL     1      -2.662   3.397  25.507  0.00  0.00    -0.457 OA
BRANCH   5   4
ATOM      4  C   UNL     1      -3.453   3.614  25.422  0.00  0.00    +0.239 C 
BRANCH   4   3
ATOM      3  C   UNL     1      -4.048   3.141  25.741  0.00  0.00    +0.189 C 
BRANCH   3   2
ATOM      1  C   UNL     1      -5.314   2.494  25.598  0.00  0.00    +0.174 C 
ATOM      2  O   UNL     1      -4.662   2.869  25.261  0.00  0.00    -0.347 OA
ENDBRANCH   3   2
ENDBRANCH   4   3
ENDBRANCH   5   4
ENDBRANCH   6   5
ENDBRANCH  12   7
BRANCH  15  17
ATOM     17  C   UNL     1      -0.771   0.879  24.770  0.00  0.00    +0.138 C 
ATOM     18  C   UNL     1      -0.138   0.662  24.287  0.00  0.00    +0.027 C 
ATOM     19  C   UNL     1      -0.275  -0.105  24.015  0.00  0.00    +0.019 C 
ATOM     20  C   UNL     1      -0.992  -0.363  24.330  0.00  0.00    +0.073 C 
ATOM     21  N   UNL     1      -1.299   0.245  24.797  0.00  0.00    -0.263 NA
BRANCH  21  22
ATOM     22  C   UNL     1      -2.009   0.223  25.216  0.00  0.00    +0.103 C 
BRANCH  22  23
ATOM     23  C   UNL     1      -2.639  -0.230  24.938  0.00  0.00    +0.033 A 
ATOM     24  C   UNL     1      -2.983  -0.801  25.424  0.00  0.00    +0.196 A 
ATOM     25  O   UNL     1      -2.697  -0.918  26.189  0.00  0.00    -0.287 OA
ATOM     26  C   UNL     1      -3.613  -1.255  25.146  0.00  0.00    +0.079 A 
ATOM     27  C   UNL     1      -3.899  -1.139  24.382  0.00  0.00    +0.142 A 
ATOM     30  C   UNL     1      -3.556  -0.568  23.895  0.00  0.00    +0.037 A 
ATOM     31  C   UNL     1      -2.925  -0.114  24.173  0.00  0.00    +0.003 A 
BRANCH  27  28
ATOM     28  O   UNL     1      -4.530  -1.593  24.103  0.00  0.00    -0.471 OA
ATOM     29  C   UNL     1      -4.386  -2.327  23.755  0.00  0.00    +0.252 C 
ENDBRANCH  27  28
ENDBRANCH  22  23
ENDBRANCH  21  22
ENDBRANCH  15  17
TORSDOF 9
ENDMDL
MODEL 4
REMARK VINA RESULT:     -10.0      1.569      5.435
REMARK  Name = 
REMARK  9 active torsions:
REMARK  status: ('A' for Active; 'I' for Inactive)
REMARK    1  A    between atoms: O_2  and  C_3
REMARK    2  A    between atoms: C_3  and  C_4
REMARK    3  A    between atoms: C_4  and  O_5
REMARK    4  A    between atoms: O_5  and  C_6
REMARK    5  A    between atoms: C_7  and  C_12
REMARK    6  A    between atoms: C_15  and  C_17
REMARK    7  A    between atoms: N_21  and  C_22
REMARK    8  A    between atoms: C_22  and  C_23
REMARK    9  A    between atoms: C_27  and  O_28
REMARK                            x       y       z     vdW  Elec       q    Type
REMARK                         _______ _______ _______ _____ _____    ______ ____
ROOT
ATOM     12  C   UNL     1      -2.220  -1.034  24.757  0.00  0.00    +0.208 A 
ATOM     13  N   UNL     1      -1.855  -1.046  25.498  0.00  0.00    -0.056 NA
ATOM     14  O   UNL     1      -1.170  -0.587  25.452  0.00  0.00    -0.336 OA
ATOM     15  C   UNL     1      -1.112  -0.292  24.684  0.00  0.00    +0.251 A 
ATOM     16  N   UNL     1      -1.761  -0.569  24.255  0.00  0.00    -0.189 NA
ENDROOT
BRANCH  12   7
ATOM      6  C   UNL     1      -3.631  -1.001  24.538  0.00  0.00    +0.228 A 
ATOM      7  C   UNL     1      -2.920  -1.420  24.556  0.00  0.00    +0.092 A 
ATOM      8  C   UNL     1      -2.910  -2.224  24.373  0.00  0.00    +0.009 A 
ATOM      9  C   UNL     1      -3.610  -2.610  24.171  0.00  0.00    +0.021 A 
ATOM     10  C   UNL     1      -4.322  -2.193  24.153  0.00  0.00    +0.102 A 
ATOM     11  N   UNL     1      -4.332  -1.388  24.336  0.00  0.00    -0.210 NA
BRANCH   6   5
ATOM      5  O   UNL     1      -3.642  -0.198  24.721  0.00  0.00    -0.457 OA
BRANCH   5   4
ATOM      4  C   UNL     1      -4.334   0.240  24.622  0.00  0.00    +0.239 C 
BRANCH   4   3
ATOM      3  C   UNL     1      -4.408   0.981  24.974  0.00  0.00    +0.189 C 
BRANCH   3   2
ATOM      1  C   UNL     1      -4.829   2.341  24.848  0.00  0.00    +0.174 C 
ATOM      2  O   UNL     1      -4.537   1.650  24.508  0.00  0.00    -0.347 OA
ENDBRANCH   3   2
ENDBRANCH   4   3
ENDBRANCH   5   4
ENDBRANCH   6   5
ENDBRANCH  12   7
BRANCH  15  17
ATOM     17  C   UNL     1      -0.511   0.193  24.395  0.00  0.00    +0.138 C 
ATOM     18  C   UNL     1       0.043  -0.011  23.819  0.00  0.00    +0.027 C 
ATOM     19  C   UNL     1       0.538   0.638  23.699  0.00  0.00    +0.019 C 
ATOM     20  C   UNL     1       0.290   1.244  24.202  0.00  0.00    +0.073 C 
ATOM     21  N   UNL     1      -0.358   0.969  24.632  0.00  0.00    -0.263 NA
BRANCH  21  22
ATOM     22  C   UNL     1      -0.779   1.395  25.199  0.00  0.00    +0.103 C 
BRANCH  22  23
ATOM     23  C   UNL     1      -0.800   2.218  25.165  0.00  0.00    +0.033 A 
ATOM     24  C   UNL     1      -0.566   2.664  25.819  0.00  0.00    +0.196 A 
ATOM     25  O   UNL     1      -0.310   2.286  26.505  0.00  0.00    -0.287 OA
ATOM     26  C   UNL     1      -0.586   3.488  25.785  0.00  0.00    +0.079 A 
ATOM     27  C   UNL     1      -0.841   3.867  25.098  0.00  0.00    +0.142 A 
ATOM     30  C   UNL     1      -1.076   3.421  24.444  0.00  0.00    +0.037 A 
ATOM     31  C   UNL     1      -1.055   2.597  24.478  0.00  0.00    +0.003 A 
BRANCH  27  28
ATOM     28  O   UNL     1      -0.862   4.691  25.064  0.00  0.00    -0.471 OA
ATOM     29  C   UNL     1      -1.584   5.087  25.114  0.00  0.00    +0.252 C 
ENDBRANCH  27  28
ENDBRANCH  22  23
ENDBRANCH  21  22
ENDBRANCH  15  17
TORSDOF 9
ENDMDL
MODEL 5
REMARK VINA RESULT:      -9.8      1.300      3.511
REMARK  Name = 
REMARK  9 active torsions:
REMARK  status: ('A' for Active; 'I' for Inactive)
REMARK    1  A    between atoms: O_2  and  C_3
REMARK    2  A    between atoms: C_3  and  C_4
REMARK    3  A    between atoms: C_4  and  O_5
REMARK    4  A    between atoms: O_5  and  C_6
REMARK    5  A    between atoms: C_7  and  C_12
REMARK    6  A    between atoms: C_15  and  C_17
REMARK    7  A    between atoms: N_21  and  C_22
REMARK    8  A    between atoms: C_22  and  C_23
REMARK    9  A    between atoms: C_27  and  O_28
REMARK                            x       y       z     vdW  Elec       q    Type
REMARK                         _______ _______ _______ _____ _____    ______ ____
ROOT
ATOM     12  C   UNL     1      -3.405   2.899  24.963  0.00  0.00    +0.208 A 
ATOM     13  N   UNL     1      -3.068   3.150  24.252  0.00  0.00    -0.056 NA
ATOM     14  O   UNL     1      -2.249   3.066  24.314  0.00  0.00    -0.336 OA
ATOM     15  C   UNL     1      -2.080   2.763  25.063  0.00  0.00    +0.251 A 
ATOM     16  N   UNL     1      -2.794   2.660  25.463  0.00  0.00    -0.189 NA
ENDROOT
BRANCH  12   7
ATOM      6  C   UNL     1      -4.650   2.201  25.021  0.00  0.00    +0.228 A 
ATOM      7  C   UNL     1      -4.210   2.889  25.140  0.00  0.00    +0.092 A 
ATOM      8  C   UNL     1      -4.575   3.566  25.437  0.00  0.00    +0.009 A 
ATOM      9  C   UNL     1      -5.380   3.556  25.615  0.00  0.00    +0.021 A 
ATOM     10  C   UNL     1      -5.821   2.870  25.496  0.00  0.00    +0.102 A 
ATOM     11  N   UNL     1      -5.456   2.192  25.199  0.00  0.00    -0.210 NA
BRANCH   6   5
ATOM      5  O   UNL     1      -4.286   1.524  24.724  0.00  0.00    -0.457 OA
BRANCH   5   4
ATOM      4  C   UNL     1      -4.683   0.801  24.737  0.00  0.00    +0.239 C 
BRANCH   4   3
ATOM      3  C   UNL     1      -4.408   0.170  24.283  0.00  0.00    +0.189 C 
BRANCH   3   2
ATOM      1  C   UNL     1      -4.271  -1.245  24.138  0.00  0.00    +0.174 C 
ATOM      2  O   UNL     1      -4.331  -0.579  24.620  0.00  0.00    -0.347 OA
ENDBRANCH   3   2
ENDBRANCH   4   3
ENDBRANCH   5   4
ENDBRANCH   6   5
ENDBRANCH  12   7
BRANCH  15  17
ATOM     17  C   UNL     1      -1.330   2.592  25.359  0.00  0.00    +0.138 C 
ATOM     18  C   UNL     1      -0.919   3.034  25.923  0.00  0.00    +0.027 C 
ATOM     19  C   UNL     1      -0.193   2.665  26.056  0.00  0.00    +0.019 C 
ATOM     20  C   UNL     1      -0.155   1.996  25.575  0.00  0.00    +0.073 C 
ATOM     21  N   UNL     1      -0.857   1.951  25.144  0.00  0.00    -0.263 NA
BRANCH  21  22
ATOM     22  C   UNL     1      -1.053   1.367  24.596  0.00  0.00    +0.103 C 
BRANCH  22  23
ATOM     23  C   UNL     1      -0.881   0.576  24.755  0.00  0.00    +0.033 A 
ATOM     24  C   UNL     1      -0.529   0.105  24.176  0.00  0.00    +0.196 A 
ATOM     25  O   UNL     1      -0.349   0.425  23.438  0.00  0.00    -0.287 OA
ATOM     26  C   UNL     1      -0.357  -0.685  24.336  0.00  0.00    +0.079 A 
ATOM     27  C   UNL     1      -0.537  -1.006  25.074  0.00  0.00    +0.142 A 
ATOM     30  C   UNL     1      -0.889  -0.535  25.654  0.00  0.00    +0.037 A 
ATOM     31  C   UNL     1      -1.061   0.256  25.494  0.00  0.00    +0.003 A 
BRANCH  27  28
ATOM     28  O   UNL     1      -0.365  -1.797  25.235  0.00  0.00    -0.471 OA
ATOM     29  C   UNL     1      -0.938  -2.377  25.106  0.00  0.00    +0.252 C 
ENDBRANCH  27  28
ENDBRANCH  22  23
ENDBRANCH  21  22
ENDBRANCH  15  17
TORSDOF 9
ENDMDL
MODEL 6
REMARK VINA RESULT:      -9.4      1.513      3.717
REMARK  Name = 
REMARK  9 active torsions:
REMARK  status: ('A' for Active; 'I' for Inactive)
REMARK    1  A    between atoms: O_2  and  C_3
REMARK    2  A    between atoms: C_3  and  C_4
REMARK    3  A    between atoms: C_4  and  O_5
REMARK    4  A    between atoms: O_5  and  C_6
REMARK    5  A    between atoms: C_7  and  C_12
REMARK    6  A    between atoms: C_15  and  C_17
REMARK    7  A    between atoms: N_21  and  C_22
REMARK    8  A    between atoms: C_22  and  C_23
REMARK    9  A    between atoms: C_27  and  O_28
REMARK                            x       y       z     vdW  Elec       q    Type
REMARK                         _______ _______ _______ _____ _____    ______ ____
ROOT
ATOM     12  C   UNL     1      -0.871  -0.171  24.392  0.00  0.00    +0.208 A 
ATOM     13  N   UNL     1      -0.945  -0.330  25.198  0.00  0.00    -0.056 NA
ATOM     14  O   UNL     1      -1.732  -0.528  25.348  0.00  0.00    -0.336 OA
ATOM     15  C   UNL     1      -2.144  -0.492  24.633  0.00  0.00    +0.251 A 
ATOM     16  N   UNL     1      -1.611  -0.271  24.043  0.00  0.00    -0.189 NA
ENDROOT
BRANCH  12   7
ATOM      6  C   UNL     1       0.099   0.825  24.060  0.00  0.00    +0.228 A 
ATOM      7  C   UNL     1      -0.177   0.049  24.003  0.00  0.00    +0.092 A 
ATOM      8  C   UNL     1       0.240  -0.506  23.558  0.00  0.00    +0.009 A 
ATOM      9  C   UNL     1       0.934  -0.286  23.170  0.00  0.00    +0.021 A 
ATOM     10  C   UNL     1       1.210   0.489  23.226  0.00  0.00    +0.102 A 
ATOM     11  N   UNL     1       0.793   1.045  23.672  0.00  0.00    -0.210 NA
BRANCH   6   5
ATOM      5  O   UNL     1      -0.318   1.379  24.505  0.00  0.00    -0.457 OA
BRANCH   5   4
ATOM      4  C   UNL     1      -0.098   2.175  24.485  0.00  0.00    +0.239 C 
BRANCH   4   3
ATOM      3  C   UNL     1      -0.454   2.714  24.996  0.00  0.00    +0.189 C 
BRANCH   3   2
ATOM      1  C   UNL     1      -1.060   3.988  25.225  0.00  0.00    +0.174 C 
ATOM      2  O   UNL     1      -0.693   3.453  24.717  0.00  0.00    -0.347 OA
ENDBRANCH   3   2
ENDBRANCH   4   3
ENDBRANCH   5   4
ENDBRANCH   6   5
ENDBRANCH  12   7
BRANCH  15  17
ATOM     17  C   UNL     1      -2.947  -0.648  24.528  0.00  0.00    +0.138 C 
ATOM     18  C   UNL     1      -3.295  -1.396  24.497  0.00  0.00    +0.027 C 
ATOM     19  C   UNL     1      -4.106  -1.295  24.384  0.00  0.00    +0.019 C 
ATOM     20  C   UNL     1      -4.259  -0.485  24.346  0.00  0.00    +0.073 C 
ATOM     21  N   UNL     1      -3.543  -0.086  24.435  0.00  0.00    -0.263 NA
BRANCH  21  22
ATOM     22  C   UNL     1      -3.441   0.733  24.431  0.00  0.00    +0.103 C 
BRANCH  22  23
ATOM     23  C   UNL     1      -4.069   1.228  24.628  0.00  0.00    +0.033 A 
ATOM     24  C   UNL     1      -4.174   1.942  24.227  0.00  0.00    +0.196 A 
ATOM     25  O   UNL     1      -3.650   2.159  23.628  0.00  0.00    -0.287 OA
ATOM     26  C   UNL     1      -4.803   2.437  24.424  0.00  0.00    +0.079 A 
ATOM     27  C   UNL     1      -5.328   2.220  25.022  0.00  0.00    +0.142 A 
ATOM     30  C   UNL     1      -5.224   1.507  25.424  0.00  0.00    +0.037 A 
ATOM     31  C   UNL     1      -4.594   1.011  25.226  0.00  0.00    +0.003 A 
BRANCH  27  28
ATOM     28  O   UNL     1      -5.958   2.716  25.220  0.00  0.00    -0.471 OA
ATOM     29  C   UNL     1      -5.828   3.374  25.700  0.00  0.00    +0.252 C 
ENDBRANCH  27  28
ENDBRANCH  22  23
ENDBRANCH  21  22
ENDBRANCH  15  17
TORSDOF 9
ENDMDL
MODEL 7
REMARK VINA RESULT:      -9.3      1.409      4.091
REMARK  Name = 
REMARK  9 active torsions:
REMARK  status: ('A' for Active; 'I' for Inactive)
REMARK    1  A    between atoms: O_2  and  C_3
REMARK    2  A    between atoms: C_3  and  C_4
REMARK    3  A    between atoms: C_4  and  O_5
REMARK    4  A    between atoms: O_5  and  C_6
REMARK    5  A    between atoms: C_7  and  C_12
REMARK    6  A    between atoms: C_15  and  C_17
REMARK    7  A    between atoms: N_21  and  C_22
REMARK    8  A    between atoms: C_22  and  C_23
REMARK    9  A    between atoms: C_27  and  O_28
REMARK                            x       y       z     vdW  Elec       q    Type
REMARK                         _______ _______ _______ _____ _____    ______ ____
ROOT
ATOM     12  C   UNL     1      -0.236   1.644  24.714  0.00  0.00    +0.208 A 
ATOM     13  N   UNL     1      -0.112   1.744  25.524  0.00  0.00    -0.056 NA
ATOM     14  O   UNL     1      -0.461   2.457  25.749  0.00  0.00    -0.336 OA
ATOM     15  C   UNL     1      -0.800   2.798  25.079  0.00  0.00    +0.251 A 
ATOM     16  N   UNL     1      -0.661   2.295  24.439  0.00  0.00    -0.189 NA
ENDROOT
BRANCH  12   7
ATOM      6  C   UNL     1      -0.383   0.286  24.294  0.00  0.00    +0.228 A 
ATOM      7  C   UNL     1       0.021   1.005  24.259  0.00  0.00    +0.092 A 
ATOM      8  C   UNL     1       0.681   1.085  23.772  0.00  0.00    +0.009 A 
ATOM      9  C   UNL     1       0.938   0.446  23.317  0.00  0.00    +0.021 A 
ATOM     10  C   UNL     1       0.535  -0.273  23.351  0.00  0.00    +0.102 A 
ATOM     11  N   UNL     1      -0.126  -0.352  23.839  0.00  0.00    -0.210 NA
BRANCH   6   5
ATOM      5  O   UNL     1      -1.043   0.206  24.781  0.00  0.00    -0.457 OA
BRANCH   5   4
ATOM      4  C   UNL     1      -1.526  -0.459  24.717  0.00  0.00    +0.239 C 
BRANCH   4   3
ATOM      3  C   UNL     1      -2.126  -0.589  25.267  0.00  0.00    +0.189 C 
BRANCH   3   2
ATOM      1  C   UNL     1      -3.480  -0.945  25.556  0.00  0.00    +0.174 C 
ATOM      2  O   UNL     1      -2.897  -0.736  25.011  0.00  0.00    -0.347 OA
ENDBRANCH   3   2
ENDBRANCH   4   3
ENDBRANCH   5   4
ENDBRANCH   6   5
ENDBRANCH  12   7
BRANCH  15  17
ATOM     17  C   UNL     1      -1.207   3.514  25.052  0.00  0.00    +0.138 C 
ATOM     18  C   UNL     1      -0.882   4.262  25.181  0.00  0.00    +0.027 C 
ATOM     19  C   UNL     1      -1.485   4.820  25.100  0.00  0.00    +0.019 C 
ATOM     20  C   UNL     1      -2.182   4.417  24.921  0.00  0.00    +0.073 C 
ATOM     21  N   UNL     1      -2.011   3.610  24.891  0.00  0.00    -0.263 NA
BRANCH  21  22
ATOM     22  C   UNL     1      -2.548   3.006  24.729  0.00  0.00    +0.103 C 
BRANCH  22  23
ATOM     23  C   UNL     1      -3.342   3.093  24.936  0.00  0.00    +0.033 A 
ATOM     24  C   UNL     1      -3.932   2.799  24.439  0.00  0.00    +0.196 A 
ATOM     25  O   UNL     1      -3.728   2.418  23.737  0.00  0.00    -0.287 OA
ATOM     26  C   UNL     1      -4.726   2.887  24.646  0.00  0.00    +0.079 A 
ATOM     27  C   UNL     1      -4.930   3.268  25.348  0.00  0.00    +0.142 A 
ATOM     30  C   UNL     1      -4.340   3.562  25.845  0.00  0.00    +0.037 A 
ATOM     31  C   UNL     1      -3.546   3.474  25.638  0.00  0.00    +0.003 A 
BRANCH  27  28
ATOM     28  O   UNL     1      -5.724   3.355  25.555  0.00  0.00    -0.471 OA
ATOM     29  C   UNL     1      -6.117   2.744  25.947  0.00  0.00    +0.252 C 
ENDBRANCH  27  28
ENDBRANCH  22  23
ENDBRANCH  21  22
ENDBRANCH  15  17
TORSDOF 9
ENDMDL
MODEL 8
REMARK VINA RESULT:      -9.2      1.488      4.132
REMARK  Name = 
REMARK  9 active torsions:
REMARK  status: ('A' for Active; 'I' for Inactive)
REMARK    1  A    between atoms: O_2  and  C_3
REMARK    2  A    between atoms: C_3  and  C_4
REMARK    3  A    between atoms: C_4  and  O_5
REMARK    4  A    between atoms: O_5  and  C_6
REMARK    5  A    between atoms: C_7  and  C_12
REMARK    6  A    between atoms: C_15  and  C_17
REMARK    7  A    between atoms: N_21  and  C_22
REMARK    8  A    between atoms: C_22  and  C_23
REMARK    9  A    between atoms: C_27  and  O_28
REMARK                            x       y       z     vdW  Elec       q    Type
REMARK                         _______ _______ _______ _____ _____    ______ ____
ROOT
ATOM     12  C   UNL     1      -3.879   1.326  24.628  0.00  0.00    +0.208 A 
ATOM     13  N   UNL     1      -3.724   1.210  23.825  0.00  0.00    -0.056 NA
ATOM     14  O   UNL     1      -3.121   0.651  23.760  0.00  0.00    -0.336 OA
ATOM     15  C   UNL     1      -2.904   0.421  24.522  0.00  0.00    +0.251 A 
ATOM     16  N   UNL     1      -3.373   0.838  25.058  0.00  0.00    -0.189 NA
ENDROOT
BRANCH  12   7
ATOM      6  C   UNL     1      -4.237   2.619  25.120  0.00  0.00    +0.228 A 
ATOM      7  C   UNL     1      -4.443   1.839  24.943  0.00  0.00    +0.092 A 
ATOM      8  C   UNL     1      -5.211   1.574  25.082  0.00  0.00    +0.009 A 
ATOM      9  C   UNL     1      -5.774   2.087  25.397  0.00  0.00    +0.021 A 
ATOM     10  C   UNL     1      -5.570   2.866  25.574  0.00  0.00    +0.102 A 
ATOM     11  N   UNL     1      -4.800   3.132  25.435  0.00  0.00    -0.210 NA
BRANCH   6   5
ATOM      5  O   UNL     1      -3.469   2.884  24.981  0.00  0.00    -0.457 OA
BRANCH   5   4
ATOM      4  C   UNL     1      -3.233   3.627  25.253  0.00  0.00    +0.239 C 
BRANCH   4   3
ATOM      3  C   UNL     1      -2.534   3.965  24.976  0.00  0.00    +0.189 C 
BRANCH   3   2
ATOM      1  C   UNL     1      -1.495   4.927  25.168  0.00  0.00    +0.174 C 
ATOM      2  O   UNL     1      -2.070   4.426  25.480  0.00  0.00    -0.347 OA
ENDBRANCH   3   2
ENDBRANCH   4   3
ENDBRANCH   5   4
ENDBRANCH   6   5
ENDBRANCH  12   7
BRANCH  15  17
ATOM     17  C   UNL     1      -2.321  -0.130  24.715  0.00  0.00    +0.138 C 
ATOM     18  C   UNL     1      -2.448  -0.876  25.044  0.00  0.00    +0.027 C 
ATOM     19  C   UNL     1      -1.713  -1.239  25.145  0.00  0.00    +0.019 C 
ATOM     20  C   UNL     1      -1.133  -0.717  24.880  0.00  0.00    +0.073 C 
ATOM     21  N   UNL     1      -1.508  -0.031  24.614  0.00  0.00    -0.263 NA
BRANCH  21  22
ATOM     22  C   UNL     1      -1.135   0.635  24.302  0.00  0.00    +0.103 C 
BRANCH  22  23
ATOM     23  C   UNL     1      -0.376   0.573  23.986  0.00  0.00    +0.033 A 
ATOM     24  C   UNL     1       0.182   1.163  24.135  0.00  0.00    +0.196 A 
ATOM     25  O   UNL     1      -0.021   1.814  24.599  0.00  0.00    -0.287 OA
ATOM     26  C   UNL     1       0.941   1.102  23.819  0.00  0.00    +0.079 A 
ATOM     27  C   UNL     1       1.144   0.451  23.355  0.00  0.00    +0.142 A 
ATOM     30  C   UNL     1       0.587  -0.139  23.206  0.00  0.00    +0.037 A 
ATOM     31  C   UNL     1      -0.173  -0.078  23.522  0.00  0.00    +0.003 A 
BRANCH  27  28
ATOM     28  O   UNL     1       1.904   0.389  23.039  0.00  0.00    -0.471 OA
ATOM     29  C   UNL     1       2.028  -0.040  22.346  0.00  0.00    +0.252 C 
ENDBRANCH  27  28
ENDBRANCH  22  23
ENDBRANCH  21  22
ENDBRANCH  15  17
TORSDOF 9
ENDMDL
