MODEL 1
REMARK VINA RESULT:      -7.4      0.000      0.000
REMARK  Name = 
REMARK  6 active torsions:
REMARK  status: ('A' for Active; 'I' for Inactive)
REMARK    1  A    between atoms: O_2  and  C_3
REMARK    2  A    between atoms: C_6  and  C_9
REMARK    3  A    between atoms: N_11  and  C_12
REMARK    4  A    between atoms: C_16  and  N_20
REMARK    5  A    between atoms: C_23  and  C_27
REMARK    6  A    between atoms: C_30  and  N_33
REMARK                            x       y       z     vdW  Elec       q    Type
REMARK                         _______ _______ _______ _____ _____    ______ ____
ROOT
ATOM     12  C   UNL     1       1.342   0.661  23.467  0.00  0.00    +0.155 C 
ATOM     13  C   UNL     1       0.875   0.070  23.132  0.00  0.00    +0.166 C 
ATOM     14  O   UNL     1       0.085   0.265  23.263  0.00  0.00    -0.350 OA
ATOM     15  C   UNL     1       0.063   0.976  23.679  0.00  0.00    +0.166 C 
ATOM     16  C   UNL     1      -0.439   1.537  24.018  0.00  0.00    +0.154 C 
ATOM     17  C   UNL     1       0.028   2.129  24.353  0.00  0.00    +0.166 C 
ATOM     18  O   UNL     1       0.819   1.934  24.221  0.00  0.00    -0.350 OA
ATOM     19  C   UNL     1       0.840   1.221  23.805  0.00  0.00    +0.166 C 
ENDROOT
BRANCH  16  20
ATOM     20  N   UNL     1      -1.264   1.510  24.020  0.00  0.00    -0.200 NA
ATOM     21  C   UNL     1      -1.689   1.932  24.588  0.00  0.00    +0.237 A 
ATOM     22  N   UNL     1      -2.513   1.906  24.591  0.00  0.00    -0.212 NA
ATOM     23  C   UNL     1      -2.938   2.328  25.158  0.00  0.00    +0.086 A 
ATOM     24  C   UNL     1      -2.538   2.777  25.723  0.00  0.00    +0.040 A 
ATOM     25  C   UNL     1      -1.713   2.803  25.720  0.00  0.00    +0.103 A 
ATOM     26  N   UNL     1      -1.289   2.381  25.153  0.00  0.00    -0.211 NA
BRANCH  23  27
ATOM     27  C   UNL     1      -3.762   2.302  25.161  0.00  0.00    +0.018 A 
ATOM     28  C   UNL     1      -4.151   1.573  25.173  0.00  0.00    +0.003 A 
ATOM     29  C   UNL     1      -4.975   1.547  25.176  0.00  0.00    +0.015 A 
ATOM     30  C   UNL     1      -5.411   2.247  25.167  0.00  0.00    +0.048 A 
ATOM     31  C   UNL     1      -5.022   2.975  25.154  0.00  0.00    +0.015 A 
ATOM     32  C   UNL     1      -4.197   3.001  25.152  0.00  0.00    +0.003 A 
BRANCH  30  33
ATOM     33  N   UNL     1      -6.235   2.221  25.170  0.00  0.00    -0.304 N 
ATOM     34  C   UNL     1      -6.659   2.633  25.745  0.00  0.00    +0.112 C 
ATOM     35  C   UNL     1      -6.636   1.783  24.597  0.00  0.00    +0.112 C 
ENDBRANCH  30  33
ENDBRANCH  23  27
ENDBRANCH  16  20
BRANCH  12  11
ATOM      9  C   UNL     1       2.597   0.136  23.026  0.00  0.00    +0.265 C 
ATOM     10  O   UNL     1       2.200  -0.443  22.591  0.00  0.00    -0.268 OA
ATOM     11  N   UNL     1       2.167   0.688  23.464  0.00  0.00    -0.198 NA
BRANCH   9   6
ATOM      3  C   UNL     1       5.070   0.215  23.018  0.00  0.00    +0.139 A 
ATOM      4  C   UNL     1       4.636   0.845  22.710  0.00  0.00    +0.037 A 
ATOM      5  C   UNL     1       3.812   0.819  22.713  0.00  0.00    +0.008 A 
ATOM      6  C   UNL     1       3.421   0.163  23.024  0.00  0.00    +0.055 A 
ATOM      7  C   UNL     1       3.854  -0.468  23.332  0.00  0.00    +0.008 A 
ATOM      8  C   UNL     1       4.679  -0.442  23.329  0.00  0.00    +0.037 A 
BRANCH   3   2
ATOM      1  C   UNL     1       6.323  -0.190  23.574  0.00  0.00    +0.252 C 
ATOM      2  O   UNL     1       5.895   0.241  23.016  0.00  0.00    -0.471 OA
ENDBRANCH   3   2
ENDBRANCH   9   6
ENDBRANCH  12  11
TORSDOF 6
ENDMDL
MODEL 2
REMARK VINA RESULT:      -7.1      1.667      7.951
REMARK  Name = 
REMARK  6 active torsions:
REMARK  status: ('A' for Active; 'I' for Inactive)
REMARK    1  A    between atoms: O_2  and  C_3
REMARK    2  A    between atoms: C_6  and  C_9
REMARK    3  A    between atoms: N_11  and  C_12
REMARK    4  A    between atoms: C_16  and  N_20
REMARK    5  A    between atoms: C_23  and  C_27
REMARK    6  A    between atoms: C_30  and  N_33
REMARK                            x       y       z     vdW  Elec       q    Type
REMARK                         _______ _______ _______ _____ _____    ______ ____
ROOT
ATOM     12  C   UNL     1      -1.828   1.604  24.825  0.00  0.00    +0.155 C 
ATOM     13  C   UNL     1      -1.389   1.711  25.516  0.00  0.00    +0.166 C 
ATOM     14  O   UNL     1      -0.591   1.628  25.326  0.00  0.00    -0.350 OA
ATOM     15  C   UNL     1      -0.536   1.469  24.519  0.00  0.00    +0.166 C 
ATOM     16  C   UNL     1      -0.009   1.319  23.902  0.00  0.00    +0.154 C 
ATOM     17  C   UNL     1      -0.447   1.211  23.211  0.00  0.00    +0.166 C 
ATOM     18  O   UNL     1      -1.246   1.295  23.401  0.00  0.00    -0.350 OA
ATOM     19  C   UNL     1      -1.300   1.454  24.209  0.00  0.00    +0.166 C 
ENDROOT
BRANCH  16  20
ATOM     20  N   UNL     1       0.813   1.283  23.965  0.00  0.00    -0.200 NA
ATOM     21  C   UNL     1       1.244   0.783  23.469  0.00  0.00    +0.237 A 
ATOM     22  N   UNL     1       2.065   0.747  23.531  0.00  0.00    -0.212 NA
ATOM     23  C   UNL     1       2.495   0.247  23.035  0.00  0.00    +0.086 A 
ATOM     24  C   UNL     1       2.104  -0.216  22.476  0.00  0.00    +0.040 A 
ATOM     25  C   UNL     1       1.282  -0.180  22.413  0.00  0.00    +0.103 A 
ATOM     26  N   UNL     1       0.852   0.320  22.910  0.00  0.00    -0.211 NA
BRANCH  23  27
ATOM     27  C   UNL     1       3.317   0.211  23.098  0.00  0.00    +0.018 A 
ATOM     28  C   UNL     1       3.677  -0.456  23.427  0.00  0.00    +0.003 A 
ATOM     29  C   UNL     1       4.498  -0.492  23.489  0.00  0.00    +0.015 A 
ATOM     30  C   UNL     1       4.961   0.137  23.224  0.00  0.00    +0.048 A 
ATOM     31  C   UNL     1       4.601   0.803  22.896  0.00  0.00    +0.015 A 
ATOM     32  C   UNL     1       3.779   0.840  22.833  0.00  0.00    +0.003 A 
BRANCH  30  33
ATOM     33  N   UNL     1       5.782   0.101  23.287  0.00  0.00    -0.304 N 
ATOM     34  C   UNL     1       6.223  -0.281  22.704  0.00  0.00    +0.112 C 
ATOM     35  C   UNL     1       6.163   0.447  23.932  0.00  0.00    +0.112 C 
ENDBRANCH  30  33
ENDBRANCH  23  27
ENDBRANCH  16  20
BRANCH  12  11
ATOM      9  C   UNL     1      -3.068   2.235  25.152  0.00  0.00    +0.265 C 
ATOM     10  O   UNL     1      -2.663   2.795  25.604  0.00  0.00    -0.268 OA
ATOM     11  N   UNL     1      -2.650   1.640  24.762  0.00  0.00    -0.198 NA
BRANCH   9   6
ATOM      3  C   UNL     1      -5.533   2.344  24.963  0.00  0.00    +0.139 A 
ATOM      4  C   UNL     1      -5.095   3.037  25.056  0.00  0.00    +0.037 A 
ATOM      5  C   UNL     1      -4.274   3.001  25.118  0.00  0.00    +0.008 A 
ATOM      6  C   UNL     1      -3.889   2.271  25.089  0.00  0.00    +0.055 A 
ATOM      7  C   UNL     1      -4.327   1.578  24.996  0.00  0.00    +0.008 A 
ATOM      8  C   UNL     1      -5.149   1.614  24.934  0.00  0.00    +0.037 A 
BRANCH   3   2
ATOM      1  C   UNL     1      -6.802   1.688  24.940  0.00  0.00    +0.252 C 
ATOM      2  O   UNL     1      -6.355   2.380  24.901  0.00  0.00    -0.471 OA
ENDBRANCH   3   2
ENDBRANCH   9   6
ENDBRANCH  12  11
TORSDOF 6
ENDMDL
MODEL 3
REMARK VINA RESULT:      -4.8     16.190     17.577
REMARK  Name = 
REMARK  6 active torsions:
REMARK  status: ('A' for Active; 'I' for Inactive)
REMARK    1  A    between atoms: O_2  and  C_3
REMARK    2  A    between atoms: C_6  and  C_9
REMARK    3  A    between atoms: N_11  and  C_12
REMARK    4  A    between atoms: C_16  and  N_20
REMARK    5  A    between atoms: C_23  and  C_27
REMARK    6  A    between atoms: C_30  and  N_33
REMARK                            x       y       z     vdW  Elec       q    Type
REMARK                         _______ _______ _______ _____ _____    ______ ____
ROOT
ATOM     12  C   UNL     1      -7.860 -10.652  16.216  0.00  0.00    +0.155 C 
ATOM     13  C   UNL     1      -8.659 -10.493  16.086  0.00  0.00    +0.166 C 
ATOM     14  O   UNL     1      -8.772 -10.402  15.275  0.00  0.00    -0.350 OA
ATOM     15  C   UNL     1      -8.043 -10.503  14.902  0.00  0.00    +0.166 C 
ATOM     16  C   UNL     1      -7.661 -10.510  14.171  0.00  0.00    +0.154 C 
ATOM     17  C   UNL     1      -6.863 -10.668  14.301  0.00  0.00    +0.166 C 
ATOM     18  O   UNL     1      -6.750 -10.760  15.112  0.00  0.00    -0.350 OA
ATOM     19  C   UNL     1      -7.480 -10.658  15.485  0.00  0.00    +0.166 C 
ENDROOT
BRANCH  16  20
ATOM     20  N   UNL     1      -8.017 -10.381  13.438  0.00  0.00    -0.200 NA
ATOM     21  C   UNL     1      -7.617  -9.958  12.853  0.00  0.00    +0.237 A 
ATOM     22  N   UNL     1      -7.972  -9.828  12.121  0.00  0.00    -0.212 NA
ATOM     23  C   UNL     1      -7.572  -9.405  11.536  0.00  0.00    +0.086 A 
ATOM     24  C   UNL     1      -6.816  -9.111  11.685  0.00  0.00    +0.040 A 
ATOM     25  C   UNL     1      -6.460  -9.241  12.418  0.00  0.00    +0.103 A 
ATOM     26  N   UNL     1      -6.861  -9.664  13.002  0.00  0.00    -0.211 NA
BRANCH  23  27
ATOM     27  C   UNL     1      -7.927  -9.276  10.804  0.00  0.00    +0.018 A 
ATOM     28  C   UNL     1      -7.730  -8.606  10.362  0.00  0.00    +0.003 A 
ATOM     29  C   UNL     1      -8.086  -8.476   9.629  0.00  0.00    +0.015 A 
ATOM     30  C   UNL     1      -8.638  -9.015   9.337  0.00  0.00    +0.048 A 
ATOM     31  C   UNL     1      -8.834  -9.684   9.778  0.00  0.00    +0.015 A 
ATOM     32  C   UNL     1      -8.479  -9.814  10.511  0.00  0.00    +0.003 A 
BRANCH  30  33
ATOM     33  N   UNL     1      -8.993  -8.886   8.604  0.00  0.00    -0.304 N 
ATOM     34  C   UNL     1      -9.192  -9.526   8.124  0.00  0.00    +0.112 C 
ATOM     35  C   UNL     1      -9.151  -8.116   8.352  0.00  0.00    +0.112 C 
ENDBRANCH  30  33
ENDBRANCH  23  27
ENDBRANCH  16  20
BRANCH  12  11
ATOM      9  C   UNL     1      -7.621 -10.245  17.565  0.00  0.00    +0.265 C 
ATOM     10  O   UNL     1      -8.094  -9.579  17.447  0.00  0.00    -0.268 OA
ATOM     11  N   UNL     1      -7.504 -10.781  16.949  0.00  0.00    -0.198 NA
BRANCH   9   6
ATOM      3  C   UNL     1      -6.554 -10.632  19.764  0.00  0.00    +0.139 A 
ATOM      4  C   UNL     1      -7.371 -10.708  19.683  0.00  0.00    +0.037 A 
ATOM      5  C   UNL     1      -7.727 -10.579  18.951  0.00  0.00    +0.008 A 
ATOM      6  C   UNL     1      -7.266 -10.374  18.298  0.00  0.00    +0.055 A 
ATOM      7  C   UNL     1      -6.448 -10.298  18.379  0.00  0.00    +0.008 A 
ATOM      8  C   UNL     1      -6.092 -10.427  19.112  0.00  0.00    +0.037 A 
BRANCH   3   2
ATOM      1  C   UNL     1      -5.375 -10.781  20.559  0.00  0.00    +0.252 C 
ATOM      2  O   UNL     1      -6.198 -10.761  20.497  0.00  0.00    -0.471 OA
ENDBRANCH   3   2
ENDBRANCH   9   6
ENDBRANCH  12  11
TORSDOF 6
ENDMDL
