MODEL 1
REMARK VINA RESULT:     -10.3      0.000      0.000
REMARK  Name = 
REMARK  6 active torsions:
REMARK  status: ('A' for Active; 'I' for Inactive)
REMARK    1  A    between atoms: C_2  and  C_3
REMARK    2  A    between atoms: C_2  and  C_27
REMARK    3  A    between atoms: C_10  and  N_11
REMARK    4  A    between atoms: C_12  and  C_14
REMARK    5  A    between atoms: C_17  and  C_20
REMARK    6  A    between atoms: N_29  and  C_30
REMARK                            x       y       z     vdW  Elec       q    Type
REMARK                         _______ _______ _______ _____ _____    ______ ____
ROOT
ATOM      3  C   UNL     1       0.446  -0.104  23.369  0.00  0.00    +0.039 C 
ATOM      4  C   UNL     1       0.448  -0.776  23.850  0.00  0.00    +0.003 C 
ATOM      5  C   UNL     1      -0.117  -0.858  24.444  0.00  0.00    +0.000 C 
ATOM      6  C   UNL     1      -0.685  -0.271  24.558  0.00  0.00    +0.002 C 
ATOM      7  C   UNL     1      -0.683  -0.941  25.038  0.00  0.00    +0.000 C 
ATOM      8  C   UNL     1      -1.251  -0.354  25.152  0.00  0.00    +0.002 C 
ATOM      9  C   UNL     1      -1.819   0.233  25.266  0.00  0.00    +0.022 C 
ATOM     10  C   UNL     1      -1.821   0.904  24.784  0.00  0.00    +0.096 C 
ATOM     22  C   UNL     1      -1.255   0.987  24.190  0.00  0.00    +0.022 C 
ATOM     23  C   UNL     1      -1.257   1.657  23.709  0.00  0.00    +0.002 C 
ATOM     24  C   UNL     1      -0.687   0.400  24.076  0.00  0.00    +0.032 C 
ATOM     25  C   UNL     1      -0.121   0.482  23.482  0.00  0.00    +0.152 C 
ATOM     26  O   UNL     1      -0.123   1.153  23.001  0.00  0.00    -0.223 OA
ENDROOT
BRANCH  10  11
ATOM     11  N   UNL     1      -2.390   1.492  24.898  0.00  0.00    -0.203 NA
ATOM     12  C   UNL     1      -3.179   1.285  25.014  0.00  0.00    +0.265 C 
ATOM     13  O   UNL     1      -3.402   0.490  25.015  0.00  0.00    -0.268 OA
BRANCH  12  14
ATOM     14  C   UNL     1      -3.748   1.872  25.128  0.00  0.00    +0.055 A 
ATOM     15  C   UNL     1      -3.526   2.611  25.419  0.00  0.00    +0.005 A 
ATOM     16  C   UNL     1      -4.094   3.198  25.533  0.00  0.00    +0.010 A 
ATOM     17  C   UNL     1      -4.885   3.045  25.355  0.00  0.00    +0.068 A 
ATOM     18  C   UNL     1      -5.108   2.306  25.063  0.00  0.00    +0.010 A 
ATOM     19  C   UNL     1      -4.539   1.720  24.949  0.00  0.00    +0.005 A 
BRANCH  17  20
ATOM     20  C   UNL     1      -5.455   3.632  25.469  0.00  0.00    +0.100 C 
ATOM     21  N   UNL     1      -6.023   4.218  25.583  0.00  0.00    -0.191 NA
ENDBRANCH  17  20
ENDBRANCH  12  14
ENDBRANCH  10  11
BRANCH   3   2
ATOM      1  C   UNL     1       0.809  -0.168  21.988  0.00  0.00    +0.010 C 
ATOM      2  C   UNL     1       1.013  -0.022  22.774  0.00  0.00    +0.081 C 
BRANCH   2  27
ATOM     27  C   UNL     1       1.783   0.206  22.965  0.00  0.00    +0.241 C 
ATOM     28  O   UNL     1       1.910   0.809  23.514  0.00  0.00    -0.273 OA
ATOM     29  N   UNL     1       2.425  -0.168  22.608  0.00  0.00    -0.207 NA
BRANCH  29  30
ATOM     30  C   UNL     1       3.193   0.060  22.799  0.00  0.00    +0.095 C 
ATOM     31  C   UNL     1       3.481   0.793  22.551  0.00  0.00    +0.022 C 
ATOM     32  C   UNL     1       4.250   1.021  22.742  0.00  0.00    +0.002 C 
ATOM     33  C   UNL     1       4.733   0.515  23.181  0.00  0.00    +0.000 C 
ATOM     34  C   UNL     1       4.447  -0.217  23.429  0.00  0.00    +0.002 C 
ATOM     35  C   UNL     1       3.677  -0.446  23.238  0.00  0.00    +0.022 C 
ENDBRANCH  29  30
ENDBRANCH   2  27
ENDBRANCH   3   2
TORSDOF 6
ENDMDL
MODEL 2
REMARK VINA RESULT:      -9.8      1.281      6.484
REMARK  Name = 
REMARK  6 active torsions:
REMARK  status: ('A' for Active; 'I' for Inactive)
REMARK    1  A    between atoms: C_2  and  C_3
REMARK    2  A    between atoms: C_2  and  C_27
REMARK    3  A    between atoms: C_10  and  N_11
REMARK    4  A    between atoms: C_12  and  C_14
REMARK    5  A    between atoms: C_17  and  C_20
REMARK    6  A    between atoms: N_29  and  C_30
REMARK                            x       y       z     vdW  Elec       q    Type
REMARK                         _______ _______ _______ _____ _____    ______ ____
ROOT
ATOM      3  C   UNL     1      -3.566   0.071  24.746  0.00  0.00    +0.039 C 
ATOM      4  C   UNL     1      -3.529  -0.497  25.344  0.00  0.00    +0.003 C 
ATOM      5  C   UNL     1      -2.801  -0.810  25.570  0.00  0.00    +0.000 C 
ATOM      6  C   UNL     1      -2.109  -0.557  25.199  0.00  0.00    +0.002 C 
ATOM      7  C   UNL     1      -2.072  -1.123  25.797  0.00  0.00    +0.000 C 
ATOM      8  C   UNL     1      -1.380  -0.870  25.425  0.00  0.00    +0.002 C 
ATOM      9  C   UNL     1      -0.689  -0.617  25.054  0.00  0.00    +0.022 C 
ATOM     10  C   UNL     1      -0.726  -0.049  24.455  0.00  0.00    +0.096 C 
ATOM     22  C   UNL     1      -1.455   0.264  24.229  0.00  0.00    +0.022 C 
ATOM     23  C   UNL     1      -1.492   0.832  23.631  0.00  0.00    +0.002 C 
ATOM     24  C   UNL     1      -2.147   0.011  24.601  0.00  0.00    +0.032 C 
ATOM     25  C   UNL     1      -2.875   0.324  24.374  0.00  0.00    +0.152 C 
ATOM     26  O   UNL     1      -2.912   0.891  23.777  0.00  0.00    -0.223 OA
ENDROOT
BRANCH  10  11
ATOM     11  N   UNL     1      -0.034   0.205  24.084  0.00  0.00    -0.203 NA
ATOM     12  C   UNL     1       0.477  -0.346  23.745  0.00  0.00    +0.265 C 
ATOM     13  O   UNL     1       0.297  -1.151  23.776  0.00  0.00    -0.268 OA
BRANCH  12  14
ATOM     14  C   UNL     1       1.169  -0.092  23.373  0.00  0.00    +0.055 A 
ATOM     15  C   UNL     1       1.418  -0.452  22.675  0.00  0.00    +0.005 A 
ATOM     16  C   UNL     1       2.111  -0.198  22.303  0.00  0.00    +0.010 A 
ATOM     17  C   UNL     1       2.553   0.415  22.632  0.00  0.00    +0.068 A 
ATOM     18  C   UNL     1       2.304   0.775  23.332  0.00  0.00    +0.010 A 
ATOM     19  C   UNL     1       1.612   0.521  23.702  0.00  0.00    +0.005 A 
BRANCH  17  20
ATOM     20  C   UNL     1       3.245   0.669  22.262  0.00  0.00    +0.100 C 
ATOM     21  N   UNL     1       3.938   0.923  21.893  0.00  0.00    -0.191 NA
ENDBRANCH  17  20
ENDBRANCH  12  14
ENDBRANCH  10  11
BRANCH   3   2
ATOM      1  C   UNL     1      -4.704   0.058  23.881  0.00  0.00    +0.010 C 
ATOM      2  C   UNL     1      -4.295   0.384  24.520  0.00  0.00    +0.081 C 
BRANCH   2  27
ATOM     27  C   UNL     1      -4.617   1.023  24.931  0.00  0.00    +0.241 C 
ATOM     28  O   UNL     1      -4.833   0.936  25.724  0.00  0.00    -0.273 OA
ATOM     29  N   UNL     1      -4.723   1.747  24.552  0.00  0.00    -0.207 NA
BRANCH  29  30
ATOM     30  C   UNL     1      -5.044   2.385  24.964  0.00  0.00    +0.095 C 
ATOM     31  C   UNL     1      -5.815   2.343  25.256  0.00  0.00    +0.022 C 
ATOM     32  C   UNL     1      -6.136   2.981  25.668  0.00  0.00    +0.002 C 
ATOM     33  C   UNL     1      -5.686   3.663  25.788  0.00  0.00    +0.000 C 
ATOM     34  C   UNL     1      -4.916   3.706  25.497  0.00  0.00    +0.002 C 
ATOM     35  C   UNL     1      -4.594   3.067  25.085  0.00  0.00    +0.022 C 
ENDBRANCH  29  30
ENDBRANCH   2  27
ENDBRANCH   3   2
TORSDOF 6
ENDMDL
MODEL 3
REMARK VINA RESULT:      -9.3      1.206      6.657
REMARK  Name = 
REMARK  6 active torsions:
REMARK  status: ('A' for Active; 'I' for Inactive)
REMARK    1  A    between atoms: C_2  and  C_3
REMARK    2  A    between atoms: C_2  and  C_27
REMARK    3  A    between atoms: C_10  and  N_11
REMARK    4  A    between atoms: C_12  and  C_14
REMARK    5  A    between atoms: C_17  and  C_20
REMARK    6  A    between atoms: N_29  and  C_30
REMARK                            x       y       z     vdW  Elec       q    Type
REMARK                         _______ _______ _______ _____ _____    ______ ____
ROOT
ATOM      3  C   UNL     1      -2.565   1.279  23.885  0.00  0.00    +0.039 C 
ATOM      4  C   UNL     1      -2.859   0.531  24.074  0.00  0.00    +0.003 C 
ATOM      5  C   UNL     1      -2.341  -0.103  24.172  0.00  0.00    +0.000 C 
ATOM      6  C   UNL     1      -1.530   0.010  24.083  0.00  0.00    +0.002 C 
ATOM      7  C   UNL     1      -1.824  -0.737  24.270  0.00  0.00    +0.000 C 
ATOM      8  C   UNL     1      -1.011  -0.624  24.181  0.00  0.00    +0.002 C 
ATOM      9  C   UNL     1      -0.199  -0.511  24.092  0.00  0.00    +0.022 C 
ATOM     10  C   UNL     1       0.095   0.237  23.904  0.00  0.00    +0.096 C 
ATOM     22  C   UNL     1      -0.422   0.871  23.805  0.00  0.00    +0.022 C 
ATOM     23  C   UNL     1      -0.128   1.618  23.617  0.00  0.00    +0.002 C 
ATOM     24  C   UNL     1      -1.235   0.758  23.894  0.00  0.00    +0.032 C 
ATOM     25  C   UNL     1      -1.753   1.392  23.796  0.00  0.00    +0.152 C 
ATOM     26  O   UNL     1      -1.459   2.140  23.608  0.00  0.00    -0.223 OA
ENDROOT
BRANCH  10  11
ATOM     11  N   UNL     1       0.908   0.349  23.814  0.00  0.00    -0.203 NA
ATOM     12  C   UNL     1       1.320  -0.060  23.229  0.00  0.00    +0.265 C 
ATOM     13  O   UNL     1       0.918  -0.583  22.731  0.00  0.00    -0.268 OA
BRANCH  12  14
ATOM     14  C   UNL     1       2.132   0.052  23.140  0.00  0.00    +0.055 A 
ATOM     15  C   UNL     1       2.424   0.785  22.899  0.00  0.00    +0.005 A 
ATOM     16  C   UNL     1       3.236   0.897  22.810  0.00  0.00    +0.010 A 
ATOM     17  C   UNL     1       3.757   0.276  22.962  0.00  0.00    +0.068 A 
ATOM     18  C   UNL     1       3.466  -0.458  23.203  0.00  0.00    +0.010 A 
ATOM     19  C   UNL     1       2.653  -0.569  23.291  0.00  0.00    +0.005 A 
BRANCH  17  20
ATOM     20  C   UNL     1       4.570   0.387  22.873  0.00  0.00    +0.100 C 
ATOM     21  N   UNL     1       5.383   0.496  22.784  0.00  0.00    -0.191 NA
ENDBRANCH  17  20
ENDBRANCH  12  14
ENDBRANCH  10  11
BRANCH   3   2
ATOM      1  C   UNL     1      -3.077   2.346  23.084  0.00  0.00    +0.010 C 
ATOM      2  C   UNL     1      -3.083   1.914  23.787  0.00  0.00    +0.081 C 
BRANCH   2  27
ATOM     27  C   UNL     1      -3.609   2.116  24.390  0.00  0.00    +0.241 C 
ATOM     28  O   UNL     1      -3.323   2.284  25.147  0.00  0.00    -0.273 OA
ATOM     29  N   UNL     1      -4.418   2.151  24.238  0.00  0.00    -0.207 NA
BRANCH  29  30
ATOM     30  C   UNL     1      -4.943   2.353  24.841  0.00  0.00    +0.095 C 
ATOM     31  C   UNL     1      -5.436   1.779  25.169  0.00  0.00    +0.022 C 
ATOM     32  C   UNL     1      -5.961   1.981  25.772  0.00  0.00    +0.002 C 
ATOM     33  C   UNL     1      -5.993   2.759  26.048  0.00  0.00    +0.000 C 
ATOM     34  C   UNL     1      -5.500   3.333  25.721  0.00  0.00    +0.002 C 
ATOM     35  C   UNL     1      -4.974   3.131  25.117  0.00  0.00    +0.022 C 
ENDBRANCH  29  30
ENDBRANCH   2  27
ENDBRANCH   3   2
TORSDOF 6
ENDMDL
MODEL 4
REMARK VINA RESULT:      -9.3      4.027      5.714
REMARK  Name = 
REMARK  6 active torsions:
REMARK  status: ('A' for Active; 'I' for Inactive)
REMARK    1  A    between atoms: C_2  and  C_3
REMARK    2  A    between atoms: C_2  and  C_27
REMARK    3  A    between atoms: C_10  and  N_11
REMARK    4  A    between atoms: C_12  and  C_14
REMARK    5  A    between atoms: C_17  and  C_20
REMARK    6  A    between atoms: N_29  and  C_30
REMARK                            x       y       z     vdW  Elec       q    Type
REMARK                         _______ _______ _______ _____ _____    ______ ____
ROOT
ATOM      3  C   UNL     1      -4.286   3.466  24.805  0.00  0.00    +0.039 C 
ATOM      4  C   UNL     1      -4.870   3.549  25.383  0.00  0.00    +0.003 C 
ATOM      5  C   UNL     1      -5.265   2.884  25.668  0.00  0.00    +0.000 C 
ATOM      6  C   UNL     1      -5.077   2.136  25.376  0.00  0.00    +0.002 C 
ATOM      7  C   UNL     1      -5.660   2.219  25.953  0.00  0.00    +0.000 C 
ATOM      8  C   UNL     1      -5.472   1.470  25.661  0.00  0.00    +0.002 C 
ATOM      9  C   UNL     1      -5.284   0.722  25.370  0.00  0.00    +0.022 C 
ATOM     10  C   UNL     1      -4.701   0.639  24.791  0.00  0.00    +0.096 C 
ATOM     22  C   UNL     1      -4.306   1.304  24.506  0.00  0.00    +0.022 C 
ATOM     23  C   UNL     1      -3.723   1.222  23.929  0.00  0.00    +0.002 C 
ATOM     24  C   UNL     1      -4.493   2.053  24.798  0.00  0.00    +0.032 C 
ATOM     25  C   UNL     1      -4.098   2.718  24.513  0.00  0.00    +0.152 C 
ATOM     26  O   UNL     1      -3.515   2.635  23.935  0.00  0.00    -0.223 OA
ENDROOT
BRANCH  10  11
ATOM     11  N   UNL     1      -4.513  -0.110  24.499  0.00  0.00    -0.203 NA
ATOM     12  C   UNL     1      -4.196  -0.681  25.002  0.00  0.00    +0.265 C 
ATOM     13  O   UNL     1      -4.066  -0.504  25.798  0.00  0.00    -0.268 OA
BRANCH  12  14
ATOM     14  C   UNL     1      -4.009  -1.430  24.710  0.00  0.00    +0.055 A 
ATOM     15  C   UNL     1      -4.345  -1.694  24.005  0.00  0.00    +0.005 A 
ATOM     16  C   UNL     1      -4.157  -2.443  23.713  0.00  0.00    +0.010 A 
ATOM     17  C   UNL     1      -3.633  -2.927  24.127  0.00  0.00    +0.068 A 
ATOM     18  C   UNL     1      -3.296  -2.663  24.833  0.00  0.00    +0.010 A 
ATOM     19  C   UNL     1      -3.484  -1.914  25.124  0.00  0.00    +0.005 A 
BRANCH  17  20
ATOM     20  C   UNL     1      -3.445  -3.676  23.837  0.00  0.00    +0.100 C 
ATOM     21  N   UNL     1      -3.256  -4.425  23.547  0.00  0.00    -0.191 NA
ENDBRANCH  17  20
ENDBRANCH  12  14
ENDBRANCH  10  11
BRANCH   3   2
ATOM      1  C   UNL     1      -4.237   4.596  23.932  0.00  0.00    +0.010 C 
ATOM      2  C   UNL     1      -3.891   4.132  24.520  0.00  0.00    +0.081 C 
BRANCH   2  27
ATOM     27  C   UNL     1      -3.150   4.335  24.822  0.00  0.00    +0.241 C 
ATOM     28  O   UNL     1      -3.066   4.507  25.625  0.00  0.00    -0.273 OA
ATOM     29  N   UNL     1      -2.495   4.366  24.323  0.00  0.00    -0.207 NA
BRANCH  29  30
ATOM     30  C   UNL     1      -1.755   4.568  24.625  0.00  0.00    +0.095 C 
ATOM     31  C   UNL     1      -1.226   3.978  24.853  0.00  0.00    +0.022 C 
ATOM     32  C   UNL     1      -0.487   4.180  25.156  0.00  0.00    +0.002 C 
ATOM     33  C   UNL     1      -0.275   4.975  25.230  0.00  0.00    +0.000 C 
ATOM     34  C   UNL     1      -0.803   5.565  25.002  0.00  0.00    +0.002 C 
ATOM     35  C   UNL     1      -1.544   5.363  24.700  0.00  0.00    +0.022 C 
ENDBRANCH  29  30
ENDBRANCH   2  27
ENDBRANCH   3   2
TORSDOF 6
ENDMDL
MODEL 5
REMARK VINA RESULT:      -8.9      1.561      2.480
REMARK  Name = 
REMARK  6 active torsions:
REMARK  status: ('A' for Active; 'I' for Inactive)
REMARK    1  A    between atoms: C_2  and  C_3
REMARK    2  A    between atoms: C_2  and  C_27
REMARK    3  A    between atoms: C_10  and  N_11
REMARK    4  A    between atoms: C_12  and  C_14
REMARK    5  A    between atoms: C_17  and  C_20
REMARK    6  A    between atoms: N_29  and  C_30
REMARK                            x       y       z     vdW  Elec       q    Type
REMARK                         _______ _______ _______ _____ _____    ______ ____
ROOT
ATOM      3  C   UNL     1      -1.519  -1.270  24.748  0.00  0.00    +0.039 C 
ATOM      4  C   UNL     1      -1.984  -1.883  24.447  0.00  0.00    +0.003 C 
ATOM      5  C   UNL     1      -2.800  -1.786  24.379  0.00  0.00    +0.000 C 
ATOM      6  C   UNL     1      -3.152  -1.078  24.610  0.00  0.00    +0.002 C 
ATOM      7  C   UNL     1      -3.615  -1.689  24.310  0.00  0.00    +0.000 C 
ATOM      8  C   UNL     1      -3.968  -0.980  24.541  0.00  0.00    +0.002 C 
ATOM      9  C   UNL     1      -4.320  -0.272  24.773  0.00  0.00    +0.022 C 
ATOM     10  C   UNL     1      -3.856   0.341  25.073  0.00  0.00    +0.096 C 
ATOM     22  C   UNL     1      -3.040   0.244  25.142  0.00  0.00    +0.022 C 
ATOM     23  C   UNL     1      -2.576   0.857  25.442  0.00  0.00    +0.002 C 
ATOM     24  C   UNL     1      -2.687  -0.465  24.911  0.00  0.00    +0.032 C 
ATOM     25  C   UNL     1      -1.871  -0.562  24.979  0.00  0.00    +0.152 C 
ATOM     26  O   UNL     1      -1.407   0.051  25.280  0.00  0.00    -0.223 OA
ENDROOT
BRANCH  10  11
ATOM     11  N   UNL     1      -4.209   1.051  25.305  0.00  0.00    -0.203 NA
ATOM     12  C   UNL     1      -4.574   1.532  24.744  0.00  0.00    +0.265 C 
ATOM     13  O   UNL     1      -4.587   1.305  23.950  0.00  0.00    -0.268 OA
BRANCH  12  14
ATOM     14  C   UNL     1      -4.927   2.241  24.976  0.00  0.00    +0.055 A 
ATOM     15  C   UNL     1      -5.618   2.231  25.425  0.00  0.00    +0.005 A 
ATOM     16  C   UNL     1      -5.971   2.940  25.656  0.00  0.00    +0.010 A 
ATOM     17  C   UNL     1      -5.632   3.660  25.438  0.00  0.00    +0.068 A 
ATOM     18  C   UNL     1      -4.939   3.670  24.988  0.00  0.00    +0.010 A 
ATOM     19  C   UNL     1      -4.587   2.961  24.757  0.00  0.00    +0.005 A 
BRANCH  17  20
ATOM     20  C   UNL     1      -5.983   4.369  25.668  0.00  0.00    +0.100 C 
ATOM     21  N   UNL     1      -6.334   5.080  25.899  0.00  0.00    -0.191 NA
ENDBRANCH  17  20
ENDBRANCH  12  14
ENDBRANCH  10  11
BRANCH   3   2
ATOM      1  C   UNL     1      -0.375  -1.607  25.535  0.00  0.00    +0.010 C 
ATOM      2  C   UNL     1      -0.703  -1.368  24.817  0.00  0.00    +0.081 C 
BRANCH   2  27
ATOM     27  C   UNL     1      -0.213  -1.227  24.167  0.00  0.00    +0.241 C 
ATOM     28  O   UNL     1      -0.184  -1.771  23.546  0.00  0.00    -0.273 OA
ATOM     29  N   UNL     1       0.247  -0.543  24.138  0.00  0.00    -0.207 NA
BRANCH  29  30
ATOM     30  C   UNL     1       0.736  -0.403  23.490  0.00  0.00    +0.095 C 
ATOM     31  C   UNL     1       0.406  -0.239  22.751  0.00  0.00    +0.022 C 
ATOM     32  C   UNL     1       0.895  -0.098  22.102  0.00  0.00    +0.002 C 
ATOM     33  C   UNL     1       1.716  -0.121  22.191  0.00  0.00    +0.000 C 
ATOM     34  C   UNL     1       2.046  -0.285  22.929  0.00  0.00    +0.002 C 
ATOM     35  C   UNL     1       1.557  -0.426  23.579  0.00  0.00    +0.022 C 
ENDBRANCH  29  30
ENDBRANCH   2  27
ENDBRANCH   3   2
TORSDOF 6
ENDMDL
MODEL 6
REMARK VINA RESULT:      -8.7      1.714      6.836
REMARK  Name = 
REMARK  6 active torsions:
REMARK  status: ('A' for Active; 'I' for Inactive)
REMARK    1  A    between atoms: C_2  and  C_3
REMARK    2  A    between atoms: C_2  and  C_27
REMARK    3  A    between atoms: C_10  and  N_11
REMARK    4  A    between atoms: C_12  and  C_14
REMARK    5  A    between atoms: C_17  and  C_20
REMARK    6  A    between atoms: N_29  and  C_30
REMARK                            x       y       z     vdW  Elec       q    Type
REMARK                         _______ _______ _______ _____ _____    ______ ____
ROOT
ATOM      3  C   UNL     1      -3.195   3.665  24.926  0.00  0.00    +0.039 C 
ATOM      4  C   UNL     1      -2.956   3.926  25.672  0.00  0.00    +0.003 C 
ATOM      5  C   UNL     1      -2.187   3.781  25.933  0.00  0.00    +0.000 C 
ATOM      6  C   UNL     1      -1.658   3.375  25.448  0.00  0.00    +0.002 C 
ATOM      7  C   UNL     1      -1.419   3.636  26.193  0.00  0.00    +0.000 C 
ATOM      8  C   UNL     1      -0.888   3.230  25.709  0.00  0.00    +0.002 C 
ATOM      9  C   UNL     1      -0.359   2.824  25.224  0.00  0.00    +0.022 C 
ATOM     10  C   UNL     1      -0.598   2.563  24.478  0.00  0.00    +0.096 C 
ATOM     22  C   UNL     1      -1.367   2.708  24.218  0.00  0.00    +0.022 C 
ATOM     23  C   UNL     1      -1.606   2.448  23.473  0.00  0.00    +0.002 C 
ATOM     24  C   UNL     1      -1.897   3.114  24.702  0.00  0.00    +0.032 C 
ATOM     25  C   UNL     1      -2.666   3.260  24.442  0.00  0.00    +0.152 C 
ATOM     26  O   UNL     1      -2.905   2.999  23.697  0.00  0.00    -0.223 OA
ENDROOT
BRANCH  10  11
ATOM     11  N   UNL     1      -0.067   2.157  23.994  0.00  0.00    -0.203 NA
ATOM     12  C   UNL     1       0.280   1.457  24.257  0.00  0.00    +0.265 C 
ATOM     13  O   UNL     1       0.096   1.162  25.006  0.00  0.00    -0.268 OA
BRANCH  12  14
ATOM     14  C   UNL     1       0.810   1.051  23.773  0.00  0.00    +0.055 A 
ATOM     15  C   UNL     1       0.579   0.352  23.402  0.00  0.00    +0.005 A 
ATOM     16  C   UNL     1       1.110  -0.054  22.918  0.00  0.00    +0.010 A 
ATOM     17  C   UNL     1       1.872   0.240  22.805  0.00  0.00    +0.068 A 
ATOM     18  C   UNL     1       2.104   0.940  23.176  0.00  0.00    +0.010 A 
ATOM     19  C   UNL     1       1.573   1.345  23.660  0.00  0.00    +0.005 A 
BRANCH  17  20
ATOM     20  C   UNL     1       2.403  -0.165  22.321  0.00  0.00    +0.100 C 
ATOM     21  N   UNL     1       2.934  -0.571  21.837  0.00  0.00    -0.191 NA
ENDBRANCH  17  20
ENDBRANCH  12  14
ENDBRANCH  10  11
BRANCH   3   2
ATOM      1  C   UNL     1      -4.095   4.314  24.025  0.00  0.00    +0.010 C 
ATOM      2  C   UNL     1      -3.965   3.811  24.666  0.00  0.00    +0.081 C 
BRANCH   2  27
ATOM     27  C   UNL     1      -4.605   3.454  25.046  0.00  0.00    +0.241 C 
ATOM     28  O   UNL     1      -5.047   3.881  25.597  0.00  0.00    -0.273 OA
ATOM     29  N   UNL     1      -4.802   2.672  24.876  0.00  0.00    -0.207 NA
BRANCH  29  30
ATOM     30  C   UNL     1      -5.441   2.316  25.256  0.00  0.00    +0.095 C 
ATOM     31  C   UNL     1      -5.496   2.335  26.079  0.00  0.00    +0.022 C 
ATOM     32  C   UNL     1      -6.135   1.979  26.458  0.00  0.00    +0.002 C 
ATOM     33  C   UNL     1      -6.722   1.603  26.015  0.00  0.00    +0.000 C 
ATOM     34  C   UNL     1      -6.668   1.584  25.192  0.00  0.00    +0.002 C 
ATOM     35  C   UNL     1      -6.028   1.941  24.812  0.00  0.00    +0.022 C 
ENDBRANCH  29  30
ENDBRANCH   2  27
ENDBRANCH   3   2
TORSDOF 6
ENDMDL
MODEL 7
REMARK VINA RESULT:      -8.5      2.516      4.635
REMARK  Name = 
REMARK  6 active torsions:
REMARK  status: ('A' for Active; 'I' for Inactive)
REMARK    1  A    between atoms: C_2  and  C_3
REMARK    2  A    between atoms: C_2  and  C_27
REMARK    3  A    between atoms: C_10  and  N_11
REMARK    4  A    between atoms: C_12  and  C_14
REMARK    5  A    between atoms: C_17  and  C_20
REMARK    6  A    between atoms: N_29  and  C_30
REMARK                            x       y       z     vdW  Elec       q    Type
REMARK                         _______ _______ _______ _____ _____    ______ ____
ROOT
ATOM      3  C   UNL     1      -0.734  -1.137  24.712  0.00  0.00    +0.039 C 
ATOM      4  C   UNL     1      -0.160  -1.249  24.129  0.00  0.00    +0.003 C 
ATOM      5  C   UNL     1       0.220  -0.599  23.793  0.00  0.00    +0.000 C 
ATOM      6  C   UNL     1       0.026   0.164  24.040  0.00  0.00    +0.002 C 
ATOM      7  C   UNL     1       0.599   0.052  23.458  0.00  0.00    +0.000 C 
ATOM      8  C   UNL     1       0.406   0.816  23.704  0.00  0.00    +0.002 C 
ATOM      9  C   UNL     1       0.212   1.578  23.951  0.00  0.00    +0.022 C 
ATOM     10  C   UNL     1      -0.362   1.690  24.534  0.00  0.00    +0.096 C 
ATOM     22  C   UNL     1      -0.741   1.040  24.870  0.00  0.00    +0.022 C 
ATOM     23  C   UNL     1      -1.314   1.152  25.452  0.00  0.00    +0.002 C 
ATOM     24  C   UNL     1      -0.548   0.276  24.623  0.00  0.00    +0.032 C 
ATOM     25  C   UNL     1      -0.927  -0.374  24.959  0.00  0.00    +0.152 C 
ATOM     26  O   UNL     1      -1.500  -0.262  25.541  0.00  0.00    -0.223 OA
ENDROOT
BRANCH  10  11
ATOM     11  N   UNL     1      -0.555   2.454  24.781  0.00  0.00    -0.203 NA
ATOM     12  C   UNL     1      -0.915   2.978  24.256  0.00  0.00    +0.265 C 
ATOM     13  O   UNL     1      -1.082   2.740  23.484  0.00  0.00    -0.268 OA
BRANCH  12  14
ATOM     14  C   UNL     1      -1.108   3.742  24.503  0.00  0.00    +0.055 A 
ATOM     15  C   UNL     1      -0.541   4.339  24.479  0.00  0.00    +0.005 A 
ATOM     16  C   UNL     1      -0.734   5.103  24.725  0.00  0.00    +0.010 A 
ATOM     17  C   UNL     1      -1.495   5.268  24.996  0.00  0.00    +0.068 A 
ATOM     18  C   UNL     1      -2.064   4.670  25.020  0.00  0.00    +0.010 A 
ATOM     19  C   UNL     1      -1.870   3.907  24.773  0.00  0.00    +0.005 A 
BRANCH  17  20
ATOM     20  C   UNL     1      -1.690   6.031  25.242  0.00  0.00    +0.100 C 
ATOM     21  N   UNL     1      -1.883   6.794  25.488  0.00  0.00    -0.191 NA
ENDBRANCH  17  20
ENDBRANCH  12  14
ENDBRANCH  10  11
BRANCH   3   2
ATOM      1  C   UNL     1      -0.840  -2.103  25.760  0.00  0.00    +0.010 C 
ATOM      2  C   UNL     1      -1.113  -1.788  25.048  0.00  0.00    +0.081 C 
BRANCH   2  27
ATOM     27  C   UNL     1      -1.765  -2.126  24.672  0.00  0.00    +0.241 C 
ATOM     28  O   UNL     1      -1.656  -2.615  24.015  0.00  0.00    -0.273 OA
ATOM     29  N   UNL     1      -2.526  -1.976  24.951  0.00  0.00    -0.207 NA
BRANCH  29  30
ATOM     30  C   UNL     1      -3.178  -2.314  24.575  0.00  0.00    +0.095 C 
ATOM     31  C   UNL     1      -3.326  -3.122  24.652  0.00  0.00    +0.022 C 
ATOM     32  C   UNL     1      -3.978  -3.459  24.276  0.00  0.00    +0.002 C 
ATOM     33  C   UNL     1      -4.482  -2.989  23.822  0.00  0.00    +0.000 C 
ATOM     34  C   UNL     1      -4.334  -2.181  23.745  0.00  0.00    +0.002 C 
ATOM     35  C   UNL     1      -3.682  -1.843  24.121  0.00  0.00    +0.022 C 
ENDBRANCH  29  30
ENDBRANCH   2  27
ENDBRANCH   3   2
TORSDOF 6
ENDMDL
