REMARK  Name = 
REMARK  6 active torsions:
REMARK  status: ('A' for Active; 'I' for Inactive)
REMARK    1  A    between atoms: C_6  and  S_8
REMARK    2  A    between atoms: S_8  and  N_11
REMARK    3  A    between atoms: N_11  and  C_12
REMARK    4  A    between atoms: C_22  and  C_24
REMARK    5  A    between atoms: C_24  and  O_25
REMARK    6  A    between atoms: O_25  and  C_26
REMARK                            x       y       z     vdW  Elec       q    Type
REMARK                         _______ _______ _______ _____ _____    ______ ____
ROOT
ATOM     12  C   UNL     1      -1.296  -1.150   0.000  0.00  0.00    +0.147 A 
ATOM     13  C   UNL     1      -1.167  -0.335   0.000  0.00  0.00    +0.024 A 
ATOM     14  C   UNL     1      -0.397  -0.039   0.000  0.00  0.00    +0.014 A 
ATOM     15  C   UNL     1       0.244  -0.558   0.000  0.00  0.00    +0.041 A 
ATOM     16  C   UNL     1       1.163  -0.557   0.000  0.00  0.00    +0.058 C 
ATOM     17  C   UNL     1       1.713  -0.121   0.000  0.00  0.00    +0.011 C 
ATOM     18  C   UNL     1       1.582  -0.925   0.000  0.00  0.00    +0.043 C 
ATOM     19  C   UNL     1       1.629  -1.912   0.000  0.00  0.00    +0.095 C 
ATOM     20  N   UNL     1       0.813  -2.091   0.000  0.00  0.00    -0.276 N 
ATOM     21  C   UNL     1       1.225  -1.510   0.000  0.00  0.00    +0.099 C 
ATOM     22  C   UNL     1       0.125  -2.547   0.000  0.00  0.00    +0.270 C 
ATOM     23  O   UNL     1       0.176  -3.370   0.000  0.00  0.00    -0.271 OA
ATOM     32  C   UNL     1       0.622  -0.936   0.000  0.00  0.00    +0.110 C 
ATOM     33  N   UNL     1       0.115  -1.373   0.000  0.00  0.00    -0.298 N 
ATOM     34  C   UNL     1      -0.655  -1.669   0.000  0.00  0.00    +0.277 A 
ATOM     35  O   UNL     1      -1.238  -2.252   0.000  0.00  0.00    -0.266 OA
ENDROOT
BRANCH  12  11
ATOM     11  N   UNL     1      -2.066  -1.445   0.000  0.00  0.00    -0.092 NA
BRANCH  11   8
ATOM      8  S   UNL     1      -2.707  -0.926   0.000  0.00  0.00    +0.093 S 
ATOM      9  O   UNL     1      -3.226  -1.567   0.000  0.00  0.00    -0.148 OA
ATOM     10  O   UNL     1      -2.188  -0.285   0.000  0.00  0.00    -0.148 OA
BRANCH   8   6
ATOM      1  F   UNL     1      -5.530  -0.480   0.000  0.00  0.00    -0.204 F 
ATOM      2  C   UNL     1      -4.760  -0.184   0.000  0.00  0.00    +0.141 A 
ATOM      3  C   UNL     1      -4.631   0.631   0.000  0.00  0.00    +0.030 A 
ATOM      4  C   UNL     1      -3.861   0.927   0.000  0.00  0.00    +0.004 A 
ATOM      5  C   UNL     1      -3.220   0.408   0.000  0.00  0.00    +0.020 A 
ATOM      6  C   UNL     1      -3.349  -0.407   0.000  0.00  0.00    +0.129 A 
ATOM      7  C   UNL     1      -4.119  -0.703   0.000  0.00  0.00    +0.050 A 
ENDBRANCH   8   6
ENDBRANCH  11   8
ENDBRANCH  12  11
BRANCH  22  24
ATOM     24  C   UNL     1      -0.614  -2.179   0.000  0.00  0.00    +0.290 C 
BRANCH  24  25
ATOM     25  O   UNL     1      -1.301  -2.635   0.000  0.00  0.00    -0.466 OA
BRANCH  25  26
ATOM     26  C   UNL     1      -1.251  -3.458   0.000  0.00  0.00    +0.139 A 
ATOM     27  C   UNL     1      -0.512  -3.826   0.000  0.00  0.00    +0.037 A 
ATOM     28  C   UNL     1      -0.461  -4.650   0.000  0.00  0.00    +0.003 A 
ATOM     29  C   UNL     1      -1.149  -5.105   0.000  0.00  0.00    +0.000 A 
ATOM     30  C   UNL     1      -1.888  -4.737   0.000  0.00  0.00    +0.003 A 
ATOM     31  C   UNL     1      -1.938  -3.914   0.000  0.00  0.00    +0.037 A 
ENDBRANCH  25  26
ENDBRANCH  24  25
ENDBRANCH  22  24
TORSDOF 6
