MODEL 1
REMARK VINA RESULT:     -10.8      0.000      0.000
REMARK  Name = 
REMARK  4 active torsions:
REMARK  status: ('A' for Active; 'I' for Inactive)
REMARK    1  A    between atoms: O_2  and  C_3
REMARK    2  A    between atoms: C_6  and  O_7
REMARK    3  A    between atoms: O_7  and  C_8
REMARK    4  A    between atoms: C_15  and  C_17
REMARK                            x       y       z     vdW  Elec       q    Type
REMARK                         _______ _______ _______ _____ _____    ______ ____
ROOT
ATOM      8  C   UNL     1      -2.938   0.914  24.694  0.00  0.00    +0.215 C 
ATOM      9  C   UNL     1      -2.281   0.681  24.254  0.00  0.00    +0.187 C 
ATOM     10  O   UNL     1      -1.918   1.072  23.626  0.00  0.00    -0.348 OA
ATOM     11  C   UNL     1      -2.122   1.794  23.282  0.00  0.00    +0.164 C 
ATOM     12  C   UNL     1      -2.741   2.302  23.482  0.00  0.00    +0.126 C 
ATOM     13  N   UNL     1      -3.307   2.214  24.075  0.00  0.00    -0.268 N 
ATOM     14  C   UNL     1      -3.395   1.597  24.614  0.00  0.00    +0.140 C 
ATOM     15  C   UNL     1      -3.858   2.825  24.137  0.00  0.00    +0.267 C 
ATOM     16  O   UNL     1      -3.819   3.469  23.623  0.00  0.00    -0.268 OA
ENDROOT
BRANCH  15  17
ATOM     17  C   UNL     1      -4.449   2.791  24.712  0.00  0.00    +0.132 A 
ATOM     18  C   UNL     1      -5.129   2.326  24.682  0.00  0.00    +0.040 A 
ATOM     19  C   UNL     1      -5.563   2.463  25.371  0.00  0.00    +0.081 A 
ATOM     20  C   UNL     1      -6.283   2.112  25.568  0.00  0.00    +0.054 C 
ATOM     21  N   UNL     1      -5.151   3.014  25.826  0.00  0.00    -0.173 NA
ATOM     22  N   UNL     1      -4.462   3.217  25.419  0.00  0.00    -0.245 N 
ATOM     23  C   UNL     1      -3.888   3.751  25.674  0.00  0.00    +0.154 C 
ENDBRANCH  15  17
BRANCH   8   7
ATOM      7  O   UNL     1      -3.170   0.396  25.293  0.00  0.00    -0.475 OA
BRANCH   7   6
ATOM      3  C   UNL     1      -3.462  -2.012  24.801  0.00  0.00    +0.139 A 
ATOM      4  C   UNL     1      -4.031  -1.469  24.553  0.00  0.00    +0.040 A 
ATOM      5  C   UNL     1      -3.933  -0.665  24.717  0.00  0.00    +0.040 A 
ATOM      6  C   UNL     1      -3.268  -0.406  25.129  0.00  0.00    +0.139 A 
ATOM     24  C   UNL     1      -2.699  -0.950  25.378  0.00  0.00    +0.040 A 
ATOM     25  C   UNL     1      -2.797  -1.753  25.214  0.00  0.00    +0.040 A 
BRANCH   3   2
ATOM      1  C   UNL     1      -3.911  -3.050  23.929  0.00  0.00    +0.252 C 
ATOM      2  O   UNL     1      -3.560  -2.814  24.637  0.00  0.00    -0.471 OA
ENDBRANCH   3   2
ENDBRANCH   7   6
ENDBRANCH   8   7
TORSDOF 4
ENDMDL
MODEL 2
REMARK VINA RESULT:     -10.6      1.043      1.349
REMARK  Name = 
REMARK  4 active torsions:
REMARK  status: ('A' for Active; 'I' for Inactive)
REMARK    1  A    between atoms: O_2  and  C_3
REMARK    2  A    between atoms: C_6  and  O_7
REMARK    3  A    between atoms: O_7  and  C_8
REMARK    4  A    between atoms: C_15  and  C_17
REMARK                            x       y       z     vdW  Elec       q    Type
REMARK                         _______ _______ _______ _____ _____    ______ ____
ROOT
ATOM      8  C   UNL     1      -2.691   0.625  25.191  0.00  0.00    +0.215 C 
ATOM      9  C   UNL     1      -1.998   0.181  25.242  0.00  0.00    +0.187 C 
ATOM     10  O   UNL     1      -1.224   0.414  25.081  0.00  0.00    -0.348 OA
ATOM     11  C   UNL     1      -0.951   1.150  24.828  0.00  0.00    +0.164 C 
ATOM     12  C   UNL     1      -1.385   1.835  24.674  0.00  0.00    +0.126 C 
ATOM     13  N   UNL     1      -2.199   1.952  24.735  0.00  0.00    -0.268 N 
ATOM     14  C   UNL     1      -2.780   1.414  24.965  0.00  0.00    +0.140 C 
ATOM     15  C   UNL     1      -2.467   2.708  24.540  0.00  0.00    +0.267 C 
ATOM     16  O   UNL     1      -1.930   3.287  24.303  0.00  0.00    -0.268 OA
ENDROOT
BRANCH  15  17
ATOM     17  C   UNL     1      -3.272   2.884  24.583  0.00  0.00    +0.132 A 
ATOM     18  C   UNL     1      -3.707   3.001  25.274  0.00  0.00    +0.040 A 
ATOM     19  C   UNL     1      -4.488   3.163  25.060  0.00  0.00    +0.081 A 
ATOM     20  C   UNL     1      -5.111   3.315  25.578  0.00  0.00    +0.054 C 
ATOM     21  N   UNL     1      -4.535   3.145  24.236  0.00  0.00    -0.173 NA
ATOM     22  N   UNL     1      -3.784   2.972  23.941  0.00  0.00    -0.245 N 
ATOM     23  C   UNL     1      -3.580   2.901  23.146  0.00  0.00    +0.154 C 
ENDBRANCH  15  17
BRANCH   8   7
ATOM      7  O   UNL     1      -3.387   0.230  25.392  0.00  0.00    -0.475 OA
BRANCH   7   6
ATOM      3  C   UNL     1      -3.881  -1.983  24.398  0.00  0.00    +0.139 A 
ATOM      4  C   UNL     1      -4.065  -1.294  23.983  0.00  0.00    +0.040 A 
ATOM      5  C   UNL     1      -3.900  -0.556  24.314  0.00  0.00    +0.040 A 
ATOM      6  C   UNL     1      -3.552  -0.507  25.060  0.00  0.00    +0.139 A 
ATOM     24  C   UNL     1      -3.369  -1.196  25.476  0.00  0.00    +0.040 A 
ATOM     25  C   UNL     1      -3.534  -1.934  25.144  0.00  0.00    +0.040 A 
BRANCH   3   2
ATOM      1  C   UNL     1      -3.518  -3.345  24.169  0.00  0.00    +0.252 C 
ATOM      2  O   UNL     1      -4.046  -2.720  24.067  0.00  0.00    -0.471 OA
ENDBRANCH   3   2
ENDBRANCH   7   6
ENDBRANCH   8   7
TORSDOF 4
ENDMDL
MODEL 3
REMARK VINA RESULT:     -10.5      1.340      2.426
REMARK  Name = 
REMARK  4 active torsions:
REMARK  status: ('A' for Active; 'I' for Inactive)
REMARK    1  A    between atoms: O_2  and  C_3
REMARK    2  A    between atoms: C_6  and  O_7
REMARK    3  A    between atoms: O_7  and  C_8
REMARK    4  A    between atoms: C_15  and  C_17
REMARK                            x       y       z     vdW  Elec       q    Type
REMARK                         _______ _______ _______ _____ _____    ______ ____
ROOT
ATOM      8  C   UNL     1      -4.309   1.320  24.749  0.00  0.00    +0.215 C 
ATOM      9  C   UNL     1      -5.062   0.986  24.786  0.00  0.00    +0.187 C 
ATOM     10  O   UNL     1      -5.762   1.322  25.064  0.00  0.00    -0.348 OA
ATOM     11  C   UNL     1      -5.882   2.077  25.373  0.00  0.00    +0.164 C 
ATOM     12  C   UNL     1      -5.332   2.682  25.482  0.00  0.00    +0.126 C 
ATOM     13  N   UNL     1      -4.526   2.681  25.307  0.00  0.00    -0.268 N 
ATOM     14  C   UNL     1      -4.071   2.076  24.982  0.00  0.00    +0.140 C 
ATOM     15  C   UNL     1      -4.121   3.379  25.482  0.00  0.00    +0.267 C 
ATOM     16  O   UNL     1      -4.525   4.019  25.810  0.00  0.00    -0.268 OA
ENDROOT
BRANCH  15  17
ATOM     17  C   UNL     1      -3.312   3.436  25.329  0.00  0.00    +0.132 A 
ATOM     18  C   UNL     1      -2.707   3.127  25.796  0.00  0.00    +0.040 A 
ATOM     19  C   UNL     1      -1.987   3.313  25.437  0.00  0.00    +0.081 A 
ATOM     20  C   UNL     1      -1.239   3.110  25.719  0.00  0.00    +0.054 C 
ATOM     21  N   UNL     1      -2.148   3.736  24.748  0.00  0.00    -0.173 NA
ATOM     22  N   UNL     1      -2.967   3.813  24.681  0.00  0.00    -0.245 N 
ATOM     23  C   UNL     1      -3.369   4.197  24.073  0.00  0.00    +0.154 C 
ENDBRANCH  15  17
BRANCH   8   7
ATOM      7  O   UNL     1      -3.717   0.837  24.440  0.00  0.00    -0.475 OA
BRANCH   7   6
ATOM      3  C   UNL     1      -3.647  -1.566  25.030  0.00  0.00    +0.139 A 
ATOM      4  C   UNL     1      -3.324  -1.006  25.543  0.00  0.00    +0.040 A 
ATOM      5  C   UNL     1      -3.347  -0.204  25.346  0.00  0.00    +0.040 A 
ATOM      6  C   UNL     1      -3.693   0.037  24.637  0.00  0.00    +0.139 A 
ATOM     24  C   UNL     1      -4.017  -0.523  24.124  0.00  0.00    +0.040 A 
ATOM     25  C   UNL     1      -3.994  -1.325  24.321  0.00  0.00    +0.040 A 
BRANCH   3   2
ATOM      1  C   UNL     1      -3.327  -2.915  24.687  0.00  0.00    +0.252 C 
ATOM      2  O   UNL     1      -3.624  -2.366  25.227  0.00  0.00    -0.471 OA
ENDBRANCH   3   2
ENDBRANCH   7   6
ENDBRANCH   8   7
TORSDOF 4
ENDMDL
MODEL 4
REMARK VINA RESULT:     -10.4      1.822      4.235
REMARK  Name = 
REMARK  4 active torsions:
REMARK  status: ('A' for Active; 'I' for Inactive)
REMARK    1  A    between atoms: O_2  and  C_3
REMARK    2  A    between atoms: C_6  and  O_7
REMARK    3  A    between atoms: O_7  and  C_8
REMARK    4  A    between atoms: C_15  and  C_17
REMARK                            x       y       z     vdW  Elec       q    Type
REMARK                         _______ _______ _______ _____ _____    ______ ____
ROOT
ATOM      8  C   UNL     1      -2.443   0.777  24.050  0.00  0.00    +0.215 C 
ATOM      9  C   UNL     1      -1.860   1.358  23.997  0.00  0.00    +0.187 C 
ATOM     10  O   UNL     1      -1.079   1.328  24.257  0.00  0.00    -0.348 OA
ATOM     11  C   UNL     1      -0.686   0.708  24.635  0.00  0.00    +0.164 C 
ATOM     12  C   UNL     1      -0.978  -0.034  24.845  0.00  0.00    +0.126 C 
ATOM     13  N   UNL     1      -1.735  -0.339  24.730  0.00  0.00    -0.268 N 
ATOM     14  C   UNL     1      -2.387   0.021  24.376  0.00  0.00    +0.140 C 
ATOM     15  C   UNL     1      -1.857  -1.108  25.005  0.00  0.00    +0.267 C 
ATOM     16  O   UNL     1      -1.240  -1.518  25.368  0.00  0.00    -0.268 OA
ENDROOT
BRANCH  15  17
ATOM     17  C   UNL     1      -2.595  -1.466  24.917  0.00  0.00    +0.132 A 
ATOM     18  C   UNL     1      -2.908  -1.767  24.216  0.00  0.00    +0.040 A 
ATOM     19  C   UNL     1      -3.657  -2.072  24.380  0.00  0.00    +0.081 A 
ATOM     20  C   UNL     1      -4.165  -2.427  23.837  0.00  0.00    +0.054 C 
ATOM     21  N   UNL     1      -3.806  -1.961  25.184  0.00  0.00    -0.173 NA
ATOM     22  N   UNL     1      -3.150  -1.586  25.516  0.00  0.00    -0.245 N 
ATOM     23  C   UNL     1      -3.065  -1.369  26.307  0.00  0.00    +0.154 C 
ENDBRANCH  15  17
BRANCH   8   7
ATOM      7  O   UNL     1      -3.179   0.978  23.735  0.00  0.00    -0.475 OA
BRANCH   7   6
ATOM      3  C   UNL     1      -4.365   2.991  24.550  0.00  0.00    +0.139 A 
ATOM      4  C   UNL     1      -3.835   3.052  23.921  0.00  0.00    +0.040 A 
ATOM      5  C   UNL     1      -3.439   2.380  23.649  0.00  0.00    +0.040 A 
ATOM      6  C   UNL     1      -3.574   1.649  24.006  0.00  0.00    +0.139 A 
ATOM     24  C   UNL     1      -4.104   1.589  24.636  0.00  0.00    +0.040 A 
ATOM     25  C   UNL     1      -4.500   2.261  24.907  0.00  0.00    +0.040 A 
BRANCH   3   2
ATOM      1  C   UNL     1      -5.030   3.695  25.600  0.00  0.00    +0.252 C 
ATOM      2  O   UNL     1      -4.760   3.663  24.822  0.00  0.00    -0.471 OA
ENDBRANCH   3   2
ENDBRANCH   7   6
ENDBRANCH   8   7
TORSDOF 4
ENDMDL
MODEL 5
REMARK VINA RESULT:     -10.4      1.809      2.844
REMARK  Name = 
REMARK  4 active torsions:
REMARK  status: ('A' for Active; 'I' for Inactive)
REMARK    1  A    between atoms: O_2  and  C_3
REMARK    2  A    between atoms: C_6  and  O_7
REMARK    3  A    between atoms: O_7  and  C_8
REMARK    4  A    between atoms: C_15  and  C_17
REMARK                            x       y       z     vdW  Elec       q    Type
REMARK                         _______ _______ _______ _____ _____    ______ ____
ROOT
ATOM      8  C   UNL     1      -3.438   2.001  24.708  0.00  0.00    +0.215 C 
ATOM      9  C   UNL     1      -4.258   1.949  24.635  0.00  0.00    +0.187 C 
ATOM     10  O   UNL     1      -4.832   2.471  24.913  0.00  0.00    -0.348 OA
ATOM     11  C   UNL     1      -4.729   3.174  25.333  0.00  0.00    +0.164 C 
ATOM     12  C   UNL     1      -4.026   3.528  25.579  0.00  0.00    +0.126 C 
ATOM     13  N   UNL     1      -3.252   3.267  25.465  0.00  0.00    -0.268 N 
ATOM     14  C   UNL     1      -2.990   2.588  25.078  0.00  0.00    +0.140 C 
ATOM     15  C   UNL     1      -2.661   3.749  25.781  0.00  0.00    +0.267 C 
ATOM     16  O   UNL     1      -2.865   4.442  26.179  0.00  0.00    -0.268 OA
ENDROOT
BRANCH  15  17
ATOM     17  C   UNL     1      -1.868   3.538  25.698  0.00  0.00    +0.132 A 
ATOM     18  C   UNL     1      -1.485   2.926  26.095  0.00  0.00    +0.040 A 
ATOM     19  C   UNL     1      -0.699   2.912  25.845  0.00  0.00    +0.081 A 
ATOM     20  C   UNL     1      -0.118   2.386  26.103  0.00  0.00    +0.054 C 
ATOM     21  N   UNL     1      -0.596   3.516  25.293  0.00  0.00    -0.173 NA
ATOM     22  N   UNL     1      -1.319   3.903  25.202  0.00  0.00    -0.245 N 
ATOM     23  C   UNL     1      -1.466   4.543  24.702  0.00  0.00    +0.154 C 
ENDBRANCH  15  17
BRANCH   8   7
ATOM      7  O   UNL     1      -3.008   1.384  24.367  0.00  0.00    -0.475 OA
BRANCH   7   6
ATOM      3  C   UNL     1      -3.723  -0.960  24.712  0.00  0.00    +0.139 A 
ATOM      4  C   UNL     1      -3.268  -0.579  25.285  0.00  0.00    +0.040 A 
ATOM      5  C   UNL     1      -3.029   0.203  25.170  0.00  0.00    +0.040 A 
ATOM      6  C   UNL     1      -3.246   0.603  24.482  0.00  0.00    +0.139 A 
ATOM     24  C   UNL     1      -3.701   0.222  23.909  0.00  0.00    +0.040 A 
ATOM     25  C   UNL     1      -3.940  -0.560  24.024  0.00  0.00    +0.040 A 
BRANCH   3   2
ATOM      1  C   UNL     1      -3.448  -2.360  24.640  0.00  0.00    +0.252 C 
ATOM      2  O   UNL     1      -3.961  -1.741  24.828  0.00  0.00    -0.471 OA
ENDBRANCH   3   2
ENDBRANCH   7   6
ENDBRANCH   8   7
TORSDOF 4
ENDMDL
MODEL 6
REMARK VINA RESULT:     -10.2      2.205      2.810
REMARK  Name = 
REMARK  4 active torsions:
REMARK  status: ('A' for Active; 'I' for Inactive)
REMARK    1  A    between atoms: O_2  and  C_3
REMARK    2  A    between atoms: C_6  and  O_7
REMARK    3  A    between atoms: O_7  and  C_8
REMARK    4  A    between atoms: C_15  and  C_17
REMARK                            x       y       z     vdW  Elec       q    Type
REMARK                         _______ _______ _______ _____ _____    ______ ____
ROOT
ATOM      8  C   UNL     1      -1.363   0.122  24.900  0.00  0.00    +0.215 C 
ATOM      9  C   UNL     1      -1.065  -0.553  24.532  0.00  0.00    +0.187 C 
ATOM     10  O   UNL     1      -0.389  -0.628  24.066  0.00  0.00    -0.348 OA
ATOM     11  C   UNL     1       0.157  -0.047  23.854  0.00  0.00    +0.164 C 
ATOM     12  C   UNL     1       0.161   0.753  24.054  0.00  0.00    +0.126 C 
ATOM     13  N   UNL     1      -0.380   1.169  24.517  0.00  0.00    -0.268 N 
ATOM     14  C   UNL     1      -1.058   0.889  24.893  0.00  0.00    +0.140 C 
ATOM     15  C   UNL     1      -0.222   1.973  24.617  0.00  0.00    +0.267 C 
ATOM     16  O   UNL     1       0.443   2.309  24.263  0.00  0.00    -0.268 OA
ENDROOT
BRANCH  15  17
ATOM     17  C   UNL     1      -0.729   2.441  25.070  0.00  0.00    +0.132 A 
ATOM     18  C   UNL     1      -1.460   2.736  24.830  0.00  0.00    +0.040 A 
ATOM     19  C   UNL     1      -1.777   3.173  25.455  0.00  0.00    +0.081 A 
ATOM     20  C   UNL     1      -2.502   3.566  25.453  0.00  0.00    +0.054 C 
ATOM     21  N   UNL     1      -1.241   3.147  26.081  0.00  0.00    -0.173 NA
ATOM     22  N   UNL     1      -0.593   2.694  25.844  0.00  0.00    -0.245 N 
ATOM     23  C   UNL     1       0.073   2.525  26.299  0.00  0.00    +0.154 C 
ENDBRANCH  15  17
BRANCH   8   7
ATOM      7  O   UNL     1      -2.059   0.017  25.332  0.00  0.00    -0.475 OA
BRANCH   7   6
ATOM      3  C   UNL     1      -3.919  -1.306  24.377  0.00  0.00    +0.139 A 
ATOM      4  C   UNL     1      -3.813  -0.520  24.149  0.00  0.00    +0.040 A 
ATOM      5  C   UNL     1      -3.192  -0.079  24.468  0.00  0.00    +0.040 A 
ATOM      6  C   UNL     1      -2.679  -0.423  25.013  0.00  0.00    +0.139 A 
ATOM     24  C   UNL     1      -2.785  -1.209  25.241  0.00  0.00    +0.040 A 
ATOM     25  C   UNL     1      -3.406  -1.650  24.922  0.00  0.00    +0.040 A 
BRANCH   3   2
ATOM      1  C   UNL     1      -4.394  -2.496  23.744  0.00  0.00    +0.252 C 
ATOM      2  O   UNL     1      -4.540  -1.746  24.058  0.00  0.00    -0.471 OA
ENDBRANCH   3   2
ENDBRANCH   7   6
ENDBRANCH   8   7
TORSDOF 4
ENDMDL
MODEL 7
REMARK VINA RESULT:      -9.8      2.223      4.102
REMARK  Name = 
REMARK  4 active torsions:
REMARK  status: ('A' for Active; 'I' for Inactive)
REMARK    1  A    between atoms: O_2  and  C_3
REMARK    2  A    between atoms: C_6  and  O_7
REMARK    3  A    between atoms: O_7  and  C_8
REMARK    4  A    between atoms: C_15  and  C_17
REMARK                            x       y       z     vdW  Elec       q    Type
REMARK                         _______ _______ _______ _____ _____    ______ ____
ROOT
ATOM      8  C   UNL     1      -2.469   2.535  24.670  0.00  0.00    +0.215 C 
ATOM      9  C   UNL     1      -2.707   3.307  24.834  0.00  0.00    +0.187 C 
ATOM     10  O   UNL     1      -2.309   3.888  25.262  0.00  0.00    -0.348 OA
ATOM     11  C   UNL     1      -1.574   3.841  25.633  0.00  0.00    +0.164 C 
ATOM     12  C   UNL     1      -1.054   3.201  25.666  0.00  0.00    +0.126 C 
ATOM     13  N   UNL     1      -1.143   2.450  25.338  0.00  0.00    -0.268 N 
ATOM     14  C   UNL     1      -1.772   2.153  24.895  0.00  0.00    +0.140 C 
ATOM     15  C   UNL     1      -0.519   1.925  25.470  0.00  0.00    +0.267 C 
ATOM     16  O   UNL     1       0.137   2.168  25.907  0.00  0.00    -0.268 OA
ENDROOT
BRANCH  15  17
ATOM     17  C   UNL     1      -0.553   1.159  25.165  0.00  0.00    +0.132 A 
ATOM     18  C   UNL     1      -0.978   0.529  25.484  0.00  0.00    +0.040 A 
ATOM     19  C   UNL     1      -0.854  -0.131  25.003  0.00  0.00    +0.081 A 
ATOM     20  C   UNL     1      -1.176  -0.882  25.119  0.00  0.00    +0.054 C 
ATOM     21  N   UNL     1      -0.353   0.092  24.387  0.00  0.00    -0.173 NA
ATOM     22  N   UNL     1      -0.167   0.890  24.487  0.00  0.00    -0.245 N 
ATOM     23  C   UNL     1       0.320   1.339  23.996  0.00  0.00    +0.154 C 
ENDBRANCH  15  17
BRANCH   8   7
ATOM      7  O   UNL     1      -2.996   2.084  24.223  0.00  0.00    -0.475 OA
BRANCH   7   6
ATOM      3  C   UNL     1      -5.363   1.899  24.919  0.00  0.00    +0.139 A 
ATOM      4  C   UNL     1      -4.817   1.331  25.162  0.00  0.00    +0.040 A 
ATOM      5  C   UNL     1      -4.027   1.392  24.929  0.00  0.00    +0.040 A 
ATOM      6  C   UNL     1      -3.785   2.022  24.455  0.00  0.00    +0.139 A 
ATOM     24  C   UNL     1      -4.331   2.590  24.213  0.00  0.00    +0.040 A 
ATOM     25  C   UNL     1      -5.121   2.529  24.445  0.00  0.00    +0.040 A 
BRANCH   3   2
ATOM      1  C   UNL     1      -6.363   1.976  25.937  0.00  0.00    +0.252 C 
ATOM      2  O   UNL     1      -6.152   1.837  25.152  0.00  0.00    -0.471 OA
ENDBRANCH   3   2
ENDBRANCH   7   6
ENDBRANCH   8   7
TORSDOF 4
ENDMDL
