MODEL 1
REMARK VINA RESULT:     -15.2      0.000      0.000
REMARK  Name = 
REMARK  5 active torsions:
REMARK  status: ('A' for Active; 'I' for Inactive)
REMARK    1  A    between atoms: C_2  and  C_3
REMARK    2  A    between atoms: C_11  and  C_12
REMARK    3  A    between atoms: C_12  and  C_13
REMARK    4  A    between atoms: N_15  and  C_16
REMARK    5  A    between atoms: C_29  and  C_31
REMARK                            x       y       z     vdW  Elec       q    Type
REMARK                         _______ _______ _______ _____ _____    ______ ____
ROOT
ATOM      1  C   UNL     1      -2.439  -2.709  24.687  0.00  0.00    +0.005 C 
ATOM      2  C   UNL     1      -2.670  -1.926  24.569  0.00  0.00    +0.059 C 
ATOM      5  C   UNL     1      -3.372  -2.313  24.375  0.00  0.00    +0.154 C 
ATOM      6  O   UNL     1      -3.413  -3.136  24.410  0.00  0.00    -0.223 OA
ATOM      7  C   UNL     1      -4.034  -1.876  24.144  0.00  0.00    +0.033 C 
ATOM      8  C   UNL     1      -3.993  -1.054  24.108  0.00  0.00    +0.003 C 
ATOM      9  C   UNL     1      -3.292  -0.667  24.303  0.00  0.00    +0.006 C 
ATOM     10  C   UNL     1      -3.952  -0.231  24.073  0.00  0.00    +0.000 C 
ATOM     11  C   UNL     1      -3.250   0.157  24.267  0.00  0.00    +0.050 C 
ATOM     22  C   UNL     1      -2.549   0.544  24.462  0.00  0.00    +0.063 A 
ATOM     23  C   UNL     1      -1.887   0.107  24.692  0.00  0.00    +0.023 A 
ATOM     24  C   UNL     1      -1.928  -0.716  24.728  0.00  0.00    +0.034 C 
ATOM     25  C   UNL     1      -2.629  -1.103  24.533  0.00  0.00    +0.010 C 
ATOM     26  S   UNL     1      -1.275   0.638  24.850  0.00  0.00    -0.054 S 
ATOM     27  C   UNL     1      -1.557   1.401  24.718  0.00  0.00    +0.185 A 
ATOM     28  N   UNL     1      -1.129   2.100  24.810  0.00  0.00    -0.154 NA
ATOM     29  C   UNL     1      -1.487   2.826  24.656  0.00  0.00    +0.247 C 
ATOM     30  O   UNL     1      -2.274   2.855  24.411  0.00  0.00    -0.273 OA
ATOM     35  N   UNL     1      -2.344   1.343  24.478  0.00  0.00    -0.227 NA
ENDROOT
BRANCH  29  31
ATOM     31  C   UNL     1      -1.058   3.525  24.748  0.00  0.00    +0.079 C 
ATOM     32  C   UNL     1      -1.169   4.227  25.168  0.00  0.00    +0.009 C 
ATOM     33  C   UNL     1      -0.451   4.513  24.878  0.00  0.00    +0.001 C 
ATOM     34  C   UNL     1      -0.341   3.812  24.458  0.00  0.00    +0.009 C 
ENDBRANCH  29  31
BRANCH   2   3
ATOM      3  C   UNL     1      -1.888  -1.811  24.805  0.00  0.00    +0.184 C 
ATOM      4  O   UNL     1      -1.404  -2.461  24.958  0.00  0.00    -0.220 OA
ENDBRANCH   2   3
BRANCH  11  12
ATOM     12  C   UNL     1      -3.911   0.593  24.037  0.00  0.00    +0.093 C 
BRANCH  12  13
ATOM     13  C   UNL     1      -4.349   1.008  24.601  0.00  0.00    +0.246 C 
ATOM     14  O   UNL     1      -4.287   0.809  25.399  0.00  0.00    -0.273 OA
ATOM     15  N   UNL     1      -4.848   1.620  24.366  0.00  0.00    -0.179 NA
BRANCH  15  16
ATOM     16  C   UNL     1      -5.286   2.035  24.929  0.00  0.00    +0.073 A 
ATOM     17  C   UNL     1      -5.086   2.814  25.112  0.00  0.00    +0.017 A 
ATOM     18  C   UNL     1      -5.524   3.230  25.676  0.00  0.00    +0.001 A 
ATOM     19  C   UNL     1      -6.160   2.866  26.054  0.00  0.00    +0.000 A 
ATOM     20  C   UNL     1      -6.359   2.087  25.870  0.00  0.00    +0.001 A 
ATOM     21  C   UNL     1      -5.922   1.672  25.307  0.00  0.00    +0.017 A 
ENDBRANCH  15  16
ENDBRANCH  12  13
ENDBRANCH  11  12
TORSDOF 5
ENDMDL
MODEL 2
REMARK VINA RESULT:     -14.1      1.591      5.159
REMARK  Name = 
REMARK  5 active torsions:
REMARK  status: ('A' for Active; 'I' for Inactive)
REMARK    1  A    between atoms: C_2  and  C_3
REMARK    2  A    between atoms: C_11  and  C_12
REMARK    3  A    between atoms: C_12  and  C_13
REMARK    4  A    between atoms: N_15  and  C_16
REMARK    5  A    between atoms: C_29  and  C_31
REMARK                            x       y       z     vdW  Elec       q    Type
REMARK                         _______ _______ _______ _____ _____    ______ ____
ROOT
ATOM      1  C   UNL     1      -5.677   3.639  25.747  0.00  0.00    +0.005 C 
ATOM      2  C   UNL     1      -5.146   3.153  25.345  0.00  0.00    +0.059 C 
ATOM      5  C   UNL     1      -4.890   3.892  25.083  0.00  0.00    +0.154 C 
ATOM      6  O   UNL     1      -5.269   4.577  25.346  0.00  0.00    -0.223 OA
ATOM      7  C   UNL     1      -4.256   3.947  24.558  0.00  0.00    +0.033 C 
ATOM      8  C   UNL     1      -3.877   3.263  24.296  0.00  0.00    +0.003 C 
ATOM      9  C   UNL     1      -4.133   2.524  24.557  0.00  0.00    +0.006 C 
ATOM     10  C   UNL     1      -3.499   2.579  24.033  0.00  0.00    +0.000 C 
ATOM     11  C   UNL     1      -3.755   1.839  24.295  0.00  0.00    +0.050 C 
ATOM     22  C   UNL     1      -4.010   1.100  24.557  0.00  0.00    +0.063 A 
ATOM     23  C   UNL     1      -4.645   1.045  25.082  0.00  0.00    +0.023 A 
ATOM     24  C   UNL     1      -5.023   1.729  25.345  0.00  0.00    +0.034 C 
ATOM     25  C   UNL     1      -4.768   2.469  25.083  0.00  0.00    +0.010 C 
ATOM     26  S   UNL     1      -4.772   0.246  25.244  0.00  0.00    -0.054 S 
ATOM     27  C   UNL     1      -4.218  -0.192  24.819  0.00  0.00    +0.185 A 
ATOM     28  N   UNL     1      -4.147  -1.014  24.819  0.00  0.00    -0.154 NA
ATOM     29  C   UNL     1      -3.563  -1.377  24.365  0.00  0.00    +0.247 C 
ATOM     30  O   UNL     1      -3.049  -0.919  23.910  0.00  0.00    -0.273 OA
ATOM     35  N   UNL     1      -3.747   0.335  24.395  0.00  0.00    -0.227 NA
ENDROOT
BRANCH  29  31
ATOM     31  C   UNL     1      -3.492  -2.199  24.364  0.00  0.00    +0.079 C 
ATOM     32  C   UNL     1      -3.899  -2.820  24.003  0.00  0.00    +0.009 C 
ATOM     33  C   UNL     1      -3.391  -3.362  24.364  0.00  0.00    +0.001 C 
ATOM     34  C   UNL     1      -2.985  -2.742  24.725  0.00  0.00    +0.009 C 
ENDBRANCH  29  31
BRANCH   2   3
ATOM      3  C   UNL     1      -5.586   2.583  25.747  0.00  0.00    +0.184 C 
ATOM      4  O   UNL     1      -6.132   2.813  26.322  0.00  0.00    -0.220 OA
ENDBRANCH   2   3
BRANCH  11  12
ATOM     12  C   UNL     1      -3.120   1.894  23.770  0.00  0.00    +0.093 C 
BRANCH  12  13
ATOM     13  C   UNL     1      -2.346   1.819  24.048  0.00  0.00    +0.246 C 
ATOM     14  O   UNL     1      -2.201   1.793  24.860  0.00  0.00    -0.273 OA
ATOM     15  N   UNL     1      -1.720   1.770  23.515  0.00  0.00    -0.179 NA
BRANCH  15  16
ATOM     16  C   UNL     1      -0.947   1.695  23.793  0.00  0.00    +0.073 A 
ATOM     17  C   UNL     1      -0.571   0.962  23.769  0.00  0.00    +0.017 A 
ATOM     18  C   UNL     1       0.203   0.886  24.047  0.00  0.00    +0.001 A 
ATOM     19  C   UNL     1       0.600   1.544  24.347  0.00  0.00    +0.000 A 
ATOM     20  C   UNL     1       0.223   2.278  24.370  0.00  0.00    +0.001 A 
ATOM     21  C   UNL     1      -0.550   2.353  24.093  0.00  0.00    +0.017 A 
ENDBRANCH  15  16
ENDBRANCH  12  13
ENDBRANCH  11  12
TORSDOF 5
ENDMDL
MODEL 3
REMARK VINA RESULT:     -13.9      1.200      4.193
REMARK  Name = 
REMARK  5 active torsions:
REMARK  status: ('A' for Active; 'I' for Inactive)
REMARK    1  A    between atoms: C_2  and  C_3
REMARK    2  A    between atoms: C_11  and  C_12
REMARK    3  A    between atoms: C_12  and  C_13
REMARK    4  A    between atoms: N_15  and  C_16
REMARK    5  A    between atoms: C_29  and  C_31
REMARK                            x       y       z     vdW  Elec       q    Type
REMARK                         _______ _______ _______ _____ _____    ______ ____
ROOT
ATOM      1  C   UNL     1       0.176   3.263  25.593  0.00  0.00    +0.005 C 
ATOM      2  C   UNL     1      -0.523   2.923  25.317  0.00  0.00    +0.059 C 
ATOM      5  C   UNL     1      -0.687   3.719  25.181  0.00  0.00    +0.154 C 
ATOM      6  O   UNL     1      -0.130   4.296  25.376  0.00  0.00    -0.223 OA
ATOM      7  C   UNL     1      -1.411   3.941  24.850  0.00  0.00    +0.033 C 
ATOM      8  C   UNL     1      -1.968   3.365  24.655  0.00  0.00    +0.003 C 
ATOM      9  C   UNL     1      -1.803   2.569  24.791  0.00  0.00    +0.006 C 
ATOM     10  C   UNL     1      -2.525   2.790  24.460  0.00  0.00    +0.000 C 
ATOM     11  C   UNL     1      -2.361   1.993  24.596  0.00  0.00    +0.050 C 
ATOM     22  C   UNL     1      -2.196   1.196  24.731  0.00  0.00    +0.063 A 
ATOM     23  C   UNL     1      -1.473   0.975  25.063  0.00  0.00    +0.023 A 
ATOM     24  C   UNL     1      -0.916   1.550  25.258  0.00  0.00    +0.034 C 
ATOM     25  C   UNL     1      -1.080   2.348  25.122  0.00  0.00    +0.010 C 
ATOM     26  S   UNL     1      -1.466   0.153  25.132  0.00  0.00    -0.054 S 
ATOM     27  C   UNL     1      -2.184  -0.134  24.844  0.00  0.00    +0.185 A 
ATOM     28  N   UNL     1      -2.410  -0.927  24.810  0.00  0.00    -0.154 NA
ATOM     29  C   UNL     1      -3.149  -1.131  24.506  0.00  0.00    +0.247 C 
ATOM     30  O   UNL     1      -3.662  -0.544  24.237  0.00  0.00    -0.273 OA
ATOM     35  N   UNL     1      -2.634   0.510  24.597  0.00  0.00    -0.227 NA
ENDROOT
BRANCH  29  31
ATOM     31  C   UNL     1      -3.376  -1.924  24.472  0.00  0.00    +0.079 C 
ATOM     32  C   UNL     1      -3.905  -2.360  24.013  0.00  0.00    +0.009 C 
ATOM     33  C   UNL     1      -3.697  -3.045  24.424  0.00  0.00    +0.001 C 
ATOM     34  C   UNL     1      -3.168  -2.609  24.882  0.00  0.00    +0.009 C 
ENDBRANCH  29  31
BRANCH   2   3
ATOM      3  C   UNL     1      -0.115   2.245  25.549  0.00  0.00    +0.184 C 
ATOM      4  O   UNL     1       0.618   2.311  25.923  0.00  0.00    -0.220 OA
ENDBRANCH   2   3
BRANCH  11  12
ATOM     12  C   UNL     1      -3.083   2.214  24.264  0.00  0.00    +0.093 C 
BRANCH  12  13
ATOM     13  C   UNL     1      -3.765   2.225  24.730  0.00  0.00    +0.246 C 
ATOM     14  O   UNL     1      -3.706   2.141  25.549  0.00  0.00    -0.273 OA
ATOM     15  N   UNL     1      -4.504   2.319  24.378  0.00  0.00    -0.179 NA
BRANCH  15  16
ATOM     16  C   UNL     1      -5.185   2.331  24.843  0.00  0.00    +0.073 A 
ATOM     17  C   UNL     1      -5.685   1.675  24.855  0.00  0.00    +0.017 A 
ATOM     18  C   UNL     1      -6.367   1.686  25.321  0.00  0.00    +0.001 A 
ATOM     19  C   UNL     1      -6.548   2.352  25.773  0.00  0.00    +0.000 A 
ATOM     20  C   UNL     1      -6.046   3.007  25.760  0.00  0.00    +0.001 A 
ATOM     21  C   UNL     1      -5.365   2.997  25.295  0.00  0.00    +0.017 A 
ENDBRANCH  15  16
ENDBRANCH  12  13
ENDBRANCH  11  12
TORSDOF 5
ENDMDL
MODEL 4
REMARK VINA RESULT:     -13.8      1.177      3.445
REMARK  Name = 
REMARK  5 active torsions:
REMARK  status: ('A' for Active; 'I' for Inactive)
REMARK    1  A    between atoms: C_2  and  C_3
REMARK    2  A    between atoms: C_11  and  C_12
REMARK    3  A    between atoms: C_12  and  C_13
REMARK    4  A    between atoms: N_15  and  C_16
REMARK    5  A    between atoms: C_29  and  C_31
REMARK                            x       y       z     vdW  Elec       q    Type
REMARK                         _______ _______ _______ _____ _____    ______ ____
ROOT
ATOM      1  C   UNL     1      -3.670  -2.903  23.967  0.00  0.00    +0.005 C 
ATOM      2  C   UNL     1      -3.441  -2.183  24.297  0.00  0.00    +0.059 C 
ATOM      5  C   UNL     1      -2.763  -2.629  24.442  0.00  0.00    +0.154 C 
ATOM      6  O   UNL     1      -2.728  -3.418  24.203  0.00  0.00    -0.223 OA
ATOM      7  C   UNL     1      -2.118  -2.286  24.827  0.00  0.00    +0.033 C 
ATOM      8  C   UNL     1      -2.152  -1.498  25.066  0.00  0.00    +0.003 C 
ATOM      9  C   UNL     1      -2.830  -1.052  24.921  0.00  0.00    +0.006 C 
ATOM     10  C   UNL     1      -2.186  -0.710  25.305  0.00  0.00    +0.000 C 
ATOM     11  C   UNL     1      -2.865  -0.263  25.160  0.00  0.00    +0.050 C 
ATOM     22  C   UNL     1      -3.543   0.183  25.015  0.00  0.00    +0.063 A 
ATOM     23  C   UNL     1      -4.188  -0.160  24.630  0.00  0.00    +0.023 A 
ATOM     24  C   UNL     1      -4.154  -0.948  24.391  0.00  0.00    +0.034 C 
ATOM     25  C   UNL     1      -3.475  -1.395  24.536  0.00  0.00    +0.010 C 
ATOM     26  S   UNL     1      -4.778   0.413  24.564  0.00  0.00    -0.054 S 
ATOM     27  C   UNL     1      -4.499   1.109  24.907  0.00  0.00    +0.185 A 
ATOM     28  N   UNL     1      -4.910   1.822  24.961  0.00  0.00    -0.154 NA
ATOM     29  C   UNL     1      -4.558   2.475  25.321  0.00  0.00    +0.247 C 
ATOM     30  O   UNL     1      -3.794   2.416  25.627  0.00  0.00    -0.273 OA
ATOM     35  N   UNL     1      -3.736   0.967  25.186  0.00  0.00    -0.227 NA
ENDROOT
BRANCH  29  31
ATOM     31  C   UNL     1      -4.970   3.188  25.376  0.00  0.00    +0.079 C 
ATOM     32  C   UNL     1      -5.680   3.427  25.723  0.00  0.00    +0.009 C 
ATOM     33  C   UNL     1      -5.552   4.196  25.453  0.00  0.00    +0.001 C 
ATOM     34  C   UNL     1      -4.843   3.957  25.106  0.00  0.00    +0.009 C 
ENDBRANCH  29  31
BRANCH   2   3
ATOM      3  C   UNL     1      -4.199  -1.987  24.037  0.00  0.00    +0.184 C 
ATOM      4  O   UNL     1      -4.649  -2.542  23.623  0.00  0.00    -0.220 OA
ENDBRANCH   2   3
BRANCH  11  12
ATOM     12  C   UNL     1      -2.220   0.080  25.545  0.00  0.00    +0.093 C 
BRANCH  12  13
ATOM     13  C   UNL     1      -1.736   0.614  25.143  0.00  0.00    +0.246 C 
ATOM     14  O   UNL     1      -1.792   0.684  24.323  0.00  0.00    -0.273 OA
ATOM     15  N   UNL     1      -1.197   1.077  25.561  0.00  0.00    -0.179 NA
BRANCH  15  16
ATOM     16  C   UNL     1      -0.713   1.611  25.160  0.00  0.00    +0.073 A 
ATOM     17  C   UNL     1      -0.869   2.420  25.203  0.00  0.00    +0.017 A 
ATOM     18  C   UNL     1      -0.384   2.955  24.802  0.00  0.00    +0.001 A 
ATOM     19  C   UNL     1       0.254   2.681  24.358  0.00  0.00    +0.000 A 
ATOM     20  C   UNL     1       0.409   1.871  24.315  0.00  0.00    +0.001 A 
ATOM     21  C   UNL     1      -0.075   1.337  24.715  0.00  0.00    +0.017 A 
ENDBRANCH  15  16
ENDBRANCH  12  13
ENDBRANCH  11  12
TORSDOF 5
ENDMDL
MODEL 5
REMARK VINA RESULT:     -13.8      1.691      4.131
REMARK  Name = 
REMARK  5 active torsions:
REMARK  status: ('A' for Active; 'I' for Inactive)
REMARK    1  A    between atoms: C_2  and  C_3
REMARK    2  A    between atoms: C_11  and  C_12
REMARK    3  A    between atoms: C_12  and  C_13
REMARK    4  A    between atoms: N_15  and  C_16
REMARK    5  A    between atoms: C_29  and  C_31
REMARK                            x       y       z     vdW  Elec       q    Type
REMARK                         _______ _______ _______ _____ _____    ______ ____
ROOT
ATOM      1  C   UNL     1      -4.343   3.852  25.875  0.00  0.00    +0.005 C 
ATOM      2  C   UNL     1      -4.066   3.216  25.429  0.00  0.00    +0.059 C 
ATOM      5  C   UNL     1      -4.878   3.089  25.368  0.00  0.00    +0.154 C 
ATOM      6  O   UNL     1      -5.405   3.604  25.739  0.00  0.00    -0.223 OA
ATOM      7  C   UNL     1      -5.165   2.446  24.936  0.00  0.00    +0.033 C 
ATOM      8  C   UNL     1      -4.639   1.932  24.565  0.00  0.00    +0.003 C 
ATOM      9  C   UNL     1      -3.826   2.058  24.626  0.00  0.00    +0.006 C 
ATOM     10  C   UNL     1      -4.112   1.417  24.194  0.00  0.00    +0.000 C 
ATOM     11  C   UNL     1      -3.299   1.543  24.255  0.00  0.00    +0.050 C 
ATOM     22  C   UNL     1      -2.487   1.670  24.315  0.00  0.00    +0.063 A 
ATOM     23  C   UNL     1      -2.200   2.313  24.747  0.00  0.00    +0.023 A 
ATOM     24  C   UNL     1      -2.726   2.827  25.118  0.00  0.00    +0.034 C 
ATOM     25  C   UNL     1      -3.540   2.701  25.058  0.00  0.00    +0.010 C 
ATOM     26  S   UNL     1      -1.376   2.297  24.709  0.00  0.00    -0.054 S 
ATOM     27  C   UNL     1      -1.153   1.646  24.255  0.00  0.00    +0.185 A 
ATOM     28  N   UNL     1      -0.379   1.422  24.075  0.00  0.00    -0.154 NA
ATOM     29  C   UNL     1      -0.241   0.754  23.612  0.00  0.00    +0.247 C 
ATOM     30  O   UNL     1      -0.875   0.310  23.328  0.00  0.00    -0.273 OA
ATOM     35  N   UNL     1      -1.839   1.259  24.011  0.00  0.00    -0.227 NA
ENDROOT
BRANCH  29  31
ATOM     31  C   UNL     1       0.533   0.530  23.433  0.00  0.00    +0.079 C 
ATOM     32  C   UNL     1       0.886  -0.146  23.116  0.00  0.00    +0.009 C 
ATOM     33  C   UNL     1       1.627   0.213  23.179  0.00  0.00    +0.001 C 
ATOM     34  C   UNL     1       1.274   0.887  23.495  0.00  0.00    +0.009 C 
ENDBRANCH  29  31
BRANCH   2   3
ATOM      3  C   UNL     1      -3.350   3.564  25.644  0.00  0.00    +0.184 C 
ATOM      4  O   UNL     1      -3.344   4.230  26.132  0.00  0.00    -0.220 OA
ENDBRANCH   2   3
BRANCH  11  12
ATOM     12  C   UNL     1      -3.585   0.901  23.823  0.00  0.00    +0.093 C 
BRANCH  12  13
ATOM     13  C   UNL     1      -3.584   0.146  24.156  0.00  0.00    +0.246 C 
ATOM     14  O   UNL     1      -3.570   0.058  24.976  0.00  0.00    -0.273 OA
ATOM     15  N   UNL     1      -3.597  -0.519  23.670  0.00  0.00    -0.179 NA
BRANCH  15  16
ATOM     16  C   UNL     1      -3.596  -1.274  24.003  0.00  0.00    +0.073 A 
ATOM     17  C   UNL     1      -4.251  -1.766  23.908  0.00  0.00    +0.017 A 
ATOM     18  C   UNL     1      -4.250  -2.522  24.241  0.00  0.00    +0.001 A 
ATOM     19  C   UNL     1      -3.595  -2.784  24.668  0.00  0.00    +0.000 A 
ATOM     20  C   UNL     1      -2.940  -2.291  24.762  0.00  0.00    +0.001 A 
ATOM     21  C   UNL     1      -2.940  -1.536  24.430  0.00  0.00    +0.017 A 
ENDBRANCH  15  16
ENDBRANCH  12  13
ENDBRANCH  11  12
TORSDOF 5
ENDMDL
MODEL 6
REMARK VINA RESULT:     -13.2      1.797      5.551
REMARK  Name = 
REMARK  5 active torsions:
REMARK  status: ('A' for Active; 'I' for Inactive)
REMARK    1  A    between atoms: C_2  and  C_3
REMARK    2  A    between atoms: C_11  and  C_12
REMARK    3  A    between atoms: C_12  and  C_13
REMARK    4  A    between atoms: N_15  and  C_16
REMARK    5  A    between atoms: C_29  and  C_31
REMARK                            x       y       z     vdW  Elec       q    Type
REMARK                         _______ _______ _______ _____ _____    ______ ____
ROOT
ATOM      1  C   UNL     1      -3.042   4.567  25.235  0.00  0.00    +0.005 C 
ATOM      2  C   UNL     1      -2.708   3.814  25.206  0.00  0.00    +0.059 C 
ATOM      5  C   UNL     1      -2.042   4.258  25.400  0.00  0.00    +0.154 C 
ATOM      6  O   UNL     1      -2.103   5.075  25.494  0.00  0.00    -0.223 OA
ATOM      7  C   UNL     1      -1.312   3.884  25.502  0.00  0.00    +0.033 C 
ATOM      8  C   UNL     1      -1.251   3.067  25.408  0.00  0.00    +0.003 C 
ATOM      9  C   UNL     1      -1.918   2.623  25.213  0.00  0.00    +0.006 C 
ATOM     10  C   UNL     1      -1.190   2.251  25.314  0.00  0.00    +0.000 C 
ATOM     11  C   UNL     1      -1.857   1.806  25.119  0.00  0.00    +0.050 C 
ATOM     22  C   UNL     1      -2.523   1.362  24.925  0.00  0.00    +0.063 A 
ATOM     23  C   UNL     1      -3.253   1.735  24.823  0.00  0.00    +0.023 A 
ATOM     24  C   UNL     1      -3.314   2.552  24.917  0.00  0.00    +0.034 C 
ATOM     25  C   UNL     1      -2.647   2.997  25.112  0.00  0.00    +0.010 C 
ATOM     26  S   UNL     1      -3.810   1.157  24.634  0.00  0.00    -0.054 S 
ATOM     27  C   UNL     1      -3.427   0.427  24.617  0.00  0.00    +0.185 A 
ATOM     28  N   UNL     1      -3.777  -0.301  24.451  0.00  0.00    -0.154 NA
ATOM     29  C   UNL     1      -3.321  -0.988  24.455  0.00  0.00    +0.247 C 
ATOM     30  O   UNL     1      -2.514  -0.947  24.626  0.00  0.00    -0.273 OA
ATOM     35  N   UNL     1      -2.632   0.554  24.797  0.00  0.00    -0.227 NA
ENDROOT
BRANCH  29  31
ATOM     31  C   UNL     1      -3.670  -1.716  24.288  0.00  0.00    +0.079 C 
ATOM     32  C   UNL     1      -3.542  -2.495  24.532  0.00  0.00    +0.009 C 
ATOM     33  C   UNL     1      -4.165  -2.746  24.053  0.00  0.00    +0.001 C 
ATOM     34  C   UNL     1      -4.293  -1.969  23.810  0.00  0.00    +0.009 C 
ENDBRANCH  29  31
BRANCH   2   3
ATOM      3  C   UNL     1      -3.491   3.632  25.021  0.00  0.00    +0.184 C 
ATOM      4  O   UNL     1      -4.055   4.233  24.975  0.00  0.00    -0.220 OA
ENDBRANCH   2   3
BRANCH  11  12
ATOM     12  C   UNL     1      -1.128   1.433  25.220  0.00  0.00    +0.093 C 
BRANCH  12  13
ATOM     13  C   UNL     1      -0.686   1.204  24.561  0.00  0.00    +0.246 C 
ATOM     14  O   UNL     1      -0.880   1.495  23.814  0.00  0.00    -0.273 OA
ATOM     15  N   UNL     1      -0.052   0.685  24.650  0.00  0.00    -0.179 NA
BRANCH  15  16
ATOM     16  C   UNL     1       0.390   0.456  23.992  0.00  0.00    +0.073 A 
ATOM     17  C   UNL     1       0.195  -0.235  23.586  0.00  0.00    +0.017 A 
ATOM     18  C   UNL     1       0.637  -0.464  22.927  0.00  0.00    +0.001 A 
ATOM     19  C   UNL     1       1.272  -0.002  22.675  0.00  0.00    +0.000 A 
ATOM     20  C   UNL     1       1.466   0.689  23.082  0.00  0.00    +0.001 A 
ATOM     21  C   UNL     1       1.025   0.918  23.740  0.00  0.00    +0.017 A 
ENDBRANCH  15  16
ENDBRANCH  12  13
ENDBRANCH  11  12
TORSDOF 5
ENDMDL
