MODEL 1
REMARK VINA RESULT:     -12.7      0.000      0.000
REMARK  Name = 
REMARK  7 active torsions:
REMARK  status: ('A' for Active; 'I' for Inactive)
REMARK    1  A    between atoms: C_5  and  C_6
REMARK    2  A    between atoms: C_6  and  N_7
REMARK    3  A    between atoms: N_7  and  C_8
REMARK    4  A    between atoms: C_8  and  C_9
REMARK    5  A    between atoms: C_11  and  C_12
REMARK    6  A    between atoms: C_12  and  C_13
REMARK    7  A    between atoms: C_16  and  C_18
REMARK                            x       y       z     vdW  Elec       q    Type
REMARK                         _______ _______ _______ _____ _____    ______ ____
ROOT
ATOM      9  C   UNL     1      -1.131  -0.462  25.028  0.00  0.00    +0.163 C 
ATOM     10  O   UNL     1      -1.910  -0.431  25.297  0.00  0.00    -0.354 OA
ATOM     11  C   UNL     1      -2.418  -1.067  25.165  0.00  0.00    +0.121 C 
ATOM     25  C   UNL     1      -2.147  -1.735  24.762  0.00  0.00    +0.033 C 
ATOM     26  C   UNL     1      -1.368  -1.766  24.492  0.00  0.00    +0.038 C 
ATOM     27  C   UNL     1      -0.860  -1.129  24.625  0.00  0.00    +0.180 C 
ATOM     28  O   UNL     1      -0.081  -1.160  24.355  0.00  0.00    -0.220 OA
ENDROOT
BRANCH   9   8
ATOM      8  C   UNL     1      -0.623   0.174  25.160  0.00  0.00    +0.121 C 
BRANCH   8   7
ATOM      7  N   UNL     1      -0.915   0.946  25.150  0.00  0.00    -0.211 NA
BRANCH   7   6
ATOM      6  C   UNL     1      -0.427   1.575  25.361  0.00  0.00    +0.115 C 
BRANCH   6   5
ATOM      1  C   UNL     1      -1.564   4.670  25.218  0.00  0.00    +0.031 C 
ATOM      2  C   UNL     1      -1.280   3.896  25.254  0.00  0.00    -0.022 A 
ATOM      3  C   UNL     1      -1.378   3.452  25.943  0.00  0.00    -0.005 A 
ATOM      4  C   UNL     1      -1.094   2.679  25.978  0.00  0.00    -0.003 A 
ATOM      5  C   UNL     1      -0.712   2.349  25.326  0.00  0.00    -0.005 A 
ATOM     29  C   UNL     1      -0.613   2.793  24.638  0.00  0.00    -0.003 A 
ATOM     30  C   UNL     1      -0.897   3.567  24.601  0.00  0.00    -0.005 A 
ENDBRANCH   6   5
ENDBRANCH   7   6
ENDBRANCH   8   7
ENDBRANCH   9   8
BRANCH  11  12
ATOM     12  C   UNL     1      -3.196  -1.037  25.434  0.00  0.00    +0.079 C 
BRANCH  12  13
ATOM     13  C   UNL     1      -3.725  -0.492  25.108  0.00  0.00    +0.103 A 
ATOM     14  N   UNL     1      -4.161  -0.596  24.417  0.00  0.00    -0.081 NA
ATOM     15  O   UNL     1      -4.615   0.083  24.298  0.00  0.00    -0.354 OA
ATOM     16  C   UNL     1      -4.459   0.606  24.917  0.00  0.00    +0.177 A 
ATOM     17  C   UNL     1      -3.908   0.250  25.418  0.00  0.00    +0.058 A 
BRANCH  16  18
ATOM     18  C   UNL     1      -4.794   1.353  25.017  0.00  0.00    +0.037 A 
ATOM     19  C   UNL     1      -4.475   2.004  24.625  0.00  0.00    +0.005 A 
ATOM     20  C   UNL     1      -4.810   2.752  24.725  0.00  0.00    +0.030 A 
ATOM     21  C   UNL     1      -5.465   2.847  25.218  0.00  0.00    +0.140 A 
ATOM     22  F   UNL     1      -5.801   3.594  25.318  0.00  0.00    -0.204 F 
ATOM     23  C   UNL     1      -5.784   2.195  25.610  0.00  0.00    +0.030 A 
ATOM     24  C   UNL     1      -5.449   1.448  25.510  0.00  0.00    +0.005 A 
ENDBRANCH  16  18
ENDBRANCH  12  13
ENDBRANCH  11  12
TORSDOF 7
ENDMDL
MODEL 2
REMARK VINA RESULT:     -12.4      1.997      3.905
REMARK  Name = 
REMARK  7 active torsions:
REMARK  status: ('A' for Active; 'I' for Inactive)
REMARK    1  A    between atoms: C_5  and  C_6
REMARK    2  A    between atoms: C_6  and  N_7
REMARK    3  A    between atoms: N_7  and  C_8
REMARK    4  A    between atoms: C_8  and  C_9
REMARK    5  A    between atoms: C_11  and  C_12
REMARK    6  A    between atoms: C_12  and  C_13
REMARK    7  A    between atoms: C_16  and  C_18
REMARK                            x       y       z     vdW  Elec       q    Type
REMARK                         _______ _______ _______ _____ _____    ______ ____
ROOT
ATOM      9  C   UNL     1      -2.688   3.230  25.023  0.00  0.00    +0.163 C 
ATOM     10  O   UNL     1      -3.219   2.691  24.694  0.00  0.00    -0.354 OA
ATOM     11  C   UNL     1      -4.031   2.803  24.785  0.00  0.00    +0.121 C 
ATOM     25  C   UNL     1      -4.312   3.455  25.205  0.00  0.00    +0.033 C 
ATOM     26  C   UNL     1      -3.782   3.995  25.534  0.00  0.00    +0.038 C 
ATOM     27  C   UNL     1      -2.969   3.882  25.443  0.00  0.00    +0.180 C 
ATOM     28  O   UNL     1      -2.439   4.422  25.772  0.00  0.00    -0.220 OA
ENDROOT
BRANCH   9   8
ATOM      8  C   UNL     1      -1.876   3.118  24.932  0.00  0.00    +0.121 C 
BRANCH   8   7
ATOM      7  N   UNL     1      -1.543   2.377  25.078  0.00  0.00    -0.211 NA
BRANCH   7   6
ATOM      6  C   UNL     1      -0.830   2.168  24.721  0.00  0.00    +0.115 C 
BRANCH   6   5
ATOM      1  C   UNL     1      -0.119  -1.009  24.181  0.00  0.00    +0.031 C 
ATOM      2  C   UNL     1      -0.297  -0.215  24.316  0.00  0.00    -0.022 A 
ATOM      3  C   UNL     1      -0.472   0.045  25.079  0.00  0.00    -0.005 A 
ATOM      4  C   UNL     1      -0.650   0.839  25.214  0.00  0.00    -0.003 A 
ATOM      5  C   UNL     1      -0.652   1.374  24.586  0.00  0.00    -0.005 A 
ATOM     29  C   UNL     1      -0.476   1.114  23.823  0.00  0.00    -0.003 A 
ATOM     30  C   UNL     1      -0.299   0.320  23.687  0.00  0.00    -0.005 A 
ENDBRANCH   6   5
ENDBRANCH   7   6
ENDBRANCH   8   7
ENDBRANCH   9   8
BRANCH  11  12
ATOM     12  C   UNL     1      -4.561   2.265  24.457  0.00  0.00    +0.079 C 
BRANCH  12  13
ATOM     13  C   UNL     1      -4.601   1.493  24.750  0.00  0.00    +0.103 A 
ATOM     14  N   UNL     1      -5.017   1.251  25.419  0.00  0.00    -0.081 NA
ATOM     15  O   UNL     1      -4.905   0.438  25.508  0.00  0.00    -0.354 OA
ATOM     16  C   UNL     1      -4.420   0.179  24.894  0.00  0.00    +0.177 A 
ATOM     17  C   UNL     1      -4.231   0.832  24.425  0.00  0.00    +0.058 A 
BRANCH  16  18
ATOM     18  C   UNL     1      -4.166  -0.597  24.770  0.00  0.00    +0.037 A 
ATOM     19  C   UNL     1      -4.249  -0.943  24.026  0.00  0.00    +0.005 A 
ATOM     20  C   UNL     1      -3.996  -1.719  23.902  0.00  0.00    +0.030 A 
ATOM     21  C   UNL     1      -3.660  -2.147  24.523  0.00  0.00    +0.140 A 
ATOM     22  F   UNL     1      -3.407  -2.923  24.399  0.00  0.00    -0.204 F 
ATOM     23  C   UNL     1      -3.578  -1.800  25.266  0.00  0.00    +0.030 A 
ATOM     24  C   UNL     1      -3.831  -1.024  25.390  0.00  0.00    +0.005 A 
ENDBRANCH  16  18
ENDBRANCH  12  13
ENDBRANCH  11  12
TORSDOF 7
ENDMDL
MODEL 3
REMARK VINA RESULT:     -12.4      1.465      3.670
REMARK  Name = 
REMARK  7 active torsions:
REMARK  status: ('A' for Active; 'I' for Inactive)
REMARK    1  A    between atoms: C_5  and  C_6
REMARK    2  A    between atoms: C_6  and  N_7
REMARK    3  A    between atoms: N_7  and  C_8
REMARK    4  A    between atoms: C_8  and  C_9
REMARK    5  A    between atoms: C_11  and  C_12
REMARK    6  A    between atoms: C_12  and  C_13
REMARK    7  A    between atoms: C_16  and  C_18
REMARK                            x       y       z     vdW  Elec       q    Type
REMARK                         _______ _______ _______ _____ _____    ______ ____
ROOT
ATOM      9  C   UNL     1      -0.594   1.731  25.196  0.00  0.00    +0.163 C 
ATOM     10  O   UNL     1      -1.187   2.205  25.521  0.00  0.00    -0.354 OA
ATOM     11  C   UNL     1      -1.211   3.011  25.350  0.00  0.00    +0.121 C 
ATOM     25  C   UNL     1      -0.642   3.345  24.855  0.00  0.00    +0.033 C 
ATOM     26  C   UNL     1      -0.049   2.872  24.530  0.00  0.00    +0.038 C 
ATOM     27  C   UNL     1      -0.025   2.065  24.701  0.00  0.00    +0.180 C 
ATOM     28  O   UNL     1       0.568   1.592  24.376  0.00  0.00    -0.220 OA
ENDROOT
BRANCH   9   8
ATOM      8  C   UNL     1      -0.571   0.925  25.367  0.00  0.00    +0.121 C 
BRANCH   8   7
ATOM      7  N   UNL     1      -1.243   0.459  25.258  0.00  0.00    -0.211 NA
BRANCH   7   6
ATOM      6  C   UNL     1      -1.283  -0.293  25.593  0.00  0.00    +0.115 C 
BRANCH   6   5
ATOM      1  C   UNL     1      -3.688  -2.372  24.705  0.00  0.00    +0.031 C 
ATOM      2  C   UNL     1      -3.087  -1.852  24.927  0.00  0.00    -0.022 A 
ATOM      3  C   UNL     1      -3.228  -1.283  25.508  0.00  0.00    -0.005 A 
ATOM      4  C   UNL     1      -2.626  -0.763  25.729  0.00  0.00    -0.003 A 
ATOM      5  C   UNL     1      -1.885  -0.812  25.371  0.00  0.00    -0.005 A 
ATOM     29  C   UNL     1      -1.745  -1.381  24.790  0.00  0.00    -0.003 A 
ATOM     30  C   UNL     1      -2.346  -1.901  24.568  0.00  0.00    -0.005 A 
ENDBRANCH   6   5
ENDBRANCH   7   6
ENDBRANCH   8   7
ENDBRANCH   9   8
BRANCH  11  12
ATOM     12  C   UNL     1      -1.803   3.484  25.675  0.00  0.00    +0.079 C 
BRANCH  12  13
ATOM     13  C   UNL     1      -2.561   3.479  25.346  0.00  0.00    +0.103 A 
ATOM     14  N   UNL     1      -2.835   3.983  24.755  0.00  0.00    -0.081 NA
ATOM     15  O   UNL     1      -3.621   3.785  24.596  0.00  0.00    -0.354 OA
ATOM     16  C   UNL     1      -3.831   3.158  25.090  0.00  0.00    +0.177 A 
ATOM     17  C   UNL     1      -3.175   2.969  25.554  0.00  0.00    +0.058 A 
BRANCH  16  18
ATOM     18  C   UNL     1      -4.567   2.786  25.115  0.00  0.00    +0.037 A 
ATOM     19  C   UNL     1      -4.687   2.082  24.703  0.00  0.00    +0.005 A 
ATOM     20  C   UNL     1      -5.424   1.710  24.728  0.00  0.00    +0.030 A 
ATOM     21  C   UNL     1      -6.039   2.044  25.166  0.00  0.00    +0.140 A 
ATOM     22  F   UNL     1      -6.776   1.672  25.191  0.00  0.00    -0.204 F 
ATOM     23  C   UNL     1      -5.918   2.748  25.577  0.00  0.00    +0.030 A 
ATOM     24  C   UNL     1      -5.182   3.120  25.552  0.00  0.00    +0.005 A 
ENDBRANCH  16  18
ENDBRANCH  12  13
ENDBRANCH  11  12
TORSDOF 7
ENDMDL
MODEL 4
REMARK VINA RESULT:     -12.4      1.390      3.627
REMARK  Name = 
REMARK  7 active torsions:
REMARK  status: ('A' for Active; 'I' for Inactive)
REMARK    1  A    between atoms: C_5  and  C_6
REMARK    2  A    between atoms: C_6  and  N_7
REMARK    3  A    between atoms: N_7  and  C_8
REMARK    4  A    between atoms: C_8  and  C_9
REMARK    5  A    between atoms: C_11  and  C_12
REMARK    6  A    between atoms: C_12  and  C_13
REMARK    7  A    between atoms: C_16  and  C_18
REMARK                            x       y       z     vdW  Elec       q    Type
REMARK                         _______ _______ _______ _____ _____    ______ ____
ROOT
ATOM      9  C   UNL     1      -3.585  -1.123  24.663  0.00  0.00    +0.163 C 
ATOM     10  O   UNL     1      -2.895  -0.888  25.048  0.00  0.00    -0.354 OA
ATOM     11  C   UNL     1      -2.248  -1.398  25.087  0.00  0.00    +0.121 C 
ATOM     25  C   UNL     1      -2.292  -2.145  24.740  0.00  0.00    +0.033 C 
ATOM     26  C   UNL     1      -2.982  -2.382  24.355  0.00  0.00    +0.038 C 
ATOM     27  C   UNL     1      -3.629  -1.871  24.316  0.00  0.00    +0.180 C 
ATOM     28  O   UNL     1      -4.319  -2.108  23.931  0.00  0.00    -0.220 OA
ENDROOT
BRANCH   9   8
ATOM      8  C   UNL     1      -4.231  -0.613  24.624  0.00  0.00    +0.121 C 
BRANCH   8   7
ATOM      7  N   UNL     1      -4.116   0.189  24.469  0.00  0.00    -0.211 NA
BRANCH   7   6
ATOM      6  C   UNL     1      -4.711   0.733  24.641  0.00  0.00    +0.115 C 
BRANCH   6   5
ATOM      1  C   UNL     1      -4.033   3.963  24.697  0.00  0.00    +0.031 C 
ATOM      2  C   UNL     1      -4.202   3.155  24.683  0.00  0.00    -0.022 A 
ATOM      3  C   UNL     1      -4.058   2.715  24.000  0.00  0.00    -0.005 A 
ATOM      4  C   UNL     1      -4.228   1.908  23.987  0.00  0.00    -0.003 A 
ATOM      5  C   UNL     1      -4.541   1.541  24.655  0.00  0.00    -0.005 A 
ATOM     29  C   UNL     1      -4.685   1.981  25.337  0.00  0.00    -0.003 A 
ATOM     30  C   UNL     1      -4.516   2.788  25.352  0.00  0.00    -0.005 A 
ENDBRANCH   6   5
ENDBRANCH   7   6
ENDBRANCH   8   7
ENDBRANCH   9   8
BRANCH  11  12
ATOM     12  C   UNL     1      -1.559  -1.162  25.471  0.00  0.00    +0.079 C 
BRANCH  12  13
ATOM     13  C   UNL     1      -1.143  -0.500  25.204  0.00  0.00    +0.103 A 
ATOM     14  N   UNL     1      -0.561  -0.498  24.620  0.00  0.00    -0.081 NA
ATOM     15  O   UNL     1      -0.294   0.278  24.529  0.00  0.00    -0.354 OA
ATOM     16  C   UNL     1      -0.713   0.754  25.057  0.00  0.00    +0.177 A 
ATOM     17  C   UNL     1      -1.237   0.273  25.475  0.00  0.00    +0.058 A 
BRANCH  16  18
ATOM     18  C   UNL     1      -0.622   1.569  25.151  0.00  0.00    +0.037 A 
ATOM     19  C   UNL     1      -0.507   2.050  24.491  0.00  0.00    +0.005 A 
ATOM     20  C   UNL     1      -0.417   2.865  24.585  0.00  0.00    +0.030 A 
ATOM     21  C   UNL     1      -0.441   3.198  25.341  0.00  0.00    +0.140 A 
ATOM     22  F   UNL     1      -0.350   4.013  25.435  0.00  0.00    -0.204 F 
ATOM     23  C   UNL     1      -0.555   2.717  26.000  0.00  0.00    +0.030 A 
ATOM     24  C   UNL     1      -0.646   1.902  25.906  0.00  0.00    +0.005 A 
ENDBRANCH  16  18
ENDBRANCH  12  13
ENDBRANCH  11  12
TORSDOF 7
ENDMDL
MODEL 5
REMARK VINA RESULT:     -12.3      1.803      4.140
REMARK  Name = 
REMARK  7 active torsions:
REMARK  status: ('A' for Active; 'I' for Inactive)
REMARK    1  A    between atoms: C_5  and  C_6
REMARK    2  A    between atoms: C_6  and  N_7
REMARK    3  A    between atoms: N_7  and  C_8
REMARK    4  A    between atoms: C_8  and  C_9
REMARK    5  A    between atoms: C_11  and  C_12
REMARK    6  A    between atoms: C_12  and  C_13
REMARK    7  A    between atoms: C_16  and  C_18
REMARK                            x       y       z     vdW  Elec       q    Type
REMARK                         _______ _______ _______ _____ _____    ______ ____
ROOT
ATOM      9  C   UNL     1      -1.437   2.758  25.052  0.00  0.00    +0.163 C 
ATOM     10  O   UNL     1      -1.334   1.978  24.803  0.00  0.00    -0.354 OA
ATOM     11  C   UNL     1      -0.650   1.565  25.007  0.00  0.00    +0.121 C 
ATOM     25  C   UNL     1      -0.067   1.933  25.460  0.00  0.00    +0.033 C 
ATOM     26  C   UNL     1      -0.168   2.712  25.710  0.00  0.00    +0.038 C 
ATOM     27  C   UNL     1      -0.853   3.125  25.506  0.00  0.00    +0.180 C 
ATOM     28  O   UNL     1      -0.955   3.904  25.755  0.00  0.00    -0.220 OA
ENDROOT
BRANCH   9   8
ATOM      8  C   UNL     1      -2.121   3.170  24.848  0.00  0.00    +0.121 C 
BRANCH   8   7
ATOM      7  N   UNL     1      -2.862   2.854  25.027  0.00  0.00    -0.211 NA
BRANCH   7   6
ATOM      6  C   UNL     1      -3.544   3.206  24.726  0.00  0.00    +0.115 C 
BRANCH   6   5
ATOM      1  C   UNL     1      -6.501   1.877  25.343  0.00  0.00    +0.031 C 
ATOM      2  C   UNL     1      -5.762   2.209  25.188  0.00  0.00    -0.022 A 
ATOM      3  C   UNL     1      -5.337   1.978  24.520  0.00  0.00    -0.005 A 
ATOM      4  C   UNL     1      -4.598   2.311  24.366  0.00  0.00    -0.003 A 
ATOM      5  C   UNL     1      -4.283   2.874  24.880  0.00  0.00    -0.005 A 
ATOM     29  C   UNL     1      -4.708   3.105  25.548  0.00  0.00    -0.003 A 
ATOM     30  C   UNL     1      -5.447   2.773  25.703  0.00  0.00    -0.005 A 
ENDBRANCH   6   5
ENDBRANCH   7   6
ENDBRANCH   8   7
ENDBRANCH   9   8
BRANCH  11  12
ATOM     12  C   UNL     1      -0.548   0.786  24.757  0.00  0.00    +0.079 C 
BRANCH  12  13
ATOM     13  C   UNL     1      -1.065   0.198  25.021  0.00  0.00    +0.103 A 
ATOM     14  N   UNL     1      -1.119  -0.089  25.792  0.00  0.00    -0.081 NA
ATOM     15  O   UNL     1      -1.704  -0.670  25.807  0.00  0.00    -0.354 OA
ATOM     16  C   UNL     1      -2.011  -0.743  25.044  0.00  0.00    +0.177 A 
ATOM     17  C   UNL     1      -1.615  -0.206  24.558  0.00  0.00    +0.058 A 
BRANCH  16  18
ATOM     18  C   UNL     1      -2.609  -1.261  24.809  0.00  0.00    +0.037 A 
ATOM     19  C   UNL     1      -3.372  -0.978  24.678  0.00  0.00    +0.005 A 
ATOM     20  C   UNL     1      -3.970  -1.496  24.443  0.00  0.00    +0.030 A 
ATOM     21  C   UNL     1      -3.803  -2.298  24.340  0.00  0.00    +0.140 A 
ATOM     22  F   UNL     1      -4.400  -2.817  24.105  0.00  0.00    -0.204 F 
ATOM     23  C   UNL     1      -3.040  -2.581  24.471  0.00  0.00    +0.030 A 
ATOM     24  C   UNL     1      -2.442  -2.062  24.706  0.00  0.00    +0.005 A 
ENDBRANCH  16  18
ENDBRANCH  12  13
ENDBRANCH  11  12
TORSDOF 7
ENDMDL
MODEL 6
REMARK VINA RESULT:     -12.1      2.086      5.239
REMARK  Name = 
REMARK  7 active torsions:
REMARK  status: ('A' for Active; 'I' for Inactive)
REMARK    1  A    between atoms: C_5  and  C_6
REMARK    2  A    between atoms: C_6  and  N_7
REMARK    3  A    between atoms: N_7  and  C_8
REMARK    4  A    between atoms: C_8  and  C_9
REMARK    5  A    between atoms: C_11  and  C_12
REMARK    6  A    between atoms: C_12  and  C_13
REMARK    7  A    between atoms: C_16  and  C_18
REMARK                            x       y       z     vdW  Elec       q    Type
REMARK                         _______ _______ _______ _____ _____    ______ ____
ROOT
ATOM      9  C   UNL     1      -4.352   2.500  25.164  0.00  0.00    +0.163 C 
ATOM     10  O   UNL     1      -3.588   2.597  24.868  0.00  0.00    -0.354 OA
ATOM     11  C   UNL     1      -3.163   3.282  25.040  0.00  0.00    +0.121 C 
ATOM     25  C   UNL     1      -3.502   3.872  25.507  0.00  0.00    +0.033 C 
ATOM     26  C   UNL     1      -4.265   3.776  25.803  0.00  0.00    +0.038 C 
ATOM     27  C   UNL     1      -4.691   3.089  25.631  0.00  0.00    +0.180 C 
ATOM     28  O   UNL     1      -5.455   2.994  25.928  0.00  0.00    -0.220 OA
ENDROOT
BRANCH   9   8
ATOM      8  C   UNL     1      -4.778   1.815  24.993  0.00  0.00    +0.121 C 
BRANCH   8   7
ATOM      7  N   UNL     1      -4.408   1.078  25.032  0.00  0.00    -0.211 NA
BRANCH   7   6
ATOM      6  C   UNL     1      -4.789   0.409  24.738  0.00  0.00    +0.115 C 
BRANCH   6   5
ATOM      1  C   UNL     1      -3.204  -2.484  24.642  0.00  0.00    +0.031 C 
ATOM      2  C   UNL     1      -3.600  -1.761  24.665  0.00  0.00    -0.022 A 
ATOM      3  C   UNL     1      -3.901  -1.432  23.971  0.00  0.00    -0.005 A 
ATOM      4  C   UNL     1      -4.297  -0.709  23.996  0.00  0.00    -0.003 A 
ATOM      5  C   UNL     1      -4.393  -0.315  24.714  0.00  0.00    -0.005 A 
ATOM     29  C   UNL     1      -4.092  -0.644  25.408  0.00  0.00    -0.003 A 
ATOM     30  C   UNL     1      -3.696  -1.367  25.384  0.00  0.00    -0.005 A 
ENDBRANCH   6   5
ENDBRANCH   7   6
ENDBRANCH   8   7
ENDBRANCH   9   8
BRANCH  11  12
ATOM     12  C   UNL     1      -2.399   3.379  24.744  0.00  0.00    +0.079 C 
BRANCH  12  13
ATOM     13  C   UNL     1      -1.817   2.818  24.914  0.00  0.00    +0.103 A 
ATOM     14  N   UNL     1      -1.324   2.817  25.574  0.00  0.00    -0.081 NA
ATOM     15  O   UNL     1      -0.829   2.159  25.522  0.00  0.00    -0.354 OA
ATOM     16  C   UNL     1      -1.016   1.754  24.828  0.00  0.00    +0.177 A 
ATOM     17  C   UNL     1      -1.628   2.161  24.452  0.00  0.00    +0.058 A 
BRANCH  16  18
ATOM     18  C   UNL     1      -0.656   1.062  24.558  0.00  0.00    +0.037 A 
ATOM     19  C   UNL     1      -0.293   1.049  23.817  0.00  0.00    +0.005 A 
ATOM     20  C   UNL     1       0.068   0.358  23.547  0.00  0.00    +0.030 A 
ATOM     21  C   UNL     1       0.065  -0.320  24.019  0.00  0.00    +0.140 A 
ATOM     22  F   UNL     1       0.426  -1.011  23.748  0.00  0.00    -0.204 F 
ATOM     23  C   UNL     1      -0.297  -0.306  24.759  0.00  0.00    +0.030 A 
ATOM     24  C   UNL     1      -0.658   0.386  25.029  0.00  0.00    +0.005 A 
ENDBRANCH  16  18
ENDBRANCH  12  13
ENDBRANCH  11  12
TORSDOF 7
ENDMDL
