MODEL 1
REMARK VINA RESULT:     -12.6      0.000      0.000
REMARK  Name = 
REMARK  6 active torsions:
REMARK  status: ('A' for Active; 'I' for Inactive)
REMARK    1  A    between atoms: C_5  and  C_6
REMARK    2  A    between atoms: C_6  and  C_7
REMARK    3  A    between atoms: C_10  and  C_12
REMARK    4  A    between atoms: C_19  and  C_20
REMARK    5  A    between atoms: C_20  and  N_21
REMARK    6  A    between atoms: N_21  and  C_22
REMARK                            x       y       z     vdW  Elec       q    Type
REMARK                         _______ _______ _______ _____ _____    ______ ____
ROOT
ATOM      1  O   UNL     1      -4.992   3.943  26.118  0.00  0.00    -0.220 OA
ATOM      2  C   UNL     1      -4.955   3.237  25.693  0.00  0.00    +0.180 C 
ATOM      3  C   UNL     1      -5.625   2.762  25.624  0.00  0.00    +0.038 C 
ATOM      4  C   UNL     1      -5.589   2.056  25.199  0.00  0.00    +0.033 C 
ATOM      5  C   UNL     1      -4.882   1.825  24.843  0.00  0.00    +0.121 C 
ATOM     18  O   UNL     1      -4.212   2.300  24.912  0.00  0.00    -0.354 OA
ATOM     19  C   UNL     1      -4.248   3.006  25.337  0.00  0.00    +0.163 C 
ENDROOT
BRANCH   5   6
ATOM      6  C   UNL     1      -4.845   1.119  24.418  0.00  0.00    +0.079 C 
BRANCH   6   7
ATOM      7  C   UNL     1      -4.512   0.447  24.762  0.00  0.00    +0.103 A 
ATOM      8  N   UNL     1      -4.649   0.175  25.528  0.00  0.00    -0.081 NA
ATOM      9  O   UNL     1      -4.204  -0.511  25.639  0.00  0.00    -0.354 OA
ATOM     10  C   UNL     1      -3.793  -0.663  24.942  0.00  0.00    +0.177 A 
ATOM     11  C   UNL     1      -3.983  -0.071  24.399  0.00  0.00    +0.058 A 
BRANCH  10  12
ATOM     12  C   UNL     1      -3.281  -1.296  24.809  0.00  0.00    +0.037 A 
ATOM     13  C   UNL     1      -3.585  -2.049  24.659  0.00  0.00    +0.003 A 
ATOM     14  C   UNL     1      -3.073  -2.681  24.527  0.00  0.00    +0.000 A 
ATOM     15  C   UNL     1      -2.257  -2.563  24.544  0.00  0.00    +0.000 A 
ATOM     16  C   UNL     1      -1.952  -1.811  24.694  0.00  0.00    +0.000 A 
ATOM     17  C   UNL     1      -2.464  -1.178  24.827  0.00  0.00    +0.003 A 
ENDBRANCH  10  12
ENDBRANCH   6   7
ENDBRANCH   5   6
BRANCH  19  20
ATOM     20  C   UNL     1      -3.577   3.481  25.406  0.00  0.00    +0.121 C 
BRANCH  20  21
ATOM     21  N   UNL     1      -2.982   3.439  24.837  0.00  0.00    -0.217 NA
BRANCH  21  22
ATOM     22  C   UNL     1      -2.256   3.811  24.970  0.00  0.00    +0.073 C 
ATOM     23  C   UNL     1      -1.579   3.358  25.101  0.00  0.00    +0.017 C 
ATOM     24  C   UNL     1      -0.854   3.729  25.233  0.00  0.00    +0.001 C 
ATOM     25  C   UNL     1      -0.807   4.553  25.236  0.00  0.00    +0.000 C 
ATOM     26  C   UNL     1      -1.485   5.005  25.105  0.00  0.00    +0.001 C 
ATOM     27  C   UNL     1      -2.209   4.634  24.972  0.00  0.00    +0.017 C 
ENDBRANCH  21  22
ENDBRANCH  20  21
ENDBRANCH  19  20
TORSDOF 6
ENDMDL
MODEL 2
REMARK VINA RESULT:     -12.3      1.082      4.428
REMARK  Name = 
REMARK  6 active torsions:
REMARK  status: ('A' for Active; 'I' for Inactive)
REMARK    1  A    between atoms: C_5  and  C_6
REMARK    2  A    between atoms: C_6  and  C_7
REMARK    3  A    between atoms: C_10  and  C_12
REMARK    4  A    between atoms: C_19  and  C_20
REMARK    5  A    between atoms: C_20  and  N_21
REMARK    6  A    between atoms: N_21  and  C_22
REMARK                            x       y       z     vdW  Elec       q    Type
REMARK                         _______ _______ _______ _____ _____    ______ ____
ROOT
ATOM      1  O   UNL     1      -6.299   1.331  25.781  0.00  0.00    -0.220 OA
ATOM      2  C   UNL     1      -5.730   1.864  25.510  0.00  0.00    +0.180 C 
ATOM      3  C   UNL     1      -5.850   2.675  25.595  0.00  0.00    +0.038 C 
ATOM      4  C   UNL     1      -5.282   3.208  25.325  0.00  0.00    +0.033 C 
ATOM      5  C   UNL     1      -4.593   2.929  24.968  0.00  0.00    +0.121 C 
ATOM     18  O   UNL     1      -4.472   2.118  24.883  0.00  0.00    -0.354 OA
ATOM     19  C   UNL     1      -5.040   1.585  25.153  0.00  0.00    +0.163 C 
ENDROOT
BRANCH   5   6
ATOM      6  C   UNL     1      -4.024   3.462  24.698  0.00  0.00    +0.079 C 
BRANCH   6   7
ATOM      7  C   UNL     1      -3.330   3.580  25.128  0.00  0.00    +0.103 A 
ATOM      8  N   UNL     1      -3.241   4.083  25.776  0.00  0.00    -0.081 NA
ATOM      9  O   UNL     1      -2.459   4.029  26.035  0.00  0.00    -0.354 OA
ATOM     10  C   UNL     1      -2.066   3.493  25.548  0.00  0.00    +0.177 A 
ATOM     11  C   UNL     1      -2.604   3.215  24.988  0.00  0.00    +0.058 A 
BRANCH  10  12
ATOM     12  C   UNL     1      -1.273   3.273  25.610  0.00  0.00    +0.037 A 
ATOM     13  C   UNL     1      -1.060   2.622  26.071  0.00  0.00    +0.003 A 
ATOM     14  C   UNL     1      -0.268   2.402  26.133  0.00  0.00    +0.000 A 
ATOM     15  C   UNL     1       0.312   2.831  25.734  0.00  0.00    +0.000 A 
ATOM     16  C   UNL     1       0.100   3.482  25.273  0.00  0.00    +0.000 A 
ATOM     17  C   UNL     1      -0.692   3.703  25.211  0.00  0.00    +0.003 A 
ENDBRANCH  10  12
ENDBRANCH   6   7
ENDBRANCH   5   6
BRANCH  19  20
ATOM     20  C   UNL     1      -4.919   0.773  25.067  0.00  0.00    +0.121 C 
BRANCH  20  21
ATOM     21  N   UNL     1      -4.223   0.495  24.725  0.00  0.00    -0.217 NA
BRANCH  21  22
ATOM     22  C   UNL     1      -4.063  -0.316  24.717  0.00  0.00    +0.073 C 
ATOM     23  C   UNL     1      -3.688  -0.668  25.361  0.00  0.00    +0.017 C 
ATOM     24  C   UNL     1      -3.528  -1.478  25.353  0.00  0.00    +0.001 C 
ATOM     25  C   UNL     1      -3.743  -1.934  24.699  0.00  0.00    +0.000 C 
ATOM     26  C   UNL     1      -4.118  -1.580  24.055  0.00  0.00    +0.001 C 
ATOM     27  C   UNL     1      -4.278  -0.771  24.064  0.00  0.00    +0.017 C 
ENDBRANCH  21  22
ENDBRANCH  20  21
ENDBRANCH  19  20
TORSDOF 6
ENDMDL
MODEL 3
REMARK VINA RESULT:     -11.9      1.474      3.099
REMARK  Name = 
REMARK  6 active torsions:
REMARK  status: ('A' for Active; 'I' for Inactive)
REMARK    1  A    between atoms: C_5  and  C_6
REMARK    2  A    between atoms: C_6  and  C_7
REMARK    3  A    between atoms: C_10  and  C_12
REMARK    4  A    between atoms: C_19  and  C_20
REMARK    5  A    between atoms: C_20  and  N_21
REMARK    6  A    between atoms: N_21  and  C_22
REMARK                            x       y       z     vdW  Elec       q    Type
REMARK                         _______ _______ _______ _____ _____    ______ ____
ROOT
ATOM      1  O   UNL     1      -1.766   4.208  25.748  0.00  0.00    -0.220 OA
ATOM      2  C   UNL     1      -1.563   3.472  25.434  0.00  0.00    +0.180 C 
ATOM      3  C   UNL     1      -0.770   3.256  25.369  0.00  0.00    +0.038 C 
ATOM      4  C   UNL     1      -0.566   2.521  25.055  0.00  0.00    +0.033 C 
ATOM      5  C   UNL     1      -1.157   2.003  24.805  0.00  0.00    +0.121 C 
ATOM     18  O   UNL     1      -1.949   2.219  24.869  0.00  0.00    -0.354 OA
ATOM     19  C   UNL     1      -2.153   2.953  25.183  0.00  0.00    +0.163 C 
ENDROOT
BRANCH   5   6
ATOM      6  C   UNL     1      -0.953   1.267  24.490  0.00  0.00    +0.079 C 
BRANCH   6   7
ATOM      7  C   UNL     1      -1.199   0.575  24.866  0.00  0.00    +0.103 A 
ATOM      8  N   UNL     1      -0.921   0.290  25.588  0.00  0.00    -0.081 NA
ATOM      9  O   UNL     1      -1.317  -0.415  25.754  0.00  0.00    -0.354 OA
ATOM     10  C   UNL     1      -1.839  -0.565  25.135  0.00  0.00    +0.177 A 
ATOM     11  C   UNL     1      -1.767   0.047  24.585  0.00  0.00    +0.058 A 
BRANCH  10  12
ATOM     12  C   UNL     1      -2.346  -1.213  25.074  0.00  0.00    +0.037 A 
ATOM     13  C   UNL     1      -2.110  -1.883  24.653  0.00  0.00    +0.003 A 
ATOM     14  C   UNL     1      -2.617  -2.531  24.593  0.00  0.00    +0.000 A 
ATOM     15  C   UNL     1      -3.359  -2.510  24.952  0.00  0.00    +0.000 A 
ATOM     16  C   UNL     1      -3.595  -1.841  25.373  0.00  0.00    +0.000 A 
ATOM     17  C   UNL     1      -3.088  -1.193  25.434  0.00  0.00    +0.003 A 
ENDBRANCH  10  12
ENDBRANCH   6   7
ENDBRANCH   5   6
BRANCH  19  20
ATOM     20  C   UNL     1      -2.947   3.170  25.248  0.00  0.00    +0.121 C 
BRANCH  20  21
ATOM     21  N   UNL     1      -3.499   2.875  24.711  0.00  0.00    -0.217 NA
BRANCH  21  22
ATOM     22  C   UNL     1      -4.287   2.781  24.939  0.00  0.00    +0.073 C 
ATOM     23  C   UNL     1      -4.683   2.077  24.770  0.00  0.00    +0.017 C 
ATOM     24  C   UNL     1      -5.470   1.982  24.998  0.00  0.00    +0.001 C 
ATOM     25  C   UNL     1      -5.862   2.592  25.395  0.00  0.00    +0.000 C 
ATOM     26  C   UNL     1      -5.465   3.295  25.562  0.00  0.00    +0.001 C 
ATOM     27  C   UNL     1      -4.677   3.389  25.335  0.00  0.00    +0.017 C 
ENDBRANCH  21  22
ENDBRANCH  20  21
ENDBRANCH  19  20
TORSDOF 6
ENDMDL
MODEL 4
REMARK VINA RESULT:     -11.8      1.702      5.281
REMARK  Name = 
REMARK  6 active torsions:
REMARK  status: ('A' for Active; 'I' for Inactive)
REMARK    1  A    between atoms: C_5  and  C_6
REMARK    2  A    between atoms: C_6  and  C_7
REMARK    3  A    between atoms: C_10  and  C_12
REMARK    4  A    between atoms: C_19  and  C_20
REMARK    5  A    between atoms: C_20  and  N_21
REMARK    6  A    between atoms: N_21  and  C_22
REMARK                            x       y       z     vdW  Elec       q    Type
REMARK                         _______ _______ _______ _____ _____    ______ ____
ROOT
ATOM      1  O   UNL     1      -0.129  -0.656  23.873  0.00  0.00    -0.220 OA
ATOM      2  C   UNL     1      -0.446   0.019  24.228  0.00  0.00    +0.180 C 
ATOM      3  C   UNL     1      -0.023   0.726  24.220  0.00  0.00    +0.038 C 
ATOM      4  C   UNL     1      -0.338   1.400  24.575  0.00  0.00    +0.033 C 
ATOM      5  C   UNL     1      -1.078   1.366  24.937  0.00  0.00    +0.121 C 
ATOM     18  O   UNL     1      -1.502   0.659  24.945  0.00  0.00    -0.354 OA
ATOM     19  C   UNL     1      -1.186  -0.015  24.591  0.00  0.00    +0.163 C 
ENDROOT
BRANCH   5   6
ATOM      6  C   UNL     1      -1.395   2.041  25.292  0.00  0.00    +0.079 C 
BRANCH   6   7
ATOM      7  C   UNL     1      -2.100   2.364  25.010  0.00  0.00    +0.103 A 
ATOM      8  N   UNL     1      -2.191   2.799  24.316  0.00  0.00    -0.081 NA
ATOM      9  O   UNL     1      -2.986   3.012  24.250  0.00  0.00    -0.354 OA
ATOM     10  C   UNL     1      -3.386   2.708  24.903  0.00  0.00    +0.177 A 
ATOM     11  C   UNL     1      -2.838   2.307  25.373  0.00  0.00    +0.058 A 
BRANCH  10  12
ATOM     12  C   UNL     1      -4.191   2.789  25.060  0.00  0.00    +0.037 A 
ATOM     13  C   UNL     1      -4.472   3.469  25.434  0.00  0.00    +0.003 A 
ATOM     14  C   UNL     1      -5.278   3.550  25.591  0.00  0.00    +0.000 A 
ATOM     15  C   UNL     1      -5.803   2.953  25.373  0.00  0.00    +0.000 A 
ATOM     16  C   UNL     1      -5.523   2.273  24.999  0.00  0.00    +0.000 A 
ATOM     17  C   UNL     1      -4.717   2.191  24.842  0.00  0.00    +0.003 A 
ENDBRANCH  10  12
ENDBRANCH   6   7
ENDBRANCH   5   6
BRANCH  19  20
ATOM     20  C   UNL     1      -1.610  -0.723  24.599  0.00  0.00    +0.121 C 
BRANCH  20  21
ATOM     21  N   UNL     1      -2.369  -0.745  24.920  0.00  0.00    -0.217 NA
BRANCH  21  22
ATOM     22  C   UNL     1      -2.895  -1.341  24.696  0.00  0.00    +0.073 C 
ATOM     23  C   UNL     1      -3.544  -1.160  24.220  0.00  0.00    +0.017 C 
ATOM     24  C   UNL     1      -4.069  -1.756  23.996  0.00  0.00    +0.001 C 
ATOM     25  C   UNL     1      -3.945  -2.532  24.248  0.00  0.00    +0.000 C 
ATOM     26  C   UNL     1      -3.296  -2.712  24.724  0.00  0.00    +0.001 C 
ATOM     27  C   UNL     1      -2.771  -2.116  24.948  0.00  0.00    +0.017 C 
ENDBRANCH  21  22
ENDBRANCH  20  21
ENDBRANCH  19  20
TORSDOF 6
ENDMDL
