MODEL 1
REMARK VINA RESULT:     -10.9      0.000      0.000
REMARK  Name = 
REMARK  3 active torsions:
REMARK  status: ('A' for Active; 'I' for Inactive)
REMARK    1  A    between atoms: C_6  and  C_9
REMARK    2  A    between atoms: C_18  and  N_26
REMARK    3  A    between atoms: C_27  and  C_29
REMARK                            x       y       z     vdW  Elec       q    Type
REMARK                         _______ _______ _______ _____ _____    ______ ____
ROOT
ATOM      9  C   UNL     1      -3.832   2.651  24.909  0.00  0.00    +0.002 A 
ATOM     10  C   UNL     1      -3.626   3.445  24.836  0.00  0.00    +0.001 A 
ATOM     11  C   UNL     1      -2.849   3.655  24.653  0.00  0.00    +0.017 A 
ATOM     12  C   UNL     1      -2.279   3.070  24.541  0.00  0.00    +0.078 A 
ATOM     13  N   UNL     1      -1.543   3.396  24.363  0.00  0.00    -0.178 NA
ATOM     14  C   UNL     1      -0.831   3.007  24.213  0.00  0.00    +0.264 C 
ATOM     15  O   UNL     1      -0.185   3.494  24.050  0.00  0.00    -0.271 OA
ATOM     16  C   UNL     1      -0.679   2.196  24.204  0.00  0.00    +0.156 C 
ATOM     17  C   UNL     1       0.112   2.039  24.029  0.00  0.00    +0.051 C 
ATOM     18  C   UNL     1       0.380   1.260  23.993  0.00  0.00    +0.100 C 
ATOM     19  C   UNL     1      -0.144   0.638  24.132  0.00  0.00    +0.043 C 
ATOM     20  C   UNL     1      -0.934   0.795  24.308  0.00  0.00    +0.096 C 
ATOM     21  N   UNL     1      -1.202   1.574  24.344  0.00  0.00    -0.269 N 
ATOM     22  C   UNL     1      -2.006   1.609  24.526  0.00  0.00    +0.251 C 
ATOM     23  O   UNL     1      -2.380   0.881  24.634  0.00  0.00    -0.270 OA
ATOM     24  C   UNL     1      -2.486   2.275  24.614  0.00  0.00    +0.069 A 
ATOM     25  C   UNL     1      -3.261   2.065  24.798  0.00  0.00    +0.006 A 
ENDROOT
BRANCH   9   6
ATOM      1  F   UNL     1      -6.938   1.810  25.645  0.00  0.00    -0.204 F 
ATOM      2  C   UNL     1      -6.161   2.020  25.461  0.00  0.00    +0.142 A 
ATOM      3  C   UNL     1      -5.718   2.469  25.994  0.00  0.00    +0.059 A 
ATOM      4  C   UNL     1      -4.941   2.679  25.809  0.00  0.00    +0.142 A 
ATOM      5  F   UNL     1      -4.498   3.127  26.341  0.00  0.00    -0.204 F 
ATOM      6  C   UNL     1      -4.608   2.440  25.093  0.00  0.00    +0.028 A 
ATOM      7  C   UNL     1      -5.052   1.992  24.561  0.00  0.00    +0.005 A 
ATOM      8  C   UNL     1      -5.828   1.782  24.745  0.00  0.00    +0.030 A 
ENDBRANCH   9   6
BRANCH  18  26
ATOM     26  N   UNL     1       1.170   1.103  23.818  0.00  0.00    -0.203 NA
ATOM     27  C   UNL     1       1.364   0.650  23.155  0.00  0.00    +0.271 C 
ATOM     28  O   UNL     1       0.767   0.354  22.669  0.00  0.00    -0.268 OA
BRANCH  27  29
ATOM     29  C   UNL     1       2.154   0.493  22.980  0.00  0.00    +0.084 A 
ATOM     30  C   UNL     1       2.782   1.023  23.053  0.00  0.00    +0.012 A 
ATOM     31  C   UNL     1       3.472   0.636  22.819  0.00  0.00    +0.008 A 
ATOM     32  C   UNL     1       3.271  -0.134  22.602  0.00  0.00    +0.036 A 
ATOM     33  S   UNL     1       2.456  -0.223  22.702  0.00  0.00    -0.082 S 
ENDBRANCH  27  29
ENDBRANCH  18  26
TORSDOF 3
ENDMDL
MODEL 2
REMARK VINA RESULT:     -10.6      1.408      2.187
REMARK  Name = 
REMARK  3 active torsions:
REMARK  status: ('A' for Active; 'I' for Inactive)
REMARK    1  A    between atoms: C_6  and  C_9
REMARK    2  A    between atoms: C_18  and  N_26
REMARK    3  A    between atoms: C_27  and  C_29
REMARK                            x       y       z     vdW  Elec       q    Type
REMARK                         _______ _______ _______ _____ _____    ______ ____
ROOT
ATOM      9  C   UNL     1      -3.668   0.633  25.004  0.00  0.00    +0.002 A 
ATOM     10  C   UNL     1      -3.609  -0.081  25.410  0.00  0.00    +0.001 A 
ATOM     11  C   UNL     1      -2.912  -0.522  25.372  0.00  0.00    +0.017 A 
ATOM     12  C   UNL     1      -2.275  -0.247  24.927  0.00  0.00    +0.078 A 
ATOM     13  N   UNL     1      -1.636  -0.767  24.962  0.00  0.00    -0.178 NA
ATOM     14  C   UNL     1      -0.898  -0.701  24.599  0.00  0.00    +0.264 C 
ATOM     15  O   UNL     1      -0.372  -1.320  24.743  0.00  0.00    -0.271 OA
ATOM     16  C   UNL     1      -0.616  -0.098  24.111  0.00  0.00    +0.156 C 
ATOM     17  C   UNL     1       0.156  -0.247  23.863  0.00  0.00    +0.051 C 
ATOM     18  C   UNL     1       0.541   0.290  23.369  0.00  0.00    +0.100 C 
ATOM     19  C   UNL     1       0.154   0.976  23.124  0.00  0.00    +0.043 C 
ATOM     20  C   UNL     1      -0.618   1.124  23.372  0.00  0.00    +0.096 C 
ATOM     21  N   UNL     1      -1.004   0.587  23.866  0.00  0.00    -0.269 N 
ATOM     22  C   UNL     1      -1.768   0.839  24.048  0.00  0.00    +0.251 C 
ATOM     23  O   UNL     1      -1.997   1.558  23.713  0.00  0.00    -0.270 OA
ATOM     24  C   UNL     1      -2.334   0.468  24.520  0.00  0.00    +0.069 A 
ATOM     25  C   UNL     1      -3.030   0.908  24.558  0.00  0.00    +0.006 A 
ENDROOT
BRANCH   9   6
ATOM      1  F   UNL     1      -6.455   2.395  25.156  0.00  0.00    -0.204 F 
ATOM      2  C   UNL     1      -5.758   1.955  25.118  0.00  0.00    +0.142 A 
ATOM      3  C   UNL     1      -5.748   1.232  24.720  0.00  0.00    +0.059 A 
ATOM      4  C   UNL     1      -5.051   0.792  24.682  0.00  0.00    +0.142 A 
ATOM      5  F   UNL     1      -5.041   0.069  24.284  0.00  0.00    -0.204 F 
ATOM      6  C   UNL     1      -4.364   1.074  25.042  0.00  0.00    +0.028 A 
ATOM      7  C   UNL     1      -4.375   1.797  25.440  0.00  0.00    +0.005 A 
ATOM      8  C   UNL     1      -5.072   2.237  25.478  0.00  0.00    +0.030 A 
ENDBRANCH   9   6
BRANCH  18  26
ATOM     26  N   UNL     1       1.314   0.142  23.121  0.00  0.00    -0.203 NA
ATOM     27  C   UNL     1       1.914   0.682  23.293  0.00  0.00    +0.271 C 
ATOM     28  O   UNL     1       1.740   1.371  23.712  0.00  0.00    -0.268 OA
BRANCH  27  29
ATOM     29  C   UNL     1       2.686   0.534  23.044  0.00  0.00    +0.084 A 
ATOM     30  C   UNL     1       3.215   1.091  22.747  0.00  0.00    +0.012 A 
ATOM     31  C   UNL     1       3.922   0.703  22.568  0.00  0.00    +0.008 A 
ATOM     32  C   UNL     1       3.829  -0.094  22.756  0.00  0.00    +0.036 A 
ATOM     33  S   UNL     1       3.065  -0.199  23.051  0.00  0.00    -0.082 S 
ENDBRANCH  27  29
ENDBRANCH  18  26
TORSDOF 3
ENDMDL
MODEL 3
REMARK VINA RESULT:     -10.2      2.893      6.486
REMARK  Name = 
REMARK  3 active torsions:
REMARK  status: ('A' for Active; 'I' for Inactive)
REMARK    1  A    between atoms: C_6  and  C_9
REMARK    2  A    between atoms: C_18  and  N_26
REMARK    3  A    between atoms: C_27  and  C_29
REMARK                            x       y       z     vdW  Elec       q    Type
REMARK                         _______ _______ _______ _____ _____    ______ ____
ROOT
ATOM      9  C   UNL     1       1.066   0.087  23.306  0.00  0.00    +0.002 A 
ATOM     10  C   UNL     1       0.822  -0.678  23.495  0.00  0.00    +0.001 A 
ATOM     11  C   UNL     1       0.091  -0.800  23.857  0.00  0.00    +0.017 A 
ATOM     12  C   UNL     1      -0.396  -0.158  24.031  0.00  0.00    +0.078 A 
ATOM     13  N   UNL     1      -1.098  -0.401  24.390  0.00  0.00    -0.178 NA
ATOM     14  C   UNL     1      -1.729   0.062  24.650  0.00  0.00    +0.264 C 
ATOM     15  O   UNL     1      -2.358  -0.349  24.990  0.00  0.00    -0.271 OA
ATOM     16  C   UNL     1      -1.816   0.882  24.614  0.00  0.00    +0.156 C 
ATOM     17  C   UNL     1      -2.535   1.124  24.936  0.00  0.00    +0.051 C 
ATOM     18  C   UNL     1      -2.730   1.926  24.954  0.00  0.00    +0.100 C 
ATOM     19  C   UNL     1      -2.206   2.484  24.650  0.00  0.00    +0.043 C 
ATOM     20  C   UNL     1      -1.486   2.242  24.327  0.00  0.00    +0.096 C 
ATOM     21  N   UNL     1      -1.291   1.441  24.309  0.00  0.00    -0.269 N 
ATOM     22  C   UNL     1      -0.551   1.319  23.966  0.00  0.00    +0.251 C 
ATOM     23  O   UNL     1      -0.157   1.998  23.712  0.00  0.00    -0.270 OA
ATOM     24  C   UNL     1      -0.153   0.606  23.841  0.00  0.00    +0.069 A 
ATOM     25  C   UNL     1       0.578   0.729  23.479  0.00  0.00    +0.006 A 
ENDROOT
BRANCH   9   6
ATOM      1  F   UNL     1       3.989   0.578  21.855  0.00  0.00    -0.204 F 
ATOM      2  C   UNL     1       3.258   0.456  22.218  0.00  0.00    +0.142 A 
ATOM      3  C   UNL     1       2.647   0.090  21.800  0.00  0.00    +0.059 A 
ATOM      4  C   UNL     1       1.916  -0.033  22.163  0.00  0.00    +0.142 A 
ATOM      5  F   UNL     1       1.305  -0.398  21.747  0.00  0.00    -0.204 F 
ATOM      6  C   UNL     1       1.796   0.210  22.944  0.00  0.00    +0.028 A 
ATOM      7  C   UNL     1       2.408   0.575  23.360  0.00  0.00    +0.005 A 
ATOM      8  C   UNL     1       3.139   0.698  22.997  0.00  0.00    +0.030 A 
ENDBRANCH   9   6
BRANCH  18  26
ATOM     26  N   UNL     1      -3.450   2.168  25.277  0.00  0.00    -0.203 NA
ATOM     27  C   UNL     1      -4.056   2.431  24.782  0.00  0.00    +0.271 C 
ATOM     28  O   UNL     1      -3.942   2.452  23.965  0.00  0.00    -0.268 OA
BRANCH  27  29
ATOM     29  C   UNL     1      -4.775   2.673  25.105  0.00  0.00    +0.084 A 
ATOM     30  C   UNL     1      -5.434   2.195  25.236  0.00  0.00    +0.012 A 
ATOM     31  C   UNL     1      -6.028   2.662  25.565  0.00  0.00    +0.008 A 
ATOM     32  C   UNL     1      -5.738   3.431  25.637  0.00  0.00    +0.036 A 
ATOM     33  S   UNL     1      -4.963   3.438  25.352  0.00  0.00    -0.082 S 
ENDBRANCH  27  29
ENDBRANCH  18  26
TORSDOF 3
ENDMDL
MODEL 4
REMARK VINA RESULT:      -9.9      3.306      4.734
REMARK  Name = 
REMARK  3 active torsions:
REMARK  status: ('A' for Active; 'I' for Inactive)
REMARK    1  A    between atoms: C_6  and  C_9
REMARK    2  A    between atoms: C_18  and  N_26
REMARK    3  A    between atoms: C_27  and  C_29
REMARK                            x       y       z     vdW  Elec       q    Type
REMARK                         _______ _______ _______ _____ _____    ______ ____
ROOT
ATOM      9  C   UNL     1      -1.190   3.588  25.305  0.00  0.00    +0.002 A 
ATOM     10  C   UNL     1      -0.605   3.300  25.809  0.00  0.00    +0.001 A 
ATOM     11  C   UNL     1      -0.519   2.487  25.919  0.00  0.00    +0.017 A 
ATOM     12  C   UNL     1      -1.017   1.962  25.524  0.00  0.00    +0.078 A 
ATOM     13  N   UNL     1      -0.838   1.178  25.710  0.00  0.00    -0.178 NA
ATOM     14  C   UNL     1      -1.200   0.489  25.437  0.00  0.00    +0.264 C 
ATOM     15  O   UNL     1      -0.891  -0.217  25.729  0.00  0.00    -0.271 OA
ATOM     16  C   UNL     1      -1.831   0.413  24.910  0.00  0.00    +0.156 C 
ATOM     17  C   UNL     1      -2.025  -0.378  24.784  0.00  0.00    +0.051 C 
ATOM     18  C   UNL     1      -2.643  -0.576  24.274  0.00  0.00    +0.100 C 
ATOM     19  C   UNL     1      -3.066   0.019  23.891  0.00  0.00    +0.043 C 
ATOM     20  C   UNL     1      -2.873   0.811  24.017  0.00  0.00    +0.096 C 
ATOM     21  N   UNL     1      -2.255   1.008  24.527  0.00  0.00    -0.269 N 
ATOM     22  C   UNL     1      -2.154   1.825  24.575  0.00  0.00    +0.251 C 
ATOM     23  O   UNL     1      -2.671   2.278  24.120  0.00  0.00    -0.270 OA
ATOM     24  C   UNL     1      -1.602   2.250  25.019  0.00  0.00    +0.069 A 
ATOM     25  C   UNL     1      -1.689   3.062  24.910  0.00  0.00    +0.006 A 
ENDROOT
BRANCH   9   6
ATOM      1  F   UNL     1      -1.537   6.840  24.864  0.00  0.00    -0.204 F 
ATOM      2  C   UNL     1      -1.451   6.027  24.975  0.00  0.00    +0.142 A 
ATOM      3  C   UNL     1      -0.808   5.631  24.639  0.00  0.00    +0.059 A 
ATOM      4  C   UNL     1      -0.722   4.818  24.749  0.00  0.00    +0.142 A 
ATOM      5  F   UNL     1      -0.081   4.422  24.414  0.00  0.00    -0.204 F 
ATOM      6  C   UNL     1      -1.277   4.400  25.195  0.00  0.00    +0.028 A 
ATOM      7  C   UNL     1      -1.919   4.797  25.530  0.00  0.00    +0.005 A 
ATOM      8  C   UNL     1      -2.005   5.610  25.420  0.00  0.00    +0.030 A 
ENDBRANCH   9   6
BRANCH  18  26
ATOM     26  N   UNL     1      -2.836  -1.367  24.147  0.00  0.00    -0.203 NA
ATOM     27  C   UNL     1      -3.553  -1.667  24.428  0.00  0.00    +0.271 C 
ATOM     28  O   UNL     1      -4.075  -1.175  24.834  0.00  0.00    -0.268 OA
BRANCH  27  29
ATOM     29  C   UNL     1      -3.746  -2.459  24.301  0.00  0.00    +0.084 A 
ATOM     30  C   UNL     1      -4.319  -2.741  23.780  0.00  0.00    +0.012 A 
ATOM     31  C   UNL     1      -4.328  -3.564  23.830  0.00  0.00    +0.008 A 
ATOM     32  C   UNL     1      -3.760  -3.792  24.382  0.00  0.00    +0.036 A 
ATOM     33  S   UNL     1      -3.400  -3.108  24.674  0.00  0.00    -0.082 S 
ENDBRANCH  27  29
ENDBRANCH  18  26
TORSDOF 3
ENDMDL
MODEL 5
REMARK VINA RESULT:      -9.7      3.226      4.704
REMARK  Name = 
REMARK  3 active torsions:
REMARK  status: ('A' for Active; 'I' for Inactive)
REMARK    1  A    between atoms: C_6  and  C_9
REMARK    2  A    between atoms: C_18  and  N_26
REMARK    3  A    between atoms: C_27  and  C_29
REMARK                            x       y       z     vdW  Elec       q    Type
REMARK                         _______ _______ _______ _____ _____    ______ ____
ROOT
ATOM      9  C   UNL     1      -3.987  -1.127  24.508  0.00  0.00    +0.002 A 
ATOM     10  C   UNL     1      -4.737  -0.834  24.687  0.00  0.00    +0.001 A 
ATOM     11  C   UNL     1      -4.857  -0.020  24.753  0.00  0.00    +0.017 A 
ATOM     12  C   UNL     1      -4.227   0.500  24.642  0.00  0.00    +0.078 A 
ATOM     13  N   UNL     1      -4.465   1.285  24.733  0.00  0.00    -0.178 NA
ATOM     14  C   UNL     1      -4.011   1.970  24.668  0.00  0.00    +0.264 C 
ATOM     15  O   UNL     1      -4.414   2.679  24.792  0.00  0.00    -0.271 OA
ATOM     16  C   UNL     1      -3.207   2.041  24.496  0.00  0.00    +0.156 C 
ATOM     17  C   UNL     1      -2.969   2.831  24.483  0.00  0.00    +0.051 C 
ATOM     18  C   UNL     1      -2.183   3.023  24.321  0.00  0.00    +0.100 C 
ATOM     19  C   UNL     1      -1.636   2.425  24.171  0.00  0.00    +0.043 C 
ATOM     20  C   UNL     1      -1.873   1.635  24.184  0.00  0.00    +0.096 C 
ATOM     21  N   UNL     1      -2.659   1.443  24.346  0.00  0.00    -0.269 N 
ATOM     22  C   UNL     1      -2.779   0.627  24.331  0.00  0.00    +0.251 C 
ATOM     23  O   UNL     1      -2.113   0.170  24.163  0.00  0.00    -0.270 OA
ATOM     24  C   UNL     1      -3.477   0.207  24.463  0.00  0.00    +0.069 A 
ATOM     25  C   UNL     1      -3.357  -0.606  24.396  0.00  0.00    +0.006 A 
ENDROOT
BRANCH   9   6
ATOM      1  F   UNL     1      -3.505  -4.381  24.238  0.00  0.00    -0.204 F 
ATOM      2  C   UNL     1      -3.626  -3.567  24.306  0.00  0.00    +0.142 A 
ATOM      3  C   UNL     1      -3.966  -3.147  23.682  0.00  0.00    +0.059 A 
ATOM      4  C   UNL     1      -4.087  -2.334  23.750  0.00  0.00    +0.142 A 
ATOM      5  F   UNL     1      -4.427  -1.914  23.127  0.00  0.00    -0.204 F 
ATOM      6  C   UNL     1      -3.867  -1.940  24.441  0.00  0.00    +0.028 A 
ATOM      7  C   UNL     1      -3.526  -2.360  25.064  0.00  0.00    +0.005 A 
ATOM      8  C   UNL     1      -3.406  -3.174  24.997  0.00  0.00    +0.030 A 
ENDBRANCH   9   6
BRANCH  18  26
ATOM     26  N   UNL     1      -1.946   3.813  24.309  0.00  0.00    -0.203 NA
ATOM     27  C   UNL     1      -1.532   4.129  24.949  0.00  0.00    +0.271 C 
ATOM     28  O   UNL     1      -1.355   3.656  25.601  0.00  0.00    -0.268 OA
BRANCH  27  29
ATOM     29  C   UNL     1      -1.294   4.919  24.936  0.00  0.00    +0.084 A 
ATOM     30  C   UNL     1      -1.748   5.566  25.171  0.00  0.00    +0.012 A 
ATOM     31  C   UNL     1      -1.295   6.248  25.067  0.00  0.00    +0.008 A 
ATOM     32  C   UNL     1      -0.561   6.022  24.768  0.00  0.00    +0.036 A 
ATOM     33  S   UNL     1      -0.560   5.201  24.687  0.00  0.00    -0.082 S 
ENDBRANCH  27  29
ENDBRANCH  18  26
TORSDOF 3
ENDMDL
MODEL 6
REMARK VINA RESULT:      -9.3     15.933     17.217
REMARK  Name = 
REMARK  3 active torsions:
REMARK  status: ('A' for Active; 'I' for Inactive)
REMARK    1  A    between atoms: C_6  and  C_9
REMARK    2  A    between atoms: C_18  and  N_26
REMARK    3  A    between atoms: C_27  and  C_29
REMARK                            x       y       z     vdW  Elec       q    Type
REMARK                         _______ _______ _______ _____ _____    ______ ____
ROOT
ATOM      9  C   UNL     1      -3.880  -9.905  11.350  0.00  0.00    +0.002 A 
ATOM     10  C   UNL     1      -3.108 -10.060  11.597  0.00  0.00    +0.001 A 
ATOM     11  C   UNL     1      -2.957 -10.247  12.386  0.00  0.00    +0.017 A 
ATOM     12  C   UNL     1      -3.577 -10.279  12.929  0.00  0.00    +0.078 A 
ATOM     13  N   UNL     1      -3.307 -10.474  13.683  0.00  0.00    -0.178 NA
ATOM     14  C   UNL     1      -3.743 -10.564  14.378  0.00  0.00    +0.264 C 
ATOM     15  O   UNL     1      -3.309 -10.763  15.050  0.00  0.00    -0.271 OA
ATOM     16  C   UNL     1      -4.556 -10.480  14.490  0.00  0.00    +0.156 C 
ATOM     17  C   UNL     1      -4.769 -10.617  15.275  0.00  0.00    +0.051 C 
ATOM     18  C   UNL     1      -5.559 -10.561  15.505  0.00  0.00    +0.100 C 
ATOM     19  C   UNL     1      -6.137 -10.367  14.949  0.00  0.00    +0.043 C 
ATOM     20  C   UNL     1      -5.925 -10.229  14.164  0.00  0.00    +0.096 C 
ATOM     21  N   UNL     1      -5.134 -10.285  13.934  0.00  0.00    -0.269 N 
ATOM     22  C   UNL     1      -5.042 -10.128  13.130  0.00  0.00    +0.251 C 
ATOM     23  O   UNL     1      -5.734  -9.949  12.718  0.00  0.00    -0.270 OA
ATOM     24  C   UNL     1      -4.349 -10.125  12.682  0.00  0.00    +0.069 A 
ATOM     25  C   UNL     1      -4.500  -9.938  11.893  0.00  0.00    +0.006 A 
ENDROOT
BRANCH   9   6
ATOM      1  F   UNL     1      -4.487  -9.156   8.194  0.00  0.00    -0.204 F 
ATOM      2  C   UNL     1      -4.335  -9.344   8.983  0.00  0.00    +0.142 A 
ATOM      3  C   UNL     1      -4.124  -8.749   9.515  0.00  0.00    +0.059 A 
ATOM      4  C   UNL     1      -3.973  -8.936  10.304  0.00  0.00    +0.142 A 
ATOM      5  F   UNL     1      -3.762  -8.343  10.836  0.00  0.00    -0.204 F 
ATOM      6  C   UNL     1      -4.031  -9.719  10.562  0.00  0.00    +0.028 A 
ATOM      7  C   UNL     1      -4.242 -10.313  10.029  0.00  0.00    +0.005 A 
ATOM      8  C   UNL     1      -4.394 -10.125   9.240  0.00  0.00    +0.030 A 
ENDBRANCH   9   6
BRANCH  18  26
ATOM     26  N   UNL     1      -5.772 -10.699  16.289  0.00  0.00    -0.203 NA
ATOM     27  C   UNL     1      -6.047 -10.077  16.758  0.00  0.00    +0.271 C 
ATOM     28  O   UNL     1      -6.109  -9.318  16.441  0.00  0.00    -0.268 OA
BRANCH  27  29
ATOM     29  C   UNL     1      -6.259 -10.215  17.543  0.00  0.00    +0.084 A 
ATOM     30  C   UNL     1      -5.767 -10.515  18.133  0.00  0.00    +0.012 A 
ATOM     31  C   UNL     1      -6.205 -10.562  18.831  0.00  0.00    +0.008 A 
ATOM     32  C   UNL     1      -6.968 -10.292  18.672  0.00  0.00    +0.036 A 
ATOM     33  S   UNL     1      -7.001 -10.077  17.876  0.00  0.00    -0.082 S 
ENDBRANCH  27  29
ENDBRANCH  18  26
TORSDOF 3
ENDMDL
MODEL 7
REMARK VINA RESULT:      -7.4     16.641     17.456
REMARK  Name = 
REMARK  3 active torsions:
REMARK  status: ('A' for Active; 'I' for Inactive)
REMARK    1  A    between atoms: C_6  and  C_9
REMARK    2  A    between atoms: C_18  and  N_26
REMARK    3  A    between atoms: C_27  and  C_29
REMARK                            x       y       z     vdW  Elec       q    Type
REMARK                         _______ _______ _______ _____ _____    ______ ____
ROOT
ATOM      9  C   UNL     1      -6.273  -9.031  10.222  0.00  0.00    +0.002 A 
ATOM     10  C   UNL     1      -5.542  -9.299   9.952  0.00  0.00    +0.001 A 
ATOM     11  C   UNL     1      -5.012  -9.652  10.477  0.00  0.00    +0.017 A 
ATOM     12  C   UNL     1      -5.214  -9.736  11.272  0.00  0.00    +0.078 A 
ATOM     13  N   UNL     1      -4.609 -10.101  11.699  0.00  0.00    -0.178 NA
ATOM     14  C   UNL     1      -4.587 -10.288  12.502  0.00  0.00    +0.264 C 
ATOM     15  O   UNL     1      -3.898 -10.655  12.766  0.00  0.00    -0.271 OA
ATOM     16  C   UNL     1      -5.165 -10.156  13.077  0.00  0.00    +0.156 C 
ATOM     17  C   UNL     1      -4.921 -10.427  13.817  0.00  0.00    +0.051 C 
ATOM     18  C   UNL     1      -5.419 -10.348  14.470  0.00  0.00    +0.100 C 
ATOM     19  C   UNL     1      -6.160  -9.997  14.383  0.00  0.00    +0.043 C 
ATOM     20  C   UNL     1      -6.404  -9.725  13.643  0.00  0.00    +0.096 C 
ATOM     21  N   UNL     1      -5.906  -9.804  12.990  0.00  0.00    -0.269 N 
ATOM     22  C   UNL     1      -6.253  -9.499  12.307  0.00  0.00    +0.251 C 
ATOM     23  O   UNL     1      -7.009  -9.181  12.402  0.00  0.00    -0.270 OA
ATOM     24  C   UNL     1      -5.945  -9.468  11.542  0.00  0.00    +0.069 A 
ATOM     25  C   UNL     1      -6.475  -9.116  11.018  0.00  0.00    +0.006 A 
ENDROOT
BRANCH   9   6
ATOM      1  F   UNL     1      -8.393  -7.618   8.124  0.00  0.00    -0.204 F 
ATOM      2  C   UNL     1      -7.863  -7.971   8.648  0.00  0.00    +0.142 A 
ATOM      3  C   UNL     1      -7.167  -7.580   8.857  0.00  0.00    +0.059 A 
ATOM      4  C   UNL     1      -6.637  -7.934   9.382  0.00  0.00    +0.142 A 
ATOM      5  F   UNL     1      -5.941  -7.543   9.591  0.00  0.00    -0.204 F 
ATOM      6  C   UNL     1      -6.803  -8.678   9.698  0.00  0.00    +0.028 A 
ATOM      7  C   UNL     1      -7.499  -9.068   9.489  0.00  0.00    +0.005 A 
ATOM      8  C   UNL     1      -8.029  -8.715   8.964  0.00  0.00    +0.030 A 
ENDBRANCH   9   6
BRANCH  18  26
ATOM     26  N   UNL     1      -5.176 -10.620  15.210  0.00  0.00    -0.203 NA
ATOM     27  C   UNL     1      -5.094 -10.091  15.838  0.00  0.00    +0.271 C 
ATOM     28  O   UNL     1      -5.256  -9.289  15.725  0.00  0.00    -0.268 OA
BRANCH  27  29
ATOM     29  C   UNL     1      -4.851 -10.362  16.577  0.00  0.00    +0.084 A 
ATOM     30  C   UNL     1      -4.074 -10.523  16.804  0.00  0.00    +0.012 A 
ATOM     31  C   UNL     1      -4.084 -10.781  17.587  0.00  0.00    +0.008 A 
ATOM     32  C   UNL     1      -4.868 -10.780  17.845  0.00  0.00    +0.036 A 
ATOM     33  S   UNL     1      -5.341 -10.521  17.221  0.00  0.00    -0.082 S 
ENDBRANCH  27  29
ENDBRANCH  18  26
TORSDOF 3
ENDMDL
