MODEL 1
REMARK VINA RESULT:     -12.0      0.000      0.000
REMARK  Name = 
REMARK  5 active torsions:
REMARK  status: ('A' for Active; 'I' for Inactive)
REMARK    1  A    between atoms: C_2  and  N_4
REMARK    2  A    between atoms: C_5  and  C_7
REMARK    3  A    between atoms: C_14  and  C_15
REMARK    4  A    between atoms: C_15  and  N_16
REMARK    5  A    between atoms: C_18  and  C_21
REMARK                            x       y       z     vdW  Elec       q    Type
REMARK                         _______ _______ _______ _____ _____    ______ ____
ROOT
ATOM      7  C   UNL     1      -2.765   3.475  24.958  0.00  0.00    +0.094 C 
ATOM      8  C   UNL     1      -2.622   3.071  24.308  0.00  0.00    +0.081 C 
ATOM      9  N   UNL     1      -3.295   3.009  24.783  0.00  0.00    -0.272 NA
ATOM     10  C   UNL     1      -3.177   3.685  25.576  0.00  0.00    +0.072 C 
ATOM     11  C   UNL     1      -3.400   3.961  26.124  0.00  0.00    +0.018 C 
ATOM     12  C   UNL     1      -3.427   3.408  25.418  0.00  0.00    +0.013 C 
ATOM     13  C   UNL     1      -4.143   2.906  25.349  0.00  0.00    +0.019 C 
ATOM     14  C   UNL     1      -4.042   2.490  24.717  0.00  0.00    +0.082 C 
ENDROOT
BRANCH   7   5
ATOM      4  N   UNL     1      -1.713   4.388  24.638  0.00  0.00    -0.207 NA
ATOM      5  C   UNL     1      -2.191   4.018  25.198  0.00  0.00    +0.242 C 
ATOM      6  O   UNL     1      -2.097   4.190  26.000  0.00  0.00    -0.273 OA
BRANCH   4   2
ATOM      1  C   UNL     1      -0.363   4.684  25.000  0.00  0.00    +0.023 C 
ATOM      2  C   UNL     1      -1.141   4.931  24.879  0.00  0.00    +0.095 C 
ATOM      3  C   UNL     1      -1.345   5.721  24.999  0.00  0.00    +0.023 C 
ENDBRANCH   4   2
ENDBRANCH   7   5
BRANCH  14  15
ATOM     15  C   UNL     1      -4.399   1.911  24.251  0.00  0.00    +0.145 C 
BRANCH  15  16
ATOM     16  N   UNL     1      -4.481   1.142  24.537  0.00  0.00    -0.229 N 
ATOM     17  C   UNL     1      -4.085   0.475  24.256  0.00  0.00    +0.118 A 
ATOM     18  C   UNL     1      -4.333  -0.174  24.701  0.00  0.00    +0.123 A 
ATOM     19  N   UNL     1      -4.883   0.092  25.256  0.00  0.00    -0.129 NA
ATOM     20  N   UNL     1      -4.974   0.905  25.154  0.00  0.00    -0.064 NA
BRANCH  18  21
ATOM     21  C   UNL     1      -4.077  -0.953  24.607  0.00  0.00    +0.021 A 
ATOM     22  C   UNL     1      -3.552  -1.284  25.152  0.00  0.00    +0.004 A 
ATOM     23  C   UNL     1      -3.296  -2.062  25.058  0.00  0.00    +0.030 A 
ATOM     24  C   UNL     1      -3.564  -2.509  24.418  0.00  0.00    +0.140 A 
ATOM     25  F   UNL     1      -3.308  -3.288  24.324  0.00  0.00    -0.204 F 
ATOM     26  C   UNL     1      -4.088  -2.179  23.874  0.00  0.00    +0.030 A 
ATOM     27  C   UNL     1      -4.344  -1.401  23.968  0.00  0.00    +0.004 A 
ENDBRANCH  18  21
ENDBRANCH  15  16
ENDBRANCH  14  15
TORSDOF 5
ENDMDL
MODEL 2
REMARK VINA RESULT:     -11.8      2.832      5.907
REMARK  Name = 
REMARK  5 active torsions:
REMARK  status: ('A' for Active; 'I' for Inactive)
REMARK    1  A    between atoms: C_2  and  N_4
REMARK    2  A    between atoms: C_5  and  C_7
REMARK    3  A    between atoms: C_14  and  C_15
REMARK    4  A    between atoms: C_15  and  N_16
REMARK    5  A    between atoms: C_18  and  C_21
REMARK                            x       y       z     vdW  Elec       q    Type
REMARK                         _______ _______ _______ _____ _____    ______ ____
ROOT
ATOM      7  C   UNL     1      -2.387  -0.743  24.859  0.00  0.00    +0.094 C 
ATOM      8  C   UNL     1      -2.199  -0.390  24.192  0.00  0.00    +0.081 C 
ATOM      9  N   UNL     1      -1.833  -0.276  24.924  0.00  0.00    -0.272 NA
ATOM     10  C   UNL     1      -2.320  -0.898  25.613  0.00  0.00    +0.072 C 
ATOM     11  C   UNL     1      -2.388  -1.130  26.220  0.00  0.00    +0.018 C 
ATOM     12  C   UNL     1      -2.023  -0.627  25.573  0.00  0.00    +0.013 C 
ATOM     13  C   UNL     1      -1.356  -0.111  25.816  0.00  0.00    +0.019 C 
ATOM     14  C   UNL     1      -1.140   0.257  25.183  0.00  0.00    +0.082 C 
ENDROOT
BRANCH   7   5
ATOM      4  N   UNL     1      -3.092  -1.794  24.196  0.00  0.00    -0.207 NA
ATOM      5  C   UNL     1      -3.011  -1.284  24.838  0.00  0.00    +0.242 C 
ATOM      6  O   UNL     1      -3.553  -1.313  25.459  0.00  0.00    -0.273 OA
BRANCH   4   2
ATOM      1  C   UNL     1      -4.444  -2.111  23.860  0.00  0.00    +0.023 C 
ATOM      2  C   UNL     1      -3.715  -2.334  24.174  0.00  0.00    +0.095 C 
ATOM      3  C   UNL     1      -3.610  -3.098  24.468  0.00  0.00    +0.023 C 
ENDBRANCH   4   2
ENDBRANCH   7   5
BRANCH  14  15
ATOM     15  C   UNL     1      -0.599   0.811  24.901  0.00  0.00    +0.145 C 
BRANCH  15  16
ATOM     16  N   UNL     1      -0.571   1.567  25.231  0.00  0.00    -0.229 N 
ATOM     17  C   UNL     1      -0.933   2.243  24.926  0.00  0.00    +0.118 A 
ATOM     18  C   UNL     1      -0.761   2.873  25.431  0.00  0.00    +0.123 A 
ATOM     19  N   UNL     1      -0.295   2.585  26.048  0.00  0.00    -0.129 NA
ATOM     20  N   UNL     1      -0.177   1.779  25.924  0.00  0.00    -0.064 NA
BRANCH  18  21
ATOM     21  C   UNL     1      -1.013   3.653  25.336  0.00  0.00    +0.021 A 
ATOM     22  C   UNL     1      -1.744   3.890  25.637  0.00  0.00    +0.004 A 
ATOM     23  C   UNL     1      -1.996   4.670  25.542  0.00  0.00    +0.030 A 
ATOM     24  C   UNL     1      -1.517   5.212  25.145  0.00  0.00    +0.140 A 
ATOM     25  F   UNL     1      -1.768   5.991  25.050  0.00  0.00    -0.204 F 
ATOM     26  C   UNL     1      -0.787   4.975  24.844  0.00  0.00    +0.030 A 
ATOM     27  C   UNL     1      -0.535   4.195  24.940  0.00  0.00    +0.004 A 
ENDBRANCH  18  21
ENDBRANCH  15  16
ENDBRANCH  14  15
TORSDOF 5
ENDMDL
MODEL 3
REMARK VINA RESULT:     -11.7      2.329      5.459
REMARK  Name = 
REMARK  5 active torsions:
REMARK  status: ('A' for Active; 'I' for Inactive)
REMARK    1  A    between atoms: C_2  and  N_4
REMARK    2  A    between atoms: C_5  and  C_7
REMARK    3  A    between atoms: C_14  and  C_15
REMARK    4  A    between atoms: C_15  and  N_16
REMARK    5  A    between atoms: C_18  and  C_21
REMARK                            x       y       z     vdW  Elec       q    Type
REMARK                         _______ _______ _______ _____ _____    ______ ____
ROOT
ATOM      7  C   UNL     1      -3.773  -0.488  24.609  0.00  0.00    +0.094 C 
ATOM      8  C   UNL     1      -3.706  -0.178  23.899  0.00  0.00    +0.081 C 
ATOM      9  N   UNL     1      -3.896   0.228  24.592  0.00  0.00    -0.272 NA
ATOM     10  C   UNL     1      -3.906  -0.475  25.370  0.00  0.00    +0.072 C 
ATOM     11  C   UNL     1      -3.989  -0.623  26.001  0.00  0.00    +0.018 C 
ATOM     12  C   UNL     1      -3.961  -0.084  25.285  0.00  0.00    +0.013 C 
ATOM     13  C   UNL     1      -4.135   0.764  25.434  0.00  0.00    +0.019 C 
ATOM     14  C   UNL     1      -4.079   1.107  24.754  0.00  0.00    +0.082 C 
ENDROOT
BRANCH   7   5
ATOM      4  N   UNL     1      -3.178  -1.694  24.124  0.00  0.00    -0.207 NA
ATOM      5  C   UNL     1      -3.642  -1.301  24.681  0.00  0.00    +0.242 C 
ATOM      6  O   UNL     1      -3.976  -1.719  25.309  0.00  0.00    -0.273 OA
BRANCH   4   2
ATOM      1  C   UNL     1      -2.311  -2.785  24.440  0.00  0.00    +0.023 C 
ATOM      2  C   UNL     1      -3.048  -2.505  24.195  0.00  0.00    +0.095 C 
ATOM      3  C   UNL     1      -3.653  -3.038  24.022  0.00  0.00    +0.023 C 
ENDBRANCH   4   2
ENDBRANCH   7   5
BRANCH  14  15
ATOM     15  C   UNL     1      -4.145   1.841  24.385  0.00  0.00    +0.145 C 
BRANCH  15  16
ATOM     16  N   UNL     1      -3.802   2.509  24.728  0.00  0.00    -0.229 N 
ATOM     17  C   UNL     1      -3.061   2.821  24.545  0.00  0.00    +0.118 A 
ATOM     18  C   UNL     1      -2.942   3.487  25.019  0.00  0.00    +0.123 A 
ATOM     19  N   UNL     1      -3.609   3.584  25.494  0.00  0.00    -0.129 NA
ATOM     20  N   UNL     1      -4.140   2.980  25.314  0.00  0.00    -0.064 NA
BRANCH  18  21
ATOM     21  C   UNL     1      -2.273   3.969  25.017  0.00  0.00    +0.021 A 
ATOM     22  C   UNL     1      -1.524   3.637  24.910  0.00  0.00    +0.004 A 
ATOM     23  C   UNL     1      -0.855   4.119  24.909  0.00  0.00    +0.030 A 
ATOM     24  C   UNL     1      -0.934   4.934  25.014  0.00  0.00    +0.140 A 
ATOM     25  F   UNL     1      -0.265   5.416  25.012  0.00  0.00    -0.204 F 
ATOM     26  C   UNL     1      -1.682   5.265  25.121  0.00  0.00    +0.030 A 
ATOM     27  C   UNL     1      -2.351   4.783  25.122  0.00  0.00    +0.004 A 
ENDBRANCH  18  21
ENDBRANCH  15  16
ENDBRANCH  14  15
TORSDOF 5
ENDMDL
MODEL 4
REMARK VINA RESULT:     -11.6      2.207      2.558
REMARK  Name = 
REMARK  5 active torsions:
REMARK  status: ('A' for Active; 'I' for Inactive)
REMARK    1  A    between atoms: C_2  and  N_4
REMARK    2  A    between atoms: C_5  and  C_7
REMARK    3  A    between atoms: C_14  and  C_15
REMARK    4  A    between atoms: C_15  and  N_16
REMARK    5  A    between atoms: C_18  and  C_21
REMARK                            x       y       z     vdW  Elec       q    Type
REMARK                         _______ _______ _______ _____ _____    ______ ____
ROOT
ATOM      7  C   UNL     1      -0.645   2.532  25.049  0.00  0.00    +0.094 C 
ATOM      8  C   UNL     1      -0.692   2.317  24.303  0.00  0.00    +0.081 C 
ATOM      9  N   UNL     1      -0.603   1.813  24.951  0.00  0.00    -0.272 NA
ATOM     10  C   UNL     1      -0.574   2.414  25.809  0.00  0.00    +0.072 C 
ATOM     11  C   UNL     1      -0.524   2.477  26.457  0.00  0.00    +0.018 C 
ATOM     12  C   UNL     1      -0.558   2.031  25.680  0.00  0.00    +0.013 C 
ATOM     13  C   UNL     1      -0.493   1.158  25.732  0.00  0.00    +0.019 C 
ATOM     14  C   UNL     1      -0.535   0.905  25.013  0.00  0.00    +0.082 C 
ENDROOT
BRANCH   7   5
ATOM      4  N   UNL     1      -1.206   3.820  24.789  0.00  0.00    -0.207 NA
ATOM      5  C   UNL     1      -0.687   3.340  25.213  0.00  0.00    +0.242 C 
ATOM      6  O   UNL     1      -0.210   3.667  25.801  0.00  0.00    -0.273 OA
BRANCH   4   2
ATOM      1  C   UNL     1      -0.659   5.136  24.678  0.00  0.00    +0.023 C 
ATOM      2  C   UNL     1      -1.248   4.627  24.952  0.00  0.00    +0.095 C 
ATOM      3  C   UNL     1      -1.879   4.928  25.390  0.00  0.00    +0.023 C 
ENDBRANCH   4   2
ENDBRANCH   7   5
BRANCH  14  15
ATOM     15  C   UNL     1      -0.526   0.216  24.560  0.00  0.00    +0.145 C 
BRANCH  15  16
ATOM     16  N   UNL     1      -1.041  -0.403  24.738  0.00  0.00    -0.229 N 
ATOM     17  C   UNL     1      -1.745  -0.576  24.345  0.00  0.00    +0.118 A 
ATOM     18  C   UNL     1      -2.081  -1.239  24.705  0.00  0.00    +0.123 A 
ATOM     19  N   UNL     1      -1.584  -1.473  25.320  0.00  0.00    -0.129 NA
ATOM     20  N   UNL     1      -0.942  -0.957  25.341  0.00  0.00    -0.064 NA
BRANCH  18  21
ATOM     21  C   UNL     1      -2.789  -1.601  24.488  0.00  0.00    +0.021 A 
ATOM     22  C   UNL     1      -2.854  -2.424  24.503  0.00  0.00    +0.004 A 
ATOM     23  C   UNL     1      -3.562  -2.787  24.286  0.00  0.00    +0.030 A 
ATOM     24  C   UNL     1      -4.206  -2.326  24.053  0.00  0.00    +0.140 A 
ATOM     25  F   UNL     1      -4.914  -2.689  23.835  0.00  0.00    -0.204 F 
ATOM     26  C   UNL     1      -4.141  -1.505  24.037  0.00  0.00    +0.030 A 
ATOM     27  C   UNL     1      -3.433  -1.142  24.255  0.00  0.00    +0.004 A 
ENDBRANCH  18  21
ENDBRANCH  15  16
ENDBRANCH  14  15
TORSDOF 5
ENDMDL
MODEL 5
REMARK VINA RESULT:      -8.2     15.978     18.749
REMARK  Name = 
REMARK  5 active torsions:
REMARK  status: ('A' for Active; 'I' for Inactive)
REMARK    1  A    between atoms: C_2  and  N_4
REMARK    2  A    between atoms: C_5  and  C_7
REMARK    3  A    between atoms: C_14  and  C_15
REMARK    4  A    between atoms: C_15  and  N_16
REMARK    5  A    between atoms: C_18  and  C_21
REMARK                            x       y       z     vdW  Elec       q    Type
REMARK                         _______ _______ _______ _____ _____    ______ ____
ROOT
ATOM      7  C   UNL     1      14.949   7.213  19.245  0.00  0.00    +0.094 C 
ATOM      8  C   UNL     1      14.518   6.566  19.278  0.00  0.00    +0.081 C 
ATOM      9  N   UNL     1      14.245   7.324  19.098  0.00  0.00    -0.272 NA
ATOM     10  C   UNL     1      15.072   7.967  19.137  0.00  0.00    +0.072 C 
ATOM     11  C   UNL     1      15.330   8.565  19.081  0.00  0.00    +0.018 C 
ATOM     12  C   UNL     1      14.674   7.953  19.068  0.00  0.00    +0.013 C 
ATOM     13  C   UNL     1      13.873   8.252  18.871  0.00  0.00    +0.019 C 
ATOM     14  C   UNL     1      13.415   7.641  18.893  0.00  0.00    +0.082 C 
ENDROOT
BRANCH   7   5
ATOM      4  N   UNL     1      16.085   6.391  19.521  0.00  0.00    -0.207 NA
ATOM      5  C   UNL     1      15.756   7.138  19.405  0.00  0.00    +0.242 C 
ATOM      6  O   UNL     1      16.232   7.811  19.447  0.00  0.00    -0.273 OA
BRANCH   4   2
ATOM      1  C   UNL     1      17.184   6.509  20.427  0.00  0.00    +0.023 C 
ATOM      2  C   UNL     1      16.891   6.317  19.680  0.00  0.00    +0.095 C 
ATOM      3  C   UNL     1      17.405   6.049  19.093  0.00  0.00    +0.023 C 
ENDBRANCH   4   2
ENDBRANCH   7   5
BRANCH  14  15
ATOM     15  C   UNL     1      12.631   7.407  18.791  0.00  0.00    +0.145 C 
BRANCH  15  16
ATOM     16  N   UNL     1      12.035   7.751  19.246  0.00  0.00    -0.229 N 
ATOM     17  C   UNL     1      11.945   7.676  20.063  0.00  0.00    +0.118 A 
ATOM     18  C   UNL     1      11.278   8.109  20.285  0.00  0.00    +0.123 A 
ATOM     19  N   UNL     1      10.957   8.450  19.606  0.00  0.00    -0.129 NA
ATOM     20  N   UNL     1      11.425   8.229  18.964  0.00  0.00    -0.064 NA
BRANCH  18  21
ATOM     21  C   UNL     1      10.984   8.186  21.052  0.00  0.00    +0.021 A 
ATOM     22  C   UNL     1      10.696   7.524  21.453  0.00  0.00    +0.004 A 
ATOM     23  C   UNL     1      10.403   7.602  22.220  0.00  0.00    +0.030 A 
ATOM     24  C   UNL     1      10.397   8.341  22.586  0.00  0.00    +0.140 A 
ATOM     25  F   UNL     1      10.104   8.418  23.353  0.00  0.00    -0.204 F 
ATOM     26  C   UNL     1      10.685   9.002  22.186  0.00  0.00    +0.030 A 
ATOM     27  C   UNL     1      10.979   8.925  21.419  0.00  0.00    +0.004 A 
ENDBRANCH  18  21
ENDBRANCH  15  16
ENDBRANCH  14  15
TORSDOF 5
ENDMDL
