REMARK  Name = 
REMARK  5 active torsions:
REMARK  status: ('A' for Active; 'I' for Inactive)
REMARK    1  A    between atoms: O_2  and  C_3
REMARK    2  A    between atoms: C_6  and  C_9
REMARK    3  A    between atoms: C_12  and  C_14
REMARK    4  A    between atoms: N_19  and  C_20
REMARK    5  A    between atoms: C_20  and  C_21
REMARK                            x       y       z     vdW  Elec       q    Type
REMARK                         _______ _______ _______ _____ _____    ______ ____
ROOT
ATOM      9  C   UNL     1       0.892   1.387   0.000  0.00  0.00    +0.203 A 
ATOM     10  N   UNL     1       0.085   1.558   0.000  0.00  0.00    -0.056 NA
ATOM     11  O   UNL     1      -0.001   2.379   0.000  0.00  0.00    -0.336 OA
ATOM     12  C   UNL     1       0.753   2.715   0.000  0.00  0.00    +0.251 A 
ATOM     13  N   UNL     1       1.305   2.101   0.000  0.00  0.00    -0.190 NA
ENDROOT
BRANCH   9   6
ATOM      3  C   UNL     1       1.899  -0.874   0.000  0.00  0.00    +0.139 A 
ATOM      4  C   UNL     1       1.079  -0.788   0.000  0.00  0.00    +0.037 A 
ATOM      5  C   UNL     1       0.743  -0.034   0.000  0.00  0.00    +0.006 A 
ATOM      6  C   UNL     1       1.228   0.633   0.000  0.00  0.00    +0.039 A 
ATOM      7  C   UNL     1       2.048   0.547   0.000  0.00  0.00    +0.006 A 
ATOM      8  C   UNL     1       2.384  -0.207   0.000  0.00  0.00    +0.037 A 
BRANCH   3   2
ATOM      1  C   UNL     1       3.055  -1.714   0.000  0.00  0.00    +0.252 C 
ATOM      2  O   UNL     1       2.235  -1.628   0.000  0.00  0.00    -0.471 OA
ENDBRANCH   3   2
ENDBRANCH   9   6
BRANCH  12  14
ATOM     14  C   UNL     1       0.924   3.522   0.000  0.00  0.00    +0.140 C 
ATOM     15  C   UNL     1       0.372   4.135   0.000  0.00  0.00    +0.060 C 
ATOM     16  C   UNL     1       0.785   4.849   0.000  0.00  0.00    +0.170 C 
ATOM     17  O   UNL     1       0.449   5.603   0.000  0.00  0.00    -0.222 OA
ATOM     18  C   UNL     1       1.592   4.678   0.000  0.00  0.00    +0.106 C 
ATOM     19  N   UNL     1       1.678   3.857   0.000  0.00  0.00    -0.264 NA
BRANCH  19  20
ATOM     20  C   UNL     1       2.393   3.445   0.000  0.00  0.00    +0.073 C 
BRANCH  20  21
ATOM     21  C   UNL     1       2.393   2.619   0.000  0.00  0.00    +0.016 C 
ATOM     22  C   UNL     1       2.805   1.905   0.000  0.00  0.00    +0.001 C 
ATOM     23  C   UNL     1       1.980   1.905   0.000  0.00  0.00    +0.001 C 
ENDBRANCH  20  21
ENDBRANCH  19  20
ENDBRANCH  12  14
TORSDOF 5
