MODEL 1
REMARK VINA RESULT:     -16.2      0.000      0.000
REMARK  Name = 
REMARK  4 active torsions:
REMARK  status: ('A' for Active; 'I' for Inactive)
REMARK    1  A    between atoms: C_2  and  C_4
REMARK    2  A    between atoms: C_7  and  N_8
REMARK    3  A    between atoms: C_20  and  N_21
REMARK    4  A    between atoms: C_22  and  C_24
REMARK                            x       y       z     vdW  Elec       q    Type
REMARK                         _______ _______ _______ _____ _____    ______ ____
ROOT
ATOM      8  N   UNL     1      -4.071   0.920  24.920  0.00  0.00    -0.162 NA
ATOM      9  C   UNL     1      -4.841   1.216  24.946  0.00  0.00    +0.327 C 
ATOM     10  O   UNL     1      -5.482   0.698  24.945  0.00  0.00    -0.250 OA
ATOM     11  N   UNL     1      -4.969   2.031  24.971  0.00  0.00    -0.262 N 
ATOM     12  C   UNL     1      -5.388   2.753  25.001  0.00  0.00    +0.097 C 
ATOM     13  C   UNL     1      -4.628   3.385  25.002  0.00  0.00    +0.043 C 
ATOM     14  C   UNL     1      -4.124   4.025  25.009  0.00  0.00    +0.011 C 
ATOM     15  C   UNL     1      -4.074   3.325  24.988  0.00  0.00    +0.058 C 
ATOM     16  C   UNL     1      -4.819   2.727  24.987  0.00  0.00    +0.101 C 
ATOM     17  C   UNL     1      -3.454   2.647  24.955  0.00  0.00    +0.041 A 
ATOM     18  C   UNL     1      -2.639   2.525  24.934  0.00  0.00    +0.014 A 
ATOM     19  C   UNL     1      -2.337   1.758  24.906  0.00  0.00    +0.023 A 
ATOM     20  C   UNL     1      -2.851   1.112  24.899  0.00  0.00    +0.130 A 
ATOM     29  C   UNL     1      -3.667   1.234  24.920  0.00  0.00    +0.276 A 
ATOM     30  O   UNL     1      -3.703   0.411  24.898  0.00  0.00    -0.266 OA
ATOM     31  N   UNL     1      -3.968   2.002  24.948  0.00  0.00    -0.298 N 
ATOM     32  C   UNL     1      -3.988   2.670  24.968  0.00  0.00    +0.110 C 
ENDROOT
BRANCH   8   7
ATOM      4  C   UNL     1      -3.688  -1.524  24.842  0.00  0.00    +0.035 A 
ATOM      5  C   UNL     1      -3.782  -1.099  24.141  0.00  0.00    +0.004 A 
ATOM      6  C   UNL     1      -3.909  -0.284  24.167  0.00  0.00    +0.017 A 
ATOM      7  C   UNL     1      -3.943   0.106  24.895  0.00  0.00    +0.075 A 
ATOM     33  C   UNL     1      -3.849  -0.320  25.594  0.00  0.00    +0.017 A 
ATOM     34  C   UNL     1      -3.722  -1.135  25.569  0.00  0.00    +0.004 A 
BRANCH   4   2
ATOM      1  C   UNL     1      -3.625  -2.743  24.100  0.00  0.00    +0.077 C 
ATOM      2  C   UNL     1      -3.561  -2.339  24.815  0.00  0.00    +0.173 C 
ATOM      3  O   UNL     1      -3.369  -2.748  25.505  0.00  0.00    -0.291 OA
ENDBRANCH   4   2
ENDBRANCH   8   7
BRANCH  20  21
ATOM     21  N   UNL     1      -2.549   0.346  24.871  0.00  0.00    -0.168 NA
ATOM     22  C   UNL     1      -1.734   0.223  24.860  0.00  0.00    +0.304 C 
ATOM     23  O   UNL     1      -1.219   0.869  24.878  0.00  0.00    -0.265 OA
BRANCH  22  24
ATOM     24  C   UNL     1      -1.431  -0.545  24.832  0.00  0.00    +0.201 A 
ATOM     25  C   UNL     1      -1.163  -0.983  25.477  0.00  0.00    +0.046 A 
ATOM     26  C   UNL     1      -0.910  -1.718  25.197  0.00  0.00    +0.044 A 
ATOM     27  C   UNL     1      -1.024  -1.733  24.380  0.00  0.00    +0.180 A 
ATOM     28  O   UNL     1      -1.346  -1.007  24.155  0.00  0.00    -0.446 OA
ENDBRANCH  22  24
ENDBRANCH  20  21
TORSDOF 4
ENDMDL
MODEL 2
REMARK VINA RESULT:     -16.1      1.174      4.446
REMARK  Name = 
REMARK  4 active torsions:
REMARK  status: ('A' for Active; 'I' for Inactive)
REMARK    1  A    between atoms: C_2  and  C_4
REMARK    2  A    between atoms: C_7  and  N_8
REMARK    3  A    between atoms: C_20  and  N_21
REMARK    4  A    between atoms: C_22  and  C_24
REMARK                            x       y       z     vdW  Elec       q    Type
REMARK                         _______ _______ _______ _____ _____    ______ ____
ROOT
ATOM      8  N   UNL     1      -2.210  -0.147  24.608  0.00  0.00    -0.162 NA
ATOM      9  C   UNL     1      -1.694  -0.791  24.612  0.00  0.00    +0.327 C 
ATOM     10  O   UNL     1      -0.880  -0.667  24.659  0.00  0.00    -0.250 OA
ATOM     11  N   UNL     1      -1.992  -1.559  24.570  0.00  0.00    -0.262 N 
ATOM     12  C   UNL     1      -1.994  -2.394  24.541  0.00  0.00    +0.097 C 
ATOM     13  C   UNL     1      -2.967  -2.557  24.484  0.00  0.00    +0.043 C 
ATOM     14  C   UNL     1      -3.723  -2.854  24.435  0.00  0.00    +0.011 C 
ATOM     15  C   UNL     1      -3.415  -2.225  24.473  0.00  0.00    +0.058 C 
ATOM     16  C   UNL     1      -2.472  -2.084  24.527  0.00  0.00    +0.101 C 
ATOM     17  C   UNL     1      -3.609  -1.327  24.494  0.00  0.00    +0.041 A 
ATOM     18  C   UNL     1      -4.252  -0.810  24.479  0.00  0.00    +0.014 A 
ATOM     19  C   UNL     1      -4.127   0.004  24.514  0.00  0.00    +0.023 A 
ATOM     20  C   UNL     1      -3.359   0.302  24.564  0.00  0.00    +0.130 A 
ATOM     29  C   UNL     1      -2.716  -0.214  24.580  0.00  0.00    +0.276 A 
ATOM     30  O   UNL     1      -2.272   0.478  24.627  0.00  0.00    -0.266 OA
ATOM     31  N   UNL     1      -2.841  -1.029  24.545  0.00  0.00    -0.298 N 
ATOM     32  C   UNL     1      -3.160  -1.616  24.507  0.00  0.00    +0.110 C 
ENDROOT
BRANCH   8   7
ATOM      4  C   UNL     1      -1.313   2.156  24.737  0.00  0.00    +0.035 A 
ATOM      5  C   UNL     1      -1.489   1.743  25.429  0.00  0.00    +0.004 A 
ATOM      6  C   UNL     1      -1.789   0.975  25.386  0.00  0.00    +0.017 A 
ATOM      7  C   UNL     1      -1.911   0.621  24.651  0.00  0.00    +0.075 A 
ATOM     33  C   UNL     1      -1.735   1.035  23.960  0.00  0.00    +0.017 A 
ATOM     34  C   UNL     1      -1.436   1.802  24.002  0.00  0.00    +0.004 A 
BRANCH   4   2
ATOM      1  C   UNL     1      -0.815   3.249  25.512  0.00  0.00    +0.077 C 
ATOM      2  C   UNL     1      -1.014   2.924  24.781  0.00  0.00    +0.173 C 
ATOM      3  O   UNL     1      -0.915   3.367  24.092  0.00  0.00    -0.291 OA
ENDBRANCH   4   2
ENDBRANCH   8   7
BRANCH  20  21
ATOM     21  N   UNL     1      -3.235   1.117  24.599  0.00  0.00    -0.168 NA
ATOM     22  C   UNL     1      -3.878   1.633  24.587  0.00  0.00    +0.304 C 
ATOM     23  O   UNL     1      -4.646   1.335  24.539  0.00  0.00    -0.265 OA
BRANCH  22  24
ATOM     24  C   UNL     1      -3.753   2.449  24.622  0.00  0.00    +0.201 A 
ATOM     25  C   UNL     1      -3.730   2.964  23.978  0.00  0.00    +0.046 A 
ATOM     26  C   UNL     1      -3.592   3.725  24.265  0.00  0.00    +0.044 A 
ATOM     27  C   UNL     1      -3.530   3.680  25.086  0.00  0.00    +0.180 A 
ATOM     28  O   UNL     1      -3.630   2.891  25.306  0.00  0.00    -0.446 OA
ENDBRANCH  22  24
ENDBRANCH  20  21
TORSDOF 4
ENDMDL
MODEL 3
REMARK VINA RESULT:     -15.4      1.207      3.934
REMARK  Name = 
REMARK  4 active torsions:
REMARK  status: ('A' for Active; 'I' for Inactive)
REMARK    1  A    between atoms: C_2  and  C_4
REMARK    2  A    between atoms: C_7  and  N_8
REMARK    3  A    between atoms: C_20  and  N_21
REMARK    4  A    between atoms: C_22  and  C_24
REMARK                            x       y       z     vdW  Elec       q    Type
REMARK                         _______ _______ _______ _____ _____    ______ ____
ROOT
ATOM      8  N   UNL     1      -3.418   0.045  24.460  0.00  0.00    -0.162 NA
ATOM      9  C   UNL     1      -4.022  -0.480  24.257  0.00  0.00    +0.327 C 
ATOM     10  O   UNL     1      -4.763  -0.191  24.038  0.00  0.00    -0.250 OA
ATOM     11  N   UNL     1      -3.885  -1.294  24.273  0.00  0.00    -0.262 N 
ATOM     12  C   UNL     1      -4.039  -2.111  24.200  0.00  0.00    +0.097 C 
ATOM     13  C   UNL     1      -3.156  -2.470  24.460  0.00  0.00    +0.043 C 
ATOM     14  C   UNL     1      -2.501  -2.917  24.648  0.00  0.00    +0.011 C 
ATOM     15  C   UNL     1      -2.674  -2.238  24.617  0.00  0.00    +0.058 C 
ATOM     16  C   UNL     1      -3.532  -1.906  24.362  0.00  0.00    +0.101 C 
ATOM     17  C   UNL     1      -2.324  -1.398  24.751  0.00  0.00    +0.041 A 
ATOM     18  C   UNL     1      -1.625  -1.025  24.979  0.00  0.00    +0.014 A 
ATOM     19  C   UNL     1      -1.591  -0.201  25.016  0.00  0.00    +0.023 A 
ATOM     20  C   UNL     1      -2.256   0.248  24.825  0.00  0.00    +0.130 A 
ATOM     29  C   UNL     1      -2.955  -0.125  24.598  0.00  0.00    +0.276 A 
ATOM     30  O   UNL     1      -3.244   0.644  24.533  0.00  0.00    -0.266 OA
ATOM     31  N   UNL     1      -2.989  -0.949  24.561  0.00  0.00    -0.298 N 
ATOM     32  C   UNL     1      -2.800  -1.590  24.599  0.00  0.00    +0.110 C 
ENDROOT
BRANCH   8   7
ATOM      4  C   UNL     1      -3.832   2.484  24.413  0.00  0.00    +0.035 A 
ATOM      5  C   UNL     1      -3.988   2.053  25.098  0.00  0.00    +0.004 A 
ATOM      6  C   UNL     1      -3.850   1.239  25.114  0.00  0.00    +0.017 A 
ATOM      7  C   UNL     1      -3.556   0.858  24.444  0.00  0.00    +0.075 A 
ATOM     33  C   UNL     1      -3.400   1.290  23.759  0.00  0.00    +0.017 A 
ATOM     34  C   UNL     1      -3.538   2.102  23.743  0.00  0.00    +0.004 A 
BRANCH   4   2
ATOM      1  C   UNL     1      -4.343   3.665  25.035  0.00  0.00    +0.077 C 
ATOM      2  C   UNL     1      -3.971   3.298  24.397  0.00  0.00    +0.173 C 
ATOM      3  O   UNL     1      -3.736   3.743  23.744  0.00  0.00    -0.291 OA
ENDBRANCH   4   2
ENDBRANCH   8   7
BRANCH  20  21
ATOM     21  N   UNL     1      -2.221   1.071  24.863  0.00  0.00    -0.168 NA
ATOM     22  C   UNL     1      -1.523   1.445  25.093  0.00  0.00    +0.304 C 
ATOM     23  O   UNL     1      -0.859   0.995  25.286  0.00  0.00    -0.265 OA
BRANCH  22  24
ATOM     24  C   UNL     1      -1.489   2.269  25.130  0.00  0.00    +0.201 A 
ATOM     25  C   UNL     1      -1.589   2.728  25.808  0.00  0.00    +0.046 A 
ATOM     26  C   UNL     1      -1.510   3.521  25.592  0.00  0.00    +0.044 A 
ATOM     27  C   UNL     1      -1.362   3.552  24.782  0.00  0.00    +0.180 A 
ATOM     28  O   UNL     1      -1.349   2.777  24.496  0.00  0.00    -0.446 OA
ENDBRANCH  22  24
ENDBRANCH  20  21
TORSDOF 4
ENDMDL
MODEL 4
REMARK VINA RESULT:     -15.2      0.763      2.252
REMARK  Name = 
REMARK  4 active torsions:
REMARK  status: ('A' for Active; 'I' for Inactive)
REMARK    1  A    between atoms: C_2  and  C_4
REMARK    2  A    between atoms: C_7  and  N_8
REMARK    3  A    between atoms: C_20  and  N_21
REMARK    4  A    between atoms: C_22  and  C_24
REMARK                            x       y       z     vdW  Elec       q    Type
REMARK                         _______ _______ _______ _____ _____    ______ ____
ROOT
ATOM      8  N   UNL     1      -2.746   1.502  24.914  0.00  0.00    -0.162 NA
ATOM      9  C   UNL     1      -2.351   2.226  24.962  0.00  0.00    +0.327 C 
ATOM     10  O   UNL     1      -1.527   2.246  24.973  0.00  0.00    -0.250 OA
ATOM     11  N   UNL     1      -2.781   2.929  24.997  0.00  0.00    -0.262 N 
ATOM     12  C   UNL     1      -2.930   3.750  25.043  0.00  0.00    +0.097 C 
ATOM     13  C   UNL     1      -3.918   3.740  25.030  0.00  0.00    +0.043 C 
ATOM     14  C   UNL     1      -4.717   3.900  25.029  0.00  0.00    +0.011 C 
ATOM     15  C   UNL     1      -4.301   3.335  25.002  0.00  0.00    +0.058 C 
ATOM     16  C   UNL     1      -3.347   3.362  25.015  0.00  0.00    +0.101 C 
ATOM     17  C   UNL     1      -4.334   2.419  24.948  0.00  0.00    +0.041 A 
ATOM     18  C   UNL     1      -4.876   1.798  24.905  0.00  0.00    +0.014 A 
ATOM     19  C   UNL     1      -4.608   1.019  24.863  0.00  0.00    +0.023 A 
ATOM     20  C   UNL     1      -3.799   0.860  24.864  0.00  0.00    +0.130 A 
ATOM     29  C   UNL     1      -3.257   1.480  24.907  0.00  0.00    +0.276 A 
ATOM     30  O   UNL     1      -2.695   0.877  24.879  0.00  0.00    -0.266 OA
ATOM     31  N   UNL     1      -3.524   2.260  24.949  0.00  0.00    -0.298 N 
ATOM     32  C   UNL     1      -3.942   2.782  24.974  0.00  0.00    +0.110 C 
ENDROOT
BRANCH   8   7
ATOM      4  C   UNL     1      -1.453  -0.606  24.806  0.00  0.00    +0.035 A 
ATOM      5  C   UNL     1      -1.655  -0.210  24.111  0.00  0.00    +0.004 A 
ATOM      6  C   UNL     1      -2.086   0.493  24.147  0.00  0.00    +0.017 A 
ATOM      7  C   UNL     1      -2.315   0.800  24.879  0.00  0.00    +0.075 A 
ATOM     33  C   UNL     1      -2.113   0.403  25.573  0.00  0.00    +0.017 A 
ATOM     34  C   UNL     1      -1.682  -0.299  25.537  0.00  0.00    +0.004 A 
BRANCH   4   2
ATOM      1  C   UNL     1      -0.700  -1.630  25.457  0.00  0.00    +0.077 C 
ATOM      2  C   UNL     1      -1.022  -1.309  24.770  0.00  0.00    +0.173 C 
ATOM      3  O   UNL     1      -0.915  -1.689  24.046  0.00  0.00    -0.291 OA
ENDBRANCH   4   2
ENDBRANCH   8   7
BRANCH  20  21
ATOM     21  N   UNL     1      -3.532   0.081  24.821  0.00  0.00    -0.168 NA
ATOM     22  C   UNL     1      -4.074  -0.539  24.773  0.00  0.00    +0.304 C 
ATOM     23  O   UNL     1      -4.884  -0.379  24.766  0.00  0.00    -0.265 OA
BRANCH  22  24
ATOM     24  C   UNL     1      -3.807  -1.319  24.730  0.00  0.00    +0.201 A 
ATOM     25  C   UNL     1      -3.727  -1.767  24.043  0.00  0.00    +0.046 A 
ATOM     26  C   UNL     1      -3.443  -2.512  24.256  0.00  0.00    +0.044 A 
ATOM     27  C   UNL     1      -3.347  -2.524  25.075  0.00  0.00    +0.180 A 
ATOM     28  O   UNL     1      -3.572  -1.785  25.368  0.00  0.00    -0.446 OA
ENDBRANCH  22  24
ENDBRANCH  20  21
TORSDOF 4
ENDMDL
MODEL 5
REMARK VINA RESULT:     -14.6      1.279      2.805
REMARK  Name = 
REMARK  4 active torsions:
REMARK  status: ('A' for Active; 'I' for Inactive)
REMARK    1  A    between atoms: C_2  and  C_4
REMARK    2  A    between atoms: C_7  and  N_8
REMARK    3  A    between atoms: C_20  and  N_21
REMARK    4  A    between atoms: C_22  and  C_24
REMARK                            x       y       z     vdW  Elec       q    Type
REMARK                         _______ _______ _______ _____ _____    ______ ____
ROOT
ATOM      8  N   UNL     1      -3.197   2.150  24.935  0.00  0.00    -0.162 NA
ATOM      9  C   UNL     1      -3.572   2.879  25.032  0.00  0.00    +0.327 C 
ATOM     10  O   UNL     1      -3.126   3.572  25.068  0.00  0.00    -0.250 OA
ATOM     11  N   UNL     1      -4.395   2.915  25.092  0.00  0.00    -0.262 N 
ATOM     12  C   UNL     1      -5.156   3.248  25.178  0.00  0.00    +0.097 C 
ATOM     13  C   UNL     1      -5.702   2.426  25.136  0.00  0.00    +0.043 C 
ATOM     14  C   UNL     1      -6.283   1.855  25.122  0.00  0.00    +0.011 C 
ATOM     15  C   UNL     1      -5.584   1.884  25.076  0.00  0.00    +0.058 C 
ATOM     16  C   UNL     1      -5.069   2.688  25.118  0.00  0.00    +0.101 C 
ATOM     17  C   UNL     1      -4.845   1.347  24.972  0.00  0.00    +0.041 A 
ATOM     18  C   UNL     1      -4.638   0.554  24.881  0.00  0.00    +0.014 A 
ATOM     19  C   UNL     1      -3.844   0.342  24.805  0.00  0.00    +0.023 A 
ATOM     20  C   UNL     1      -3.258   0.923  24.821  0.00  0.00    +0.130 A 
ATOM     29  C   UNL     1      -3.466   1.716  24.912  0.00  0.00    +0.276 A 
ATOM     30  O   UNL     1      -2.652   1.844  24.868  0.00  0.00    -0.266 OA
ATOM     31  N   UNL     1      -4.259   1.928  24.988  0.00  0.00    -0.298 N 
ATOM     32  C   UNL     1      -4.925   1.873  25.029  0.00  0.00    +0.110 C 
ENDROOT
BRANCH   8   7
ATOM      4  C   UNL     1      -0.731   2.045  24.755  0.00  0.00    +0.035 A 
ATOM      5  C   UNL     1      -1.092   1.999  25.495  0.00  0.00    +0.004 A 
ATOM      6  C   UNL     1      -1.915   2.034  25.555  0.00  0.00    +0.017 A 
ATOM      7  C   UNL     1      -2.375   2.115  24.875  0.00  0.00    +0.075 A 
ATOM     33  C   UNL     1      -2.013   2.161  24.135  0.00  0.00    +0.017 A 
ATOM     34  C   UNL     1      -1.191   2.126  24.075  0.00  0.00    +0.004 A 
BRANCH   4   2
ATOM      1  C   UNL     1       0.455   2.093  23.959  0.00  0.00    +0.077 C 
ATOM      2  C   UNL     1       0.092   2.010  24.695  0.00  0.00    +0.173 C 
ATOM      3  O   UNL     1       0.550   1.893  25.371  0.00  0.00    -0.291 OA
ENDBRANCH   4   2
ENDBRANCH   8   7
BRANCH  20  21
ATOM     21  N   UNL     1      -2.465   0.710  24.745  0.00  0.00    -0.168 NA
ATOM     22  C   UNL     1      -2.257  -0.084  24.659  0.00  0.00    +0.304 C 
ATOM     23  O   UNL     1      -2.843  -0.665  24.650  0.00  0.00    -0.265 OA
BRANCH  22  24
ATOM     24  C   UNL     1      -1.463  -0.297  24.583  0.00  0.00    +0.201 A 
ATOM     25  C   UNL     1      -0.977  -0.579  25.188  0.00  0.00    +0.046 A 
ATOM     26  C   UNL     1      -0.230  -0.721  24.868  0.00  0.00    +0.044 A 
ATOM     27  C   UNL     1      -0.254  -0.527  24.066  0.00  0.00    +0.180 A 
ATOM     28  O   UNL     1      -1.017  -0.265  23.891  0.00  0.00    -0.446 OA
ENDBRANCH  22  24
ENDBRANCH  20  21
TORSDOF 4
ENDMDL
