REMARK  Name = 
REMARK  6 active torsions:
REMARK  status: ('A' for Active; 'I' for Inactive)
REMARK    1  A    between atoms: C_2  and  N_3
REMARK    2  A    between atoms: N_13  and  C_14
REMARK    3  A    between atoms: C_14  and  C_15
REMARK    4  A    between atoms: C_15  and  C_16
REMARK    5  A    between atoms: C_17  and  O_18
REMARK    6  A    between atoms: C_20  and  O_21
REMARK                            x       y       z     vdW  Elec       q    Type
REMARK                         _______ _______ _______ _____ _____    ______ ____
ROOT
ATOM      3  N   UNL     1      -0.937  -1.532   0.000  0.00  0.00    -0.188 NA
ATOM      4  C   UNL     1      -0.223  -1.944   0.000  0.00  0.00    +0.323 C 
ATOM      5  O   UNL     1      -0.223  -2.769   0.000  0.00  0.00    -0.251 OA
ATOM      6  N   UNL     1       0.492  -1.532   0.000  0.00  0.00    -0.263 N 
ATOM      7  C   UNL     1       0.492  -0.707   0.000  0.00  0.00    +0.095 C 
ATOM      8  C   UNL     1       1.206  -0.294   0.000  0.00  0.00    +0.022 C 
ATOM      9  C   UNL     1       1.921  -0.707   0.000  0.00  0.00    +0.012 C 
ATOM     10  C   UNL     1       2.566  -0.192   0.000  0.00  0.00    +0.085 C 
ATOM     11  C   UNL     1       3.370  -0.376   0.000  0.00  0.00    +0.226 C 
ATOM     12  O   UNL     1       3.884   0.269   0.000  0.00  0.00    -0.275 OA
ATOM     13  N   UNL     1       3.728  -1.119   0.000  0.00  0.00    -0.279 N 
ATOM     26  C   UNL     1       3.370  -1.862   0.000  0.00  0.00    +0.093 C 
ATOM     27  C   UNL     1       2.566  -2.046   0.000  0.00  0.00    +0.023 C 
ATOM     28  C   UNL     1       1.921  -1.532   0.000  0.00  0.00    +0.022 C 
ATOM     29  C   UNL     1       1.206  -1.944   0.000  0.00  0.00    +0.095 C 
ENDROOT
BRANCH   3   2
ATOM      1  C   UNL     1      -2.366  -1.532   0.000  0.00  0.00    +0.025 C 
ATOM      2  C   UNL     1      -1.652  -1.944   0.000  0.00  0.00    +0.117 C 
ENDBRANCH   3   2
BRANCH  13  14
ATOM     14  C   UNL     1       4.553  -1.119   0.000  0.00  0.00    +0.098 C 
BRANCH  14  15
ATOM     15  C   UNL     1       4.965  -0.405   0.000  0.00  0.00    +0.051 C 
BRANCH  15  16
ATOM     16  C   UNL     1       5.790  -0.405   0.000  0.00  0.00    +0.017 A 
ATOM     17  C   UNL     1       6.203   0.310   0.000  0.00  0.00    +0.168 A 
ATOM     20  C   UNL     1       7.028   0.310   0.000  0.00  0.00    +0.172 A 
ATOM     23  C   UNL     1       7.440  -0.405   0.000  0.00  0.00    +0.040 A 
ATOM     24  C   UNL     1       7.028  -1.119   0.000  0.00  0.00    +0.003 A 
ATOM     25  C   UNL     1       6.203  -1.119   0.000  0.00  0.00    -0.001 A 
BRANCH  17  18
ATOM     18  O   UNL     1       5.790   1.024   0.000  0.00  0.00    -0.469 OA
ATOM     19  C   UNL     1       6.203   1.739   0.000  0.00  0.00    +0.253 C 
ENDBRANCH  17  18
BRANCH  20  21
ATOM     21  O   UNL     1       7.440   1.024   0.000  0.00  0.00    -0.468 OA
ATOM     22  C   UNL     1       7.028   1.739   0.000  0.00  0.00    +0.253 C 
ENDBRANCH  20  21
ENDBRANCH  15  16
ENDBRANCH  14  15
ENDBRANCH  13  14
TORSDOF 6
