MODEL 1
REMARK VINA RESULT:     -11.0      0.000      0.000
REMARK  Name = 
REMARK  3 active torsions:
REMARK  status: ('A' for Active; 'I' for Inactive)
REMARK    1  A    between atoms: C_2  and  C_5
REMARK    2  A    between atoms: C_5  and  N_6
REMARK    3  A    between atoms: N_12  and  C_13
REMARK                            x       y       z     vdW  Elec       q    Type
REMARK                         _______ _______ _______ _____ _____    ______ ____
ROOT
ATOM      6  N   UNL     1      -4.195   2.245  24.497  0.00  0.00    -0.270 NA
ATOM      7  C   UNL     1      -3.403   2.251  24.266  0.00  0.00    +0.094 C 
ATOM      8  C   UNL     1      -2.995   1.541  24.174  0.00  0.00    +0.112 C 
ATOM      9  N   UNL     1      -3.378   0.823  24.313  0.00  0.00    -0.261 N 
ATOM     10  C   UNL     1      -4.170   0.817  24.544  0.00  0.00    +0.113 C 
ATOM     11  C   UNL     1      -4.401   0.031  24.641  0.00  0.00    +0.116 C 
ATOM     12  N   UNL     1      -3.752  -0.448  24.470  0.00  0.00    -0.264 N 
ATOM     19  C   UNL     1      -3.120   0.042  24.268  0.00  0.00    +0.307 C 
ATOM     20  O   UNL     1      -2.362  -0.207  24.056  0.00  0.00    -0.252 OA
ATOM     21  C   UNL     1      -4.579   1.528  24.636  0.00  0.00    +0.094 C 
ENDROOT
BRANCH  12  13
ATOM     13  C   UNL     1      -3.737  -1.273  24.497  0.00  0.00    +0.077 C 
ATOM     14  C   UNL     1      -3.391  -1.659  25.140  0.00  0.00    +0.020 C 
ATOM     15  C   UNL     1      -3.376  -2.483  25.167  0.00  0.00    +0.002 C 
ATOM     16  C   UNL     1      -3.708  -2.921  24.551  0.00  0.00    +0.000 C 
ATOM     17  C   UNL     1      -4.054  -2.536  23.910  0.00  0.00    +0.002 C 
ATOM     18  C   UNL     1      -4.069  -1.712  23.883  0.00  0.00    +0.020 C 
ENDBRANCH  12  13
BRANCH   6   5
ATOM      5  C   UNL     1      -4.604   2.956  24.590  0.00  0.00    +0.072 C 
BRANCH   5   2
ATOM      1  C   UNL     1      -4.225   3.969  25.836  0.00  0.00    +0.001 C 
ATOM      2  C   UNL     1      -4.415   3.462  25.213  0.00  0.00    +0.015 C 
ATOM      3  C   UNL     1      -3.841   3.825  24.744  0.00  0.00    +0.001 C 
ATOM      4  C   UNL     1      -4.988   3.100  25.682  0.00  0.00    +0.001 C 
ENDBRANCH   5   2
ENDBRANCH   6   5
TORSDOF 3
ENDMDL
MODEL 2
REMARK VINA RESULT:     -11.0      1.094      1.542
REMARK  Name = 
REMARK  3 active torsions:
REMARK  status: ('A' for Active; 'I' for Inactive)
REMARK    1  A    between atoms: C_2  and  C_5
REMARK    2  A    between atoms: C_5  and  N_6
REMARK    3  A    between atoms: N_12  and  C_13
REMARK                            x       y       z     vdW  Elec       q    Type
REMARK                         _______ _______ _______ _____ _____    ______ ____
ROOT
ATOM      6  N   UNL     1      -3.315   2.683  24.712  0.00  0.00    -0.270 NA
ATOM      7  C   UNL     1      -4.115   2.679  24.913  0.00  0.00    +0.094 C 
ATOM      8  C   UNL     1      -4.523   1.965  24.967  0.00  0.00    +0.112 C 
ATOM      9  N   UNL     1      -4.132   1.254  24.819  0.00  0.00    -0.261 N 
ATOM     10  C   UNL     1      -3.332   1.257  24.617  0.00  0.00    +0.113 C 
ATOM     11  C   UNL     1      -3.094   0.476  24.503  0.00  0.00    +0.116 C 
ATOM     12  N   UNL     1      -3.746  -0.011  24.634  0.00  0.00    -0.264 N 
ATOM     19  C   UNL     1      -4.387   0.470  24.829  0.00  0.00    +0.307 C 
ATOM     20  O   UNL     1      -5.151   0.212  25.004  0.00  0.00    -0.252 OA
ATOM     21  C   UNL     1      -2.923   1.973  24.564  0.00  0.00    +0.094 C 
ENDROOT
BRANCH  12  13
ATOM     13  C   UNL     1      -3.756  -0.834  24.579  0.00  0.00    +0.077 C 
ATOM     14  C   UNL     1      -4.067  -1.199  23.908  0.00  0.00    +0.020 C 
ATOM     15  C   UNL     1      -4.077  -2.023  23.853  0.00  0.00    +0.002 C 
ATOM     16  C   UNL     1      -3.775  -2.480  24.470  0.00  0.00    +0.000 C 
ATOM     17  C   UNL     1      -3.465  -2.115  25.141  0.00  0.00    +0.002 C 
ATOM     18  C   UNL     1      -3.455  -1.292  25.196  0.00  0.00    +0.020 C 
ENDBRANCH  12  13
BRANCH   6   5
ATOM      5  C   UNL     1      -2.906   3.399  24.658  0.00  0.00    +0.072 C 
BRANCH   5   2
ATOM      1  C   UNL     1      -2.414   4.171  26.031  0.00  0.00    +0.001 C 
ATOM      2  C   UNL     1      -2.660   3.785  25.344  0.00  0.00    +0.015 C 
ATOM      3  C   UNL     1      -1.908   3.455  25.261  0.00  0.00    +0.001 C 
ATOM      4  C   UNL     1      -3.411   4.115  25.428  0.00  0.00    +0.001 C 
ENDBRANCH   5   2
ENDBRANCH   6   5
TORSDOF 3
ENDMDL
MODEL 3
REMARK VINA RESULT:     -10.5      1.556      4.487
REMARK  Name = 
REMARK  3 active torsions:
REMARK  status: ('A' for Active; 'I' for Inactive)
REMARK    1  A    between atoms: C_2  and  C_5
REMARK    2  A    between atoms: C_5  and  N_6
REMARK    3  A    between atoms: N_12  and  C_13
REMARK                            x       y       z     vdW  Elec       q    Type
REMARK                         _______ _______ _______ _____ _____    ______ ____
ROOT
ATOM      6  N   UNL     1      -3.721   0.093  24.568  0.00  0.00    -0.270 NA
ATOM      7  C   UNL     1      -3.578   0.202  23.763  0.00  0.00    +0.094 C 
ATOM      8  C   UNL     1      -3.172   0.872  23.505  0.00  0.00    +0.112 C 
ATOM      9  N   UNL     1      -2.909   1.432  24.050  0.00  0.00    -0.261 N 
ATOM     10  C   UNL     1      -3.053   1.323  24.855  0.00  0.00    +0.113 C 
ATOM     11  C   UNL     1      -2.731   1.964  25.261  0.00  0.00    +0.116 C 
ATOM     12  N   UNL     1      -2.388   2.470  24.708  0.00  0.00    -0.264 N 
ATOM     19  C   UNL     1      -2.499   2.141  23.960  0.00  0.00    +0.307 C 
ATOM     20  O   UNL     1      -2.243   2.465  23.245  0.00  0.00    -0.252 OA
ATOM     21  C   UNL     1      -3.460   0.652  25.115  0.00  0.00    +0.094 C 
ENDROOT
BRANCH  12  13
ATOM     13  C   UNL     1      -2.002   3.180  24.874  0.00  0.00    +0.077 C 
ATOM     14  C   UNL     1      -1.177   3.208  24.891  0.00  0.00    +0.020 C 
ATOM     15  C   UNL     1      -0.792   3.918  25.056  0.00  0.00    +0.002 C 
ATOM     16  C   UNL     1      -1.231   4.600  25.205  0.00  0.00    +0.000 C 
ATOM     17  C   UNL     1      -2.055   4.573  25.188  0.00  0.00    +0.002 C 
ATOM     18  C   UNL     1      -2.440   3.863  25.022  0.00  0.00    +0.020 C 
ENDBRANCH  12  13
BRANCH   6   5
ATOM      5  C   UNL     1      -4.128  -0.578  24.828  0.00  0.00    +0.072 C 
BRANCH   5   2
ATOM      1  C   UNL     1      -3.468  -2.075  24.614  0.00  0.00    +0.001 C 
ATOM      2  C   UNL     1      -3.797  -1.326  24.722  0.00  0.00    +0.015 C 
ATOM      3  C   UNL     1      -4.184  -1.393  23.995  0.00  0.00    +0.001 C 
ATOM      4  C   UNL     1      -3.411  -1.259  25.447  0.00  0.00    +0.001 C 
ENDBRANCH   5   2
ENDBRANCH   6   5
TORSDOF 3
ENDMDL
