REMARK  Name = 
REMARK  4 active torsions:
REMARK  status: ('A' for Active; 'I' for Inactive)
REMARK    1  A    between atoms: C_2  and  C_4
REMARK    2  A    between atoms: N_6  and  C_7
REMARK    3  A    between atoms: C_13  and  C_14
REMARK    4  A    between atoms: C_17  and  N_20
REMARK                            x       y       z     vdW  Elec       q    Type
REMARK                         _______ _______ _______ _____ _____    ______ ____
ROOT
ATOM      7  C   UNL     1       0.715  -3.712   0.000  0.00  0.00    +0.132 C 
ATOM      8  C   UNL     1       1.382  -4.197   0.000  0.00  0.00    +0.202 C 
ATOM      9  O   UNL     1       2.167  -3.942   0.000  0.00  0.00    -0.219 OA
ATOM     10  C   UNL     1       1.127  -4.982   0.000  0.00  0.00    +0.184 C 
ATOM     11  O   UNL     1       1.612  -5.649   0.000  0.00  0.00    -0.220 OA
ATOM     12  C   UNL     1       0.302  -4.982   0.000  0.00  0.00    +0.042 C 
ATOM     13  C   UNL     1       0.047  -4.197   0.000  0.00  0.00    +0.049 C 
ENDROOT
BRANCH  13  14
ATOM     14  C   UNL     1      -0.738  -3.942   0.000  0.00  0.00    -0.001 A 
ATOM     15  C   UNL     1      -1.351  -4.495   0.000  0.00  0.00    +0.000 A 
ATOM     16  C   UNL     1      -2.135  -4.240   0.000  0.00  0.00    +0.034 A 
ATOM     17  C   UNL     1      -2.307  -3.433   0.000  0.00  0.00    +0.132 A 
ATOM     18  N   UNL     1      -1.694  -2.881   0.000  0.00  0.00    -0.229 NA
ATOM     19  C   UNL     1      -0.909  -3.135   0.000  0.00  0.00    +0.096 A 
BRANCH  17  20
ATOM     20  N   UNL     1      -3.091  -3.178   0.000  0.00  0.00    -0.288 N 
ATOM     21  C   UNL     1      -3.704  -3.730   0.000  0.00  0.00    +0.124 C 
ATOM     22  C   UNL     1      -4.489  -3.475   0.000  0.00  0.00    +0.164 C 
ATOM     23  O   UNL     1      -4.661  -2.668   0.000  0.00  0.00    -0.350 OA
ATOM     24  C   UNL     1      -4.048  -2.116   0.000  0.00  0.00    +0.164 C 
ATOM     25  C   UNL     1      -3.263  -2.371   0.000  0.00  0.00    +0.124 C 
ENDBRANCH  17  20
ENDBRANCH  13  14
BRANCH   7   6
ATOM      4  C   UNL     1       1.429  -2.475   0.000  0.00  0.00    +0.241 C 
ATOM      5  O   UNL     1       2.143  -2.888   0.000  0.00  0.00    -0.273 OA
ATOM      6  N   UNL     1       0.715  -2.888   0.000  0.00  0.00    -0.204 NA
BRANCH   4   2
ATOM      1  C   UNL     1       2.143  -1.238   0.000  0.00  0.00    +0.010 C 
ATOM      2  C   UNL     1       1.429  -1.650   0.000  0.00  0.00    +0.078 C 
ATOM      3  C   UNL     1       0.715  -1.238   0.000  0.00  0.00    +0.010 C 
ENDBRANCH   4   2
ENDBRANCH   7   6
TORSDOF 4
