REMARK  Name = 
REMARK  10 active torsions:
REMARK  status: ('A' for Active; 'I' for Inactive)
REMARK    1  A    between atoms: O_2  and  C_3
REMARK    2  A    between atoms: C_5  and  O_6
REMARK    3  A    between atoms: C_9  and  N_10
REMARK    4  A    between atoms: N_13  and  C_14
REMARK    5  A    between atoms: C_14  and  C_15
REMARK    6  A    between atoms: C_17  and  C_18
REMARK    7  A    between atoms: C_22  and  N_23
REMARK    8  A    between atoms: N_23  and  C_25
REMARK    9  A    between atoms: C_25  and  C_26
REMARK   10  A    between atoms: C_26  and  C_27
REMARK                            x       y       z     vdW  Elec       q    Type
REMARK                         _______ _______ _______ _____ _____    ______ ____
ROOT
ATOM     15  C   UNL     1       1.683  -3.969   0.000  0.00  0.00    +0.154 C 
ATOM     16  O   UNL     1       1.769  -3.148   0.000  0.00  0.00    -0.350 OA
ATOM     17  C   UNL     1       2.576  -2.977   0.000  0.00  0.00    +0.180 C 
ATOM     20  C   UNL     1       2.989  -3.692   0.000  0.00  0.00    +0.198 C 
ATOM     21  O   UNL     1       3.809  -3.778   0.000  0.00  0.00    -0.219 OA
ATOM     22  C   UNL     1       2.437  -4.305   0.000  0.00  0.00    +0.120 C 
ENDROOT
BRANCH  17  18
ATOM     18  C   UNL     1       2.912  -2.223   0.000  0.00  0.00    +0.214 C 
ATOM     19  O   UNL     1       3.732  -2.137   0.000  0.00  0.00    -0.218 OA
ENDBRANCH  17  18
BRANCH  22  23
ATOM     23  N   UNL     1       2.608  -5.112   0.000  0.00  0.00    -0.268 NA
ATOM     24  C   UNL     1       3.393  -5.367   0.000  0.00  0.00    +0.090 C 
BRANCH  23  25
ATOM     25  C   UNL     1       1.995  -5.664   0.000  0.00  0.00    +0.077 C 
BRANCH  25  26
ATOM     26  C   UNL     1       2.167  -6.471   0.000  0.00  0.00    +0.044 C 
BRANCH  26  27
ATOM     27  C   UNL     1       2.951  -6.726   0.000  0.00  0.00    -0.021 A 
ATOM     28  C   UNL     1       3.564  -6.173   0.000  0.00  0.00    -0.004 A 
ATOM     29  C   UNL     1       4.349  -6.428   0.000  0.00  0.00    -0.000 A 
ATOM     30  C   UNL     1       4.520  -7.235   0.000  0.00  0.00    -0.000 A 
ATOM     31  C   UNL     1       3.907  -7.787   0.000  0.00  0.00    -0.000 A 
ATOM     32  C   UNL     1       3.123  -7.532   0.000  0.00  0.00    -0.004 A 
ENDBRANCH  26  27
ENDBRANCH  25  26
ENDBRANCH  23  25
ENDBRANCH  22  23
BRANCH  15  14
ATOM     14  C   UNL     1       0.968  -4.381   0.000  0.00  0.00    +0.148 C 
BRANCH  14  13
ATOM     10  N   UNL     1      -1.175  -3.969   0.000  0.00  0.00    -0.161 NA
ATOM     11  C   UNL     1      -0.461  -4.381   0.000  0.00  0.00    +0.344 C 
ATOM     12  O   UNL     1      -0.461  -5.207   0.000  0.00  0.00    -0.249 OA
ATOM     13  N   UNL     1       0.254  -3.969   0.000  0.00  0.00    -0.184 NA
BRANCH  10   9
ATOM      3  C   UNL     1      -2.604  -5.619   0.000  0.00  0.00    +0.143 A 
ATOM      4  C   UNL     1      -3.318  -5.207   0.000  0.00  0.00    +0.074 A 
ATOM      5  C   UNL     1      -3.318  -4.381   0.000  0.00  0.00    +0.143 A 
ATOM      8  C   UNL     1      -2.604  -3.969   0.000  0.00  0.00    +0.054 A 
ATOM      9  C   UNL     1      -1.889  -4.381   0.000  0.00  0.00    +0.081 A 
ATOM     33  C   UNL     1      -1.889  -5.207   0.000  0.00  0.00    +0.054 A 
BRANCH   3   2
ATOM      1  C   UNL     1      -3.318  -6.856   0.000  0.00  0.00    +0.252 C 
ATOM      2  O   UNL     1      -2.604  -6.444   0.000  0.00  0.00    -0.471 OA
ENDBRANCH   3   2
BRANCH   5   6
ATOM      6  O   UNL     1      -4.033  -3.969   0.000  0.00  0.00    -0.471 OA
ATOM      7  C   UNL     1      -4.033  -3.144   0.000  0.00  0.00    +0.252 C 
ENDBRANCH   5   6
ENDBRANCH  10   9
ENDBRANCH  14  13
ENDBRANCH  15  14
TORSDOF 10
