MODEL 1
REMARK VINA RESULT:      -8.6      0.000      0.000
REMARK  Name = 
REMARK  8 active torsions:
REMARK  status: ('A' for Active; 'I' for Inactive)
REMARK    1  A    between atoms: C_2  and  C_3
REMARK    2  A    between atoms: C_3  and  N_4
REMARK    3  A    between atoms: N_7  and  C_8
REMARK    4  A    between atoms: C_8  and  C_9
REMARK    5  A    between atoms: C_13  and  C_14
REMARK    6  A    between atoms: C_14  and  C_15
REMARK    7  A    between atoms: C_22  and  O_23
REMARK    8  A    between atoms: C_27  and  C_28
REMARK                            x       y       z     vdW  Elec       q    Type
REMARK                         _______ _______ _______ _____ _____    ______ ____
ROOT
ATOM      9  C   UNL     1      -0.096   1.829  24.427  0.00  0.00    +0.043 C 
ATOM     10  C   UNL     1       0.100   2.628  24.358  0.00  0.00    -0.033 C 
ATOM     11  C   UNL     1      -0.391   3.202  24.690  0.00  0.00    -0.048 C 
ATOM     12  C   UNL     1      -0.195   4.002  24.621  0.00  0.00    +0.026 C 
ATOM     13  C   UNL     1      -1.076   2.978  25.092  0.00  0.00    +0.026 C 
ATOM     26  C   UNL     1      -1.270   2.180  25.161  0.00  0.00    +0.005 C 
ATOM     27  C   UNL     1      -0.781   1.605  24.828  0.00  0.00    +0.006 C 
ENDROOT
BRANCH  27  28
ATOM     28  C   UNL     1      -0.976   0.807  24.897  0.00  0.00    +0.000 C 
ATOM     29  C   UNL     1      -1.387   0.428  24.291  0.00  0.00    +0.000 C 
ATOM     30  C   UNL     1      -0.759   0.387  25.573  0.00  0.00    +0.000 C 
ENDBRANCH  27  28
BRANCH   9   8
ATOM      8  C   UNL     1       0.394   1.255  24.094  0.00  0.00    +0.121 C 
BRANCH   8   7
ATOM      4  N   UNL     1       2.437   1.094  23.342  0.00  0.00    -0.187 NA
ATOM      5  C   UNL     1       1.640   0.928  23.475  0.00  0.00    +0.339 C 
ATOM      6  O   UNL     1       1.291   0.268  23.122  0.00  0.00    -0.249 OA
ATOM      7  N   UNL     1       1.192   1.421  23.961  0.00  0.00    -0.187 NA
BRANCH   4   3
ATOM      3  C   UNL     1       2.885   0.600  22.856  0.00  0.00    +0.117 C 
BRANCH   3   2
ATOM      1  C   UNL     1       4.310   0.506  22.906  0.00  0.00    +0.002 C 
ATOM      2  C   UNL     1       3.627   0.846  22.591  0.00  0.00    +0.023 C 
ENDBRANCH   3   2
ENDBRANCH   4   3
ENDBRANCH   8   7
ENDBRANCH   9   8
BRANCH  13  14
ATOM     14  C   UNL     1      -1.565   3.554  25.424  0.00  0.00    +0.070 C 
BRANCH  14  15
ATOM     15  C   UNL     1      -2.383   3.496  25.344  0.00  0.00    +0.139 A 
ATOM     16  N   UNL     1      -2.917   3.293  25.939  0.00  0.00    -0.229 NA
ATOM     17  C   UNL     1      -3.676   3.303  25.617  0.00  0.00    +0.103 A 
ATOM     18  C   UNL     1      -3.612   3.513  24.822  0.00  0.00    +0.100 A 
ATOM     19  N   UNL     1      -2.813   3.632  24.652  0.00  0.00    -0.229 NA
ATOM     20  C   UNL     1      -4.290   3.568  24.354  0.00  0.00    +0.024 A 
ATOM     21  C   UNL     1      -5.031   3.413  24.682  0.00  0.00    +0.039 A 
ATOM     22  C   UNL     1      -5.094   3.203  25.477  0.00  0.00    +0.140 A 
ATOM     25  C   UNL     1      -4.417   3.148  25.945  0.00  0.00    +0.058 A 
BRANCH  22  23
ATOM     23  O   UNL     1      -5.835   3.049  25.805  0.00  0.00    -0.471 OA
ATOM     24  C   UNL     1      -6.197   2.317  25.681  0.00  0.00    +0.252 C 
ENDBRANCH  22  23
ENDBRANCH  14  15
ENDBRANCH  13  14
TORSDOF 8
ENDMDL
MODEL 2
REMARK VINA RESULT:      -8.5      1.576      1.826
REMARK  Name = 
REMARK  8 active torsions:
REMARK  status: ('A' for Active; 'I' for Inactive)
REMARK    1  A    between atoms: C_2  and  C_3
REMARK    2  A    between atoms: C_3  and  N_4
REMARK    3  A    between atoms: N_7  and  C_8
REMARK    4  A    between atoms: C_8  and  C_9
REMARK    5  A    between atoms: C_13  and  C_14
REMARK    6  A    between atoms: C_14  and  C_15
REMARK    7  A    between atoms: C_22  and  O_23
REMARK    8  A    between atoms: C_27  and  C_28
REMARK                            x       y       z     vdW  Elec       q    Type
REMARK                         _______ _______ _______ _____ _____    ______ ____
ROOT
ATOM      9  C   UNL     1      -1.246   0.682  23.770  0.00  0.00    +0.043 C 
ATOM     10  C   UNL     1      -1.346   1.215  23.147  0.00  0.00    -0.033 C 
ATOM     11  C   UNL     1      -2.088   1.543  23.000  0.00  0.00    -0.048 C 
ATOM     12  C   UNL     1      -2.188   2.076  22.378  0.00  0.00    +0.026 C 
ATOM     13  C   UNL     1      -2.731   1.338  23.475  0.00  0.00    +0.026 C 
ATOM     26  C   UNL     1      -2.632   0.806  24.097  0.00  0.00    +0.005 C 
ATOM     27  C   UNL     1      -1.889   0.477  24.245  0.00  0.00    +0.006 C 
ENDROOT
BRANCH  27  28
ATOM     28  C   UNL     1      -1.790  -0.055  24.866  0.00  0.00    +0.000 C 
ATOM     29  C   UNL     1      -1.965  -0.854  24.758  0.00  0.00    +0.000 C 
ATOM     30  C   UNL     1      -1.515   0.211  25.597  0.00  0.00    +0.000 C 
ENDBRANCH  27  28
BRANCH   9   8
ATOM      8  C   UNL     1      -0.504   0.354  23.917  0.00  0.00    +0.121 C 
BRANCH   8   7
ATOM      4  N   UNL     1       1.507   0.567  23.092  0.00  0.00    -0.187 NA
ATOM      5  C   UNL     1       0.833   0.227  23.427  0.00  0.00    +0.339 C 
ATOM      6  O   UNL     1       0.822  -0.578  23.608  0.00  0.00    -0.249 OA
ATOM      7  N   UNL     1       0.170   0.694  23.581  0.00  0.00    -0.187 NA
BRANCH   4   3
ATOM      3  C   UNL     1       2.169   0.100  22.938  0.00  0.00    +0.117 C 
BRANCH   3   2
ATOM      1  C   UNL     1       3.521   0.496  22.694  0.00  0.00    +0.002 C 
ATOM      2  C   UNL     1       2.752   0.371  22.420  0.00  0.00    +0.023 C 
ENDBRANCH   3   2
ENDBRANCH   4   3
ENDBRANCH   8   7
ENDBRANCH   9   8
BRANCH  13  14
ATOM     14  C   UNL     1      -3.474   1.666  23.327  0.00  0.00    +0.070 C 
BRANCH  14  15
ATOM     15  C   UNL     1      -3.917   1.982  23.947  0.00  0.00    +0.139 A 
ATOM     16  N   UNL     1      -4.542   1.610  24.336  0.00  0.00    -0.229 NA
ATOM     17  C   UNL     1      -4.824   2.123  24.916  0.00  0.00    +0.103 A 
ATOM     18  C   UNL     1      -4.373   2.813  24.886  0.00  0.00    +0.100 A 
ATOM     19  N   UNL     1      -3.812   2.727  24.287  0.00  0.00    -0.229 NA
ATOM     20  C   UNL     1      -4.532   3.433  25.408  0.00  0.00    +0.024 A 
ATOM     21  C   UNL     1      -5.141   3.361  25.960  0.00  0.00    +0.039 A 
ATOM     22  C   UNL     1      -5.591   2.670  25.989  0.00  0.00    +0.140 A 
ATOM     25  C   UNL     1      -5.433   2.052  25.468  0.00  0.00    +0.058 A 
BRANCH  22  23
ATOM     23  O   UNL     1      -6.200   2.599  26.541  0.00  0.00    -0.471 OA
ATOM     24  C   UNL     1      -6.486   1.852  26.747  0.00  0.00    +0.252 C 
ENDBRANCH  22  23
ENDBRANCH  14  15
ENDBRANCH  13  14
TORSDOF 8
ENDMDL
MODEL 3
REMARK VINA RESULT:      -7.3      1.278      2.091
REMARK  Name = 
REMARK  8 active torsions:
REMARK  status: ('A' for Active; 'I' for Inactive)
REMARK    1  A    between atoms: C_2  and  C_3
REMARK    2  A    between atoms: C_3  and  N_4
REMARK    3  A    between atoms: N_7  and  C_8
REMARK    4  A    between atoms: C_8  and  C_9
REMARK    5  A    between atoms: C_13  and  C_14
REMARK    6  A    between atoms: C_14  and  C_15
REMARK    7  A    between atoms: C_22  and  O_23
REMARK    8  A    between atoms: C_27  and  C_28
REMARK                            x       y       z     vdW  Elec       q    Type
REMARK                         _______ _______ _______ _____ _____    ______ ____
ROOT
ATOM      9  C   UNL     1      -0.010   0.924  24.195  0.00  0.00    +0.043 C 
ATOM     10  C   UNL     1      -0.245   0.163  23.975  0.00  0.00    -0.033 C 
ATOM     11  C   UNL     1      -0.990  -0.116  24.192  0.00  0.00    -0.048 C 
ATOM     12  C   UNL     1      -1.225  -0.877  23.972  0.00  0.00    +0.026 C 
ATOM     13  C   UNL     1      -1.501   0.364  24.627  0.00  0.00    +0.026 C 
ATOM     26  C   UNL     1      -1.266   1.123  24.847  0.00  0.00    +0.005 C 
ATOM     27  C   UNL     1      -0.521   1.404  24.630  0.00  0.00    +0.006 C 
ENDROOT
BRANCH  27  28
ATOM     28  C   UNL     1      -0.286   2.163  24.850  0.00  0.00    +0.000 C 
ATOM     29  C   UNL     1       0.055   2.293  25.590  0.00  0.00    +0.000 C 
ATOM     30  C   UNL     1      -0.392   2.794  24.329  0.00  0.00    +0.000 C 
ENDBRANCH  27  28
BRANCH   9   8
ATOM      8  C   UNL     1       0.735   1.204  23.978  0.00  0.00    +0.121 C 
BRANCH   8   7
ATOM      4  N   UNL     1       2.535   0.489  22.969  0.00  0.00    -0.187 NA
ATOM      5  C   UNL     1       2.011   0.982  23.375  0.00  0.00    +0.339 C 
ATOM      6  O   UNL     1       2.242   1.747  23.582  0.00  0.00    -0.249 OA
ATOM      7  N   UNL     1       1.258   0.710  23.572  0.00  0.00    -0.187 NA
BRANCH   4   3
ATOM      3  C   UNL     1       3.288   0.761  22.771  0.00  0.00    +0.117 C 
BRANCH   3   2
ATOM      1  C   UNL     1       4.670   0.406  22.850  0.00  0.00    +0.002 C 
ATOM      2  C   UNL     1       3.896   0.222  22.628  0.00  0.00    +0.023 C 
ENDBRANCH   3   2
ENDBRANCH   4   3
ENDBRANCH   8   7
ENDBRANCH   9   8
BRANCH  13  14
ATOM     14  C   UNL     1      -2.246   0.083  24.843  0.00  0.00    +0.070 C 
BRANCH  14  15
ATOM     15  C   UNL     1      -2.903   0.579  24.800  0.00  0.00    +0.139 A 
ATOM     16  N   UNL     1      -3.329   0.877  25.441  0.00  0.00    -0.229 NA
ATOM     17  C   UNL     1      -3.939   1.347  25.145  0.00  0.00    +0.103 A 
ATOM     18  C   UNL     1      -3.889   1.340  24.322  0.00  0.00    +0.100 A 
ATOM     19  N   UNL     1      -3.249   0.866  24.108  0.00  0.00    -0.229 NA
ATOM     20  C   UNL     1      -4.434   1.768  23.873  0.00  0.00    +0.024 A 
ATOM     21  C   UNL     1      -5.028   2.201  24.247  0.00  0.00    +0.039 A 
ATOM     22  C   UNL     1      -5.077   2.207  25.071  0.00  0.00    +0.140 A 
ATOM     25  C   UNL     1      -4.533   1.781  25.520  0.00  0.00    +0.058 A 
BRANCH  22  23
ATOM     23  O   UNL     1      -5.671   2.641  25.445  0.00  0.00    -0.471 OA
ATOM     24  C   UNL     1      -5.532   3.424  25.668  0.00  0.00    +0.252 C 
ENDBRANCH  22  23
ENDBRANCH  14  15
ENDBRANCH  13  14
TORSDOF 8
ENDMDL
MODEL 4
REMARK VINA RESULT:      -7.0      2.226      3.055
REMARK  Name = 
REMARK  8 active torsions:
REMARK  status: ('A' for Active; 'I' for Inactive)
REMARK    1  A    between atoms: C_2  and  C_3
REMARK    2  A    between atoms: C_3  and  N_4
REMARK    3  A    between atoms: N_7  and  C_8
REMARK    4  A    between atoms: C_8  and  C_9
REMARK    5  A    between atoms: C_13  and  C_14
REMARK    6  A    between atoms: C_14  and  C_15
REMARK    7  A    between atoms: C_22  and  O_23
REMARK    8  A    between atoms: C_27  and  C_28
REMARK                            x       y       z     vdW  Elec       q    Type
REMARK                         _______ _______ _______ _____ _____    ______ ____
ROOT
ATOM      9  C   UNL     1      -0.757   2.760  25.749  0.00  0.00    +0.043 C 
ATOM     10  C   UNL     1      -1.047   3.519  25.900  0.00  0.00    -0.033 C 
ATOM     11  C   UNL     1      -1.723   3.786  25.511  0.00  0.00    -0.048 C 
ATOM     12  C   UNL     1      -2.013   4.545  25.662  0.00  0.00    +0.026 C 
ATOM     13  C   UNL     1      -2.109   3.297  24.970  0.00  0.00    +0.026 C 
ATOM     26  C   UNL     1      -1.820   2.540  24.819  0.00  0.00    +0.005 C 
ATOM     27  C   UNL     1      -1.144   2.271  25.209  0.00  0.00    +0.006 C 
ENDROOT
BRANCH  27  28
ATOM     28  C   UNL     1      -0.854   1.514  25.058  0.00  0.00    +0.000 C 
ATOM     29  C   UNL     1      -1.142   0.869  25.485  0.00  0.00    +0.000 C 
ATOM     30  C   UNL     1      -0.277   1.401  24.480  0.00  0.00    +0.000 C 
ENDBRANCH  27  28
BRANCH   9   8
ATOM      8  C   UNL     1      -0.082   2.492  26.139  0.00  0.00    +0.121 C 
BRANCH   8   7
ATOM      4  N   UNL     1       0.664   2.480  28.191  0.00  0.00    -0.187 NA
ATOM      5  C   UNL     1       0.650   2.513  27.366  0.00  0.00    +0.339 C 
ATOM      6  O   UNL     1       1.354   2.601  26.945  0.00  0.00    -0.249 OA
ATOM      7  N   UNL     1      -0.068   2.459  26.964  0.00  0.00    -0.187 NA
BRANCH   4   3
ATOM      3  C   UNL     1       1.382   2.534  28.593  0.00  0.00    +0.117 C 
BRANCH   3   2
ATOM      1  C   UNL     1       2.121   2.378  29.807  0.00  0.00    +0.002 C 
ATOM      2  C   UNL     1       1.399   2.467  29.415  0.00  0.00    +0.023 C 
ENDBRANCH   3   2
ENDBRANCH   4   3
ENDBRANCH   8   7
ENDBRANCH   9   8
BRANCH  13  14
ATOM     14  C   UNL     1      -2.785   3.566  24.581  0.00  0.00    +0.070 C 
BRANCH  14  15
ATOM     15  C   UNL     1      -3.511   3.198  24.711  0.00  0.00    +0.139 A 
ATOM     16  N   UNL     1      -3.994   3.299  25.373  0.00  0.00    -0.229 NA
ATOM     17  C   UNL     1      -4.664   2.827  25.274  0.00  0.00    +0.103 A 
ATOM     18  C   UNL     1      -4.594   2.435  24.551  0.00  0.00    +0.100 A 
ATOM     19  N   UNL     1      -3.882   2.664  24.203  0.00  0.00    -0.229 NA
ATOM     20  C   UNL     1      -5.190   1.919  24.303  0.00  0.00    +0.024 A 
ATOM     21  C   UNL     1      -5.853   1.797  24.777  0.00  0.00    +0.039 A 
ATOM     22  C   UNL     1      -5.922   2.189  25.500  0.00  0.00    +0.140 A 
ATOM     25  C   UNL     1      -5.328   2.704  25.748  0.00  0.00    +0.058 A 
BRANCH  22  23
ATOM     23  O   UNL     1      -6.585   2.066  25.974  0.00  0.00    -0.471 OA
ATOM     24  C   UNL     1      -6.517   1.640  26.678  0.00  0.00    +0.252 C 
ENDBRANCH  22  23
ENDBRANCH  14  15
ENDBRANCH  13  14
TORSDOF 8
ENDMDL
MODEL 5
REMARK VINA RESULT:      -6.8      1.242      6.285
REMARK  Name = 
REMARK  8 active torsions:
REMARK  status: ('A' for Active; 'I' for Inactive)
REMARK    1  A    between atoms: C_2  and  C_3
REMARK    2  A    between atoms: C_3  and  N_4
REMARK    3  A    between atoms: N_7  and  C_8
REMARK    4  A    between atoms: C_8  and  C_9
REMARK    5  A    between atoms: C_13  and  C_14
REMARK    6  A    between atoms: C_14  and  C_15
REMARK    7  A    between atoms: C_22  and  O_23
REMARK    8  A    between atoms: C_27  and  C_28
REMARK                            x       y       z     vdW  Elec       q    Type
REMARK                         _______ _______ _______ _____ _____    ______ ____
ROOT
ATOM      9  C   UNL     1      -1.713   1.650  24.836  0.00  0.00    +0.043 C 
ATOM     10  C   UNL     1      -2.043   0.901  24.723  0.00  0.00    -0.033 C 
ATOM     11  C   UNL     1      -1.555   0.257  24.559  0.00  0.00    -0.048 C 
ATOM     12  C   UNL     1      -1.884  -0.492  24.446  0.00  0.00    +0.026 C 
ATOM     13  C   UNL     1      -0.738   0.360  24.507  0.00  0.00    +0.026 C 
ATOM     26  C   UNL     1      -0.409   1.108  24.620  0.00  0.00    +0.005 C 
ATOM     27  C   UNL     1      -0.897   1.753  24.784  0.00  0.00    +0.006 C 
ENDROOT
BRANCH  27  28
ATOM     28  C   UNL     1      -0.568   2.501  24.897  0.00  0.00    +0.000 C 
ATOM     29  C   UNL     1      -0.514   3.028  24.264  0.00  0.00    +0.000 C 
ATOM     30  C   UNL     1      -0.292   2.722  25.642  0.00  0.00    +0.000 C 
ENDBRANCH  27  28
BRANCH   9   8
ATOM      8  C   UNL     1      -2.202   2.294  25.000  0.00  0.00    +0.121 C 
BRANCH   8   7
ATOM      4  N   UNL     1      -4.331   2.704  25.255  0.00  0.00    -0.187 NA
ATOM      5  C   UNL     1      -3.511   2.789  25.289  0.00  0.00    +0.339 C 
ATOM      6  O   UNL     1      -3.180   3.455  25.647  0.00  0.00    -0.249 OA
ATOM      7  N   UNL     1      -3.022   2.209  24.966  0.00  0.00    -0.187 NA
BRANCH   4   3
ATOM      3  C   UNL     1      -4.819   3.285  25.578  0.00  0.00    +0.117 C 
BRANCH   3   2
ATOM      1  C   UNL     1      -6.129   2.781  25.852  0.00  0.00    +0.002 C 
ATOM      2  C   UNL     1      -5.629   3.277  25.420  0.00  0.00    +0.023 C 
ENDBRANCH   3   2
ENDBRANCH   4   3
ENDBRANCH   8   7
ENDBRANCH   9   8
BRANCH  13  14
ATOM     14  C   UNL     1      -0.250  -0.285  24.343  0.00  0.00    +0.070 C 
BRANCH  14  15
ATOM     15  C   UNL     1       0.366  -0.209  23.801  0.00  0.00    +0.139 A 
ATOM     16  N   UNL     1       1.136   0.032  23.973  0.00  0.00    -0.229 NA
ATOM     17  C   UNL     1       1.568   0.029  23.269  0.00  0.00    +0.103 A 
ATOM     18  C   UNL     1       1.064  -0.214  22.663  0.00  0.00    +0.100 A 
ATOM     19  N   UNL     1       0.322  -0.361  22.991  0.00  0.00    -0.229 NA
ATOM     20  C   UNL     1       1.347  -0.270  21.890  0.00  0.00    +0.024 A 
ATOM     21  C   UNL     1       2.133  -0.083  21.723  0.00  0.00    +0.039 A 
ATOM     22  C   UNL     1       2.636   0.160  22.331  0.00  0.00    +0.140 A 
ATOM     25  C   UNL     1       2.354   0.216  23.103  0.00  0.00    +0.058 A 
BRANCH  22  23
ATOM     23  O   UNL     1       3.422   0.348  22.164  0.00  0.00    -0.471 OA
ATOM     24  C   UNL     1       3.842   0.853  22.666  0.00  0.00    +0.252 C 
ENDBRANCH  22  23
ENDBRANCH  14  15
ENDBRANCH  13  14
TORSDOF 8
ENDMDL
