MODEL 1
REMARK VINA RESULT:     -12.0      0.000      0.000
REMARK  Name = 
REMARK  7 active torsions:
REMARK  status: ('A' for Active; 'I' for Inactive)
REMARK    1  A    between atoms: C_2  and  N_4
REMARK    2  A    between atoms: C_5  and  C_7
REMARK    3  A    between atoms: C_7  and  C_8
REMARK    4  A    between atoms: C_13  and  C_14
REMARK    5  A    between atoms: C_14  and  C_15
REMARK    6  A    between atoms: C_18  and  C_19
REMARK    7  A    between atoms: C_19  and  C_20
REMARK                            x       y       z     vdW  Elec       q    Type
REMARK                         _______ _______ _______ _____ _____    ______ ____
ROOT
ATOM      8  C   UNL     1      -4.193   3.054  24.933  0.00  0.00    +0.012 C 
ATOM      9  C   UNL     1      -4.630   3.622  25.341  0.00  0.00    +0.019 C 
ATOM     10  C   UNL     1      -5.350   3.418  25.688  0.00  0.00    +0.089 C 
ATOM     11  N   UNL     1      -5.633   2.645  25.626  0.00  0.00    -0.218 NA
ATOM     12  C   UNL     1      -5.196   2.077  25.217  0.00  0.00    +0.089 C 
ATOM     13  C   UNL     1      -4.476   2.282  24.871  0.00  0.00    +0.024 C 
ENDROOT
BRANCH   8   7
ATOM      7  C   UNL     1      -3.472   3.259  24.587  0.00  0.00    +0.087 C 
BRANCH   7   5
ATOM      4  N   UNL     1      -2.142   3.758  24.731  0.00  0.00    -0.207 NA
ATOM      5  C   UNL     1      -2.910   3.677  25.020  0.00  0.00    +0.241 C 
ATOM      6  O   UNL     1      -3.115   4.015  25.745  0.00  0.00    -0.273 OA
BRANCH   4   2
ATOM      1  C   UNL     1      -1.052   3.773  25.654  0.00  0.00    +0.023 C 
ATOM      2  C   UNL     1      -1.579   4.176  25.165  0.00  0.00    +0.095 C 
ATOM      3  C   UNL     1      -1.543   4.999  25.108  0.00  0.00    +0.023 C 
ENDBRANCH   4   2
ENDBRANCH   7   5
ENDBRANCH   8   7
BRANCH  13  14
ATOM     14  C   UNL     1      -4.039   1.714  24.463  0.00  0.00    +0.051 C 
BRANCH  14  15
ATOM     15  C   UNL     1      -4.140   0.913  24.635  0.00  0.00    +0.100 A 
ATOM     16  N   UNL     1      -4.739   0.427  24.344  0.00  0.00    -0.082 NA
ATOM     17  O   UNL     1      -4.629  -0.328  24.657  0.00  0.00    -0.358 OA
ATOM     18  C   UNL     1      -3.961  -0.309  25.142  0.00  0.00    +0.154 A 
ATOM     26  C   UNL     1      -3.659   0.459  25.128  0.00  0.00    +0.054 A 
BRANCH  18  19
ATOM     19  C   UNL     1      -3.651  -0.945  25.566  0.00  0.00    +0.067 C 
BRANCH  19  20
ATOM     20  C   UNL     1      -3.247  -1.546  25.172  0.00  0.00    +0.008 C 
ATOM     21  C   UNL     1      -2.428  -1.497  25.076  0.00  0.00    +0.000 C 
ATOM     22  C   UNL     1      -2.023  -2.097  24.682  0.00  0.00    +0.000 C 
ATOM     23  C   UNL     1      -2.435  -2.748  24.385  0.00  0.00    +0.000 C 
ATOM     24  C   UNL     1      -3.253  -2.797  24.482  0.00  0.00    +0.000 C 
ATOM     25  C   UNL     1      -3.658  -2.196  24.875  0.00  0.00    +0.000 C 
ENDBRANCH  19  20
ENDBRANCH  18  19
ENDBRANCH  14  15
ENDBRANCH  13  14
TORSDOF 7
ENDMDL
MODEL 2
REMARK VINA RESULT:     -11.7      2.283      3.060
REMARK  Name = 
REMARK  7 active torsions:
REMARK  status: ('A' for Active; 'I' for Inactive)
REMARK    1  A    between atoms: C_2  and  N_4
REMARK    2  A    between atoms: C_5  and  C_7
REMARK    3  A    between atoms: C_7  and  C_8
REMARK    4  A    between atoms: C_13  and  C_14
REMARK    5  A    between atoms: C_14  and  C_15
REMARK    6  A    between atoms: C_18  and  C_19
REMARK    7  A    between atoms: C_19  and  C_20
REMARK                            x       y       z     vdW  Elec       q    Type
REMARK                         _______ _______ _______ _____ _____    ______ ____
ROOT
ATOM      8  C   UNL     1      -0.663   1.676  24.827  0.00  0.00    +0.012 C 
ATOM      9  C   UNL     1      -0.308   1.938  24.130  0.00  0.00    +0.019 C 
ATOM     10  C   UNL     1      -0.007   1.393  23.589  0.00  0.00    +0.089 C 
ATOM     11  N   UNL     1      -0.060   0.584  23.747  0.00  0.00    -0.218 NA
ATOM     12  C   UNL     1      -0.414   0.322  24.444  0.00  0.00    +0.089 C 
ATOM     13  C   UNL     1      -0.716   0.868  24.984  0.00  0.00    +0.024 C 
ENDROOT
BRANCH   8   7
ATOM      7  C   UNL     1      -0.964   2.222  25.367  0.00  0.00    +0.087 C 
BRANCH   7   5
ATOM      4  N   UNL     1      -1.044   3.637  25.539  0.00  0.00    -0.207 NA
ATOM      5  C   UNL     1      -1.225   2.959  25.107  0.00  0.00    +0.241 C 
ATOM      6  O   UNL     1      -1.667   3.018  24.413  0.00  0.00    -0.273 OA
BRANCH   4   2
ATOM      1  C   UNL     1      -2.086   4.606  25.408  0.00  0.00    +0.023 C 
ATOM      2  C   UNL     1      -1.306   4.375  25.279  0.00  0.00    +0.095 C 
ATOM      3  C   UNL     1      -0.785   4.883  24.889  0.00  0.00    +0.023 C 
ENDBRANCH   4   2
ENDBRANCH   7   5
ENDBRANCH   8   7
BRANCH  13  14
ATOM     14  C   UNL     1      -1.070   0.605  25.681  0.00  0.00    +0.051 C 
BRANCH  14  15
ATOM     15  C   UNL     1      -1.480  -0.111  25.691  0.00  0.00    +0.100 A 
ATOM     16  N   UNL     1      -1.141  -0.863  25.673  0.00  0.00    -0.082 NA
ATOM     17  O   UNL     1      -1.752  -1.417  25.693  0.00  0.00    -0.358 OA
ATOM     18  C   UNL     1      -2.468  -1.009  25.722  0.00  0.00    +0.154 A 
ATOM     26  C   UNL     1      -2.299  -0.201  25.722  0.00  0.00    +0.054 A 
BRANCH  18  19
ATOM     19  C   UNL     1      -3.219  -1.348  25.748  0.00  0.00    +0.067 C 
BRANCH  19  20
ATOM     20  C   UNL     1      -3.541  -1.692  25.072  0.00  0.00    +0.008 C 
ATOM     21  C   UNL     1      -3.971  -1.230  24.540  0.00  0.00    +0.000 C 
ATOM     22  C   UNL     1      -4.293  -1.573  23.863  0.00  0.00    +0.000 C 
ATOM     23  C   UNL     1      -4.186  -2.379  23.717  0.00  0.00    +0.000 C 
ATOM     24  C   UNL     1      -3.756  -2.840  24.249  0.00  0.00    +0.000 C 
ATOM     25  C   UNL     1      -3.434  -2.496  24.926  0.00  0.00    +0.000 C 
ENDBRANCH  19  20
ENDBRANCH  18  19
ENDBRANCH  14  15
ENDBRANCH  13  14
TORSDOF 7
ENDMDL
MODEL 3
REMARK VINA RESULT:     -11.5      0.933      4.910
REMARK  Name = 
REMARK  7 active torsions:
REMARK  status: ('A' for Active; 'I' for Inactive)
REMARK    1  A    between atoms: C_2  and  N_4
REMARK    2  A    between atoms: C_5  and  C_7
REMARK    3  A    between atoms: C_7  and  C_8
REMARK    4  A    between atoms: C_13  and  C_14
REMARK    5  A    between atoms: C_14  and  C_15
REMARK    6  A    between atoms: C_18  and  C_19
REMARK    7  A    between atoms: C_19  and  C_20
REMARK                            x       y       z     vdW  Elec       q    Type
REMARK                         _______ _______ _______ _____ _____    ______ ____
ROOT
ATOM      8  C   UNL     1      -4.671   0.977  24.795  0.00  0.00    +0.012 C 
ATOM      9  C   UNL     1      -5.308   0.618  25.177  0.00  0.00    +0.019 C 
ATOM     10  C   UNL     1      -5.957   1.070  25.412  0.00  0.00    +0.089 C 
ATOM     11  N   UNL     1      -5.968   1.882  25.266  0.00  0.00    -0.218 NA
ATOM     12  C   UNL     1      -5.331   2.242  24.884  0.00  0.00    +0.089 C 
ATOM     13  C   UNL     1      -4.683   1.789  24.648  0.00  0.00    +0.024 C 
ENDROOT
BRANCH   8   7
ATOM      7  C   UNL     1      -4.023   0.524  24.559  0.00  0.00    +0.087 C 
BRANCH   7   5
ATOM      4  N   UNL     1      -3.837  -0.812  24.090  0.00  0.00    -0.207 NA
ATOM      5  C   UNL     1      -4.013  -0.288  24.702  0.00  0.00    +0.241 C 
ATOM      6  O   UNL     1      -4.180  -0.576  25.457  0.00  0.00    -0.273 OA
BRANCH   4   2
ATOM      1  C   UNL     1      -4.374  -2.115  23.860  0.00  0.00    +0.023 C 
ATOM      2  C   UNL     1      -3.827  -1.624  24.232  0.00  0.00    +0.095 C 
ATOM      3  C   UNL     1      -3.268  -1.946  24.747  0.00  0.00    +0.023 C 
ENDBRANCH   4   2
ENDBRANCH   7   5
ENDBRANCH   8   7
BRANCH  13  14
ATOM     14  C   UNL     1      -4.046   2.148  24.266  0.00  0.00    +0.051 C 
BRANCH  14  15
ATOM     15  C   UNL     1      -3.764   2.877  24.531  0.00  0.00    +0.100 A 
ATOM     16  N   UNL     1      -4.043   3.618  24.299  0.00  0.00    -0.082 NA
ATOM     17  O   UNL     1      -3.605   4.191  24.699  0.00  0.00    -0.358 OA
ATOM     18  C   UNL     1      -3.055   3.805  25.177  0.00  0.00    +0.154 A 
ATOM     26  C   UNL     1      -3.153   2.993  25.073  0.00  0.00    +0.054 A 
BRANCH  18  19
ATOM     19  C   UNL     1      -2.503   4.168  25.672  0.00  0.00    +0.067 C 
BRANCH  19  20
ATOM     20  C   UNL     1      -1.782   4.428  25.367  0.00  0.00    +0.008 C 
ATOM     21  C   UNL     1      -1.694   5.214  25.131  0.00  0.00    +0.000 C 
ATOM     22  C   UNL     1      -0.974   5.474  24.827  0.00  0.00    +0.000 C 
ATOM     23  C   UNL     1      -0.340   4.949  24.758  0.00  0.00    +0.000 C 
ATOM     24  C   UNL     1      -0.429   4.164  24.994  0.00  0.00    +0.000 C 
ATOM     25  C   UNL     1      -1.150   3.903  25.298  0.00  0.00    +0.000 C 
ENDBRANCH  19  20
ENDBRANCH  18  19
ENDBRANCH  14  15
ENDBRANCH  13  14
TORSDOF 7
ENDMDL
MODEL 4
REMARK VINA RESULT:     -10.8      1.696      2.833
REMARK  Name = 
REMARK  7 active torsions:
REMARK  status: ('A' for Active; 'I' for Inactive)
REMARK    1  A    between atoms: C_2  and  N_4
REMARK    2  A    between atoms: C_5  and  C_7
REMARK    3  A    between atoms: C_7  and  C_8
REMARK    4  A    between atoms: C_13  and  C_14
REMARK    5  A    between atoms: C_14  and  C_15
REMARK    6  A    between atoms: C_18  and  C_19
REMARK    7  A    between atoms: C_19  and  C_20
REMARK                            x       y       z     vdW  Elec       q    Type
REMARK                         _______ _______ _______ _____ _____    ______ ____
ROOT
ATOM      8  C   UNL     1      -2.901   2.318  24.076  0.00  0.00    +0.012 C 
ATOM      9  C   UNL     1      -3.250   2.516  23.355  0.00  0.00    +0.019 C 
ATOM     10  C   UNL     1      -2.908   2.265  22.648  0.00  0.00    +0.089 C 
ATOM     11  N   UNL     1      -2.215   1.816  22.662  0.00  0.00    -0.218 NA
ATOM     12  C   UNL     1      -1.866   1.618  23.382  0.00  0.00    +0.089 C 
ATOM     13  C   UNL     1      -2.209   1.869  24.089  0.00  0.00    +0.024 C 
ENDROOT
BRANCH   8   7
ATOM      7  C   UNL     1      -3.244   2.570  24.783  0.00  0.00    +0.087 C 
BRANCH   7   5
ATOM      4  N   UNL     1      -4.549   2.383  25.330  0.00  0.00    -0.207 NA
ATOM      5  C   UNL     1      -4.044   2.768  24.806  0.00  0.00    +0.241 C 
ATOM      6  O   UNL     1      -4.338   3.353  24.304  0.00  0.00    -0.273 OA
BRANCH   4   2
ATOM      1  C   UNL     1      -5.915   2.054  25.068  0.00  0.00    +0.023 C 
ATOM      2  C   UNL     1      -5.350   2.582  25.354  0.00  0.00    +0.095 C 
ATOM      3  C   UNL     1      -5.585   3.309  25.663  0.00  0.00    +0.023 C 
ENDBRANCH   4   2
ENDBRANCH   7   5
ENDBRANCH   8   7
BRANCH  13  14
ATOM     14  C   UNL     1      -1.860   1.672  24.810  0.00  0.00    +0.051 C 
BRANCH  14  15
ATOM     15  C   UNL     1      -1.588   0.903  24.940  0.00  0.00    +0.100 A 
ATOM     16  N   UNL     1      -0.853   0.605  24.712  0.00  0.00    -0.082 NA
ATOM     17  O   UNL     1      -0.814  -0.184  24.951  0.00  0.00    -0.358 OA
ATOM     18  C   UNL     1      -1.524  -0.373  25.328  0.00  0.00    +0.154 A 
ATOM     26  C   UNL     1      -2.002   0.300  25.320  0.00  0.00    +0.054 A 
BRANCH  18  19
ATOM     19  C   UNL     1      -1.720  -1.104  25.653  0.00  0.00    +0.067 C 
BRANCH  19  20
ATOM     20  C   UNL     1      -2.258  -1.597  25.269  0.00  0.00    +0.008 C 
ATOM     21  C   UNL     1      -3.059  -1.564  25.464  0.00  0.00    +0.000 C 
ATOM     22  C   UNL     1      -3.598  -2.057  25.080  0.00  0.00    +0.000 C 
ATOM     23  C   UNL     1      -3.335  -2.583  24.500  0.00  0.00    +0.000 C 
ATOM     24  C   UNL     1      -2.535  -2.615  24.305  0.00  0.00    +0.000 C 
ATOM     25  C   UNL     1      -1.996  -2.123  24.689  0.00  0.00    +0.000 C 
ENDBRANCH  19  20
ENDBRANCH  18  19
ENDBRANCH  14  15
ENDBRANCH  13  14
TORSDOF 7
ENDMDL
MODEL 5
REMARK VINA RESULT:     -10.6      1.463      4.808
REMARK  Name = 
REMARK  7 active torsions:
REMARK  status: ('A' for Active; 'I' for Inactive)
REMARK    1  A    between atoms: C_2  and  N_4
REMARK    2  A    between atoms: C_5  and  C_7
REMARK    3  A    between atoms: C_7  and  C_8
REMARK    4  A    between atoms: C_13  and  C_14
REMARK    5  A    between atoms: C_14  and  C_15
REMARK    6  A    between atoms: C_18  and  C_19
REMARK    7  A    between atoms: C_19  and  C_20
REMARK                            x       y       z     vdW  Elec       q    Type
REMARK                         _______ _______ _______ _____ _____    ______ ____
ROOT
ATOM      8  C   UNL     1      -3.349  -1.522  24.814  0.00  0.00    +0.012 C 
ATOM      9  C   UNL     1      -3.423  -2.154  24.288  0.00  0.00    +0.019 C 
ATOM     10  C   UNL     1      -4.060  -2.184  23.765  0.00  0.00    +0.089 C 
ATOM     11  N   UNL     1      -4.625  -1.582  23.769  0.00  0.00    -0.218 NA
ATOM     12  C   UNL     1      -4.552  -0.951  24.295  0.00  0.00    +0.089 C 
ATOM     13  C   UNL     1      -3.913  -0.921  24.817  0.00  0.00    +0.024 C 
ENDROOT
BRANCH   8   7
ATOM      7  C   UNL     1      -2.711  -1.493  25.336  0.00  0.00    +0.087 C 
BRANCH   7   5
ATOM      4  N   UNL     1      -1.325  -1.168  25.222  0.00  0.00    -0.207 NA
ATOM      5  C   UNL     1      -1.953  -1.681  25.072  0.00  0.00    +0.241 C 
ATOM      6  O   UNL     1      -1.822  -2.382  24.657  0.00  0.00    -0.273 OA
BRANCH   4   2
ATOM      1  C   UNL     1      -0.240  -0.951  24.319  0.00  0.00    +0.023 C 
ATOM      2  C   UNL     1      -0.566  -1.355  24.959  0.00  0.00    +0.095 C 
ATOM      3  C   UNL     1      -0.133  -1.948  25.336  0.00  0.00    +0.023 C 
ENDBRANCH   4   2
ENDBRANCH   7   5
ENDBRANCH   8   7
BRANCH  13  14
ATOM     14  C   UNL     1      -3.840  -0.290  25.343  0.00  0.00    +0.051 C 
BRANCH  14  15
ATOM     15  C   UNL     1      -4.156   0.448  25.150  0.00  0.00    +0.100 A 
ATOM     16  N   UNL     1      -4.940   0.682  25.257  0.00  0.00    -0.082 NA
ATOM     17  O   UNL     1      -5.012   1.458  24.989  0.00  0.00    -0.358 OA
ATOM     18  C   UNL     1      -4.274   1.704  24.716  0.00  0.00    +0.154 A 
ATOM     26  C   UNL     1      -3.745   1.079  24.815  0.00  0.00    +0.054 A 
BRANCH  18  19
ATOM     19  C   UNL     1      -4.096   2.445  24.399  0.00  0.00    +0.067 C 
BRANCH  19  20
ATOM     20  C   UNL     1      -3.699   3.005  24.855  0.00  0.00    +0.008 C 
ATOM     21  C   UNL     1      -2.888   3.118  24.755  0.00  0.00    +0.000 C 
ATOM     22  C   UNL     1      -2.490   3.679  25.210  0.00  0.00    +0.000 C 
ATOM     23  C   UNL     1      -2.903   4.127  25.767  0.00  0.00    +0.000 C 
ATOM     24  C   UNL     1      -3.714   4.014  25.867  0.00  0.00    +0.000 C 
ATOM     25  C   UNL     1      -4.112   3.453  25.411  0.00  0.00    +0.000 C 
ENDBRANCH  19  20
ENDBRANCH  18  19
ENDBRANCH  14  15
ENDBRANCH  13  14
TORSDOF 7
ENDMDL
