MODEL 1
REMARK VINA RESULT:     -11.2      0.000      0.000
REMARK  Name = 
REMARK  4 active torsions:
REMARK  status: ('A' for Active; 'I' for Inactive)
REMARK    1  A    between atoms: C_2  and  N_4
REMARK    2  A    between atoms: C_9  and  C_10
REMARK    3  A    between atoms: C_12  and  C_13
REMARK    4  A    between atoms: C_13  and  C_14
REMARK                            x       y       z     vdW  Elec       q    Type
REMARK                         _______ _______ _______ _____ _____    ______ ____
ROOT
ATOM     10  C   UNL     1      -3.418   1.694  24.639  0.00  0.00    +0.251 A 
ATOM     11  N   UNL     1      -3.369   1.046  25.147  0.00  0.00    -0.193 NA
ATOM     12  C   UNL     1      -4.013   0.553  24.993  0.00  0.00    +0.185 A 
ATOM     22  N   UNL     1      -4.459   0.896  24.389  0.00  0.00    -0.060 NA
ATOM     23  O   UNL     1      -4.091   1.602  24.171  0.00  0.00    -0.336 OA
ENDROOT
BRANCH  10   9
ATOM      4  N   UNL     1      -2.275   2.414  24.059  0.00  0.00    -0.265 NA
ATOM      5  C   UNL     1      -1.883   3.121  24.228  0.00  0.00    +0.106 C 
ATOM      6  C   UNL     1      -2.253   3.468  24.879  0.00  0.00    +0.170 C 
ATOM      7  O   UNL     1      -2.041   4.181  25.234  0.00  0.00    -0.222 OA
ATOM      8  C   UNL     1      -2.873   2.976  25.112  0.00  0.00    +0.060 C 
ATOM      9  C   UNL     1      -2.886   2.325  24.605  0.00  0.00    +0.140 C 
BRANCH   4   2
ATOM      1  C   UNL     1      -1.503   1.318  23.564  0.00  0.00    +0.017 C 
ATOM      2  C   UNL     1      -2.088   1.890  23.450  0.00  0.00    +0.058 C 
ATOM      3  C   UNL     1      -2.484   1.937  22.729  0.00  0.00    +0.017 C 
ENDBRANCH   4   2
ENDBRANCH  10   9
BRANCH  12  13
ATOM     13  C   UNL     1      -4.180  -0.159  25.374  0.00  0.00    +0.096 C 
BRANCH  13  14
ATOM     14  C   UNL     1      -4.013  -0.877  25.002  0.00  0.00    -0.004 A 
ATOM     15  C   UNL     1      -4.274  -1.012  24.232  0.00  0.00    -0.001 A 
ATOM     16  C   UNL     1      -4.106  -1.730  23.860  0.00  0.00    +0.029 A 
ATOM     17  C   UNL     1      -3.679  -2.312  24.260  0.00  0.00    +0.141 A 
ATOM     18  F   UNL     1      -3.512  -3.029  23.888  0.00  0.00    -0.204 F 
ATOM     19  C   UNL     1      -3.419  -2.175  25.031  0.00  0.00    +0.041 A 
ATOM     20  C   UNL     1      -3.586  -1.458  25.402  0.00  0.00    +0.056 A 
ATOM     21 CL   UNL     1      -3.325  -1.322  26.173  0.00  0.00    -0.082 Cl
ENDBRANCH  13  14
ENDBRANCH  12  13
TORSDOF 4
ENDMDL
MODEL 2
REMARK VINA RESULT:     -11.0      1.402      2.002
REMARK  Name = 
REMARK  4 active torsions:
REMARK  status: ('A' for Active; 'I' for Inactive)
REMARK    1  A    between atoms: C_2  and  N_4
REMARK    2  A    between atoms: C_9  and  C_10
REMARK    3  A    between atoms: C_12  and  C_13
REMARK    4  A    between atoms: C_13  and  C_14
REMARK                            x       y       z     vdW  Elec       q    Type
REMARK                         _______ _______ _______ _____ _____    ______ ____
ROOT
ATOM     10  C   UNL     1      -4.076   1.617  24.674  0.00  0.00    +0.251 A 
ATOM     11  N   UNL     1      -3.645   1.001  25.011  0.00  0.00    -0.193 NA
ATOM     12  C   UNL     1      -3.313   0.557  24.399  0.00  0.00    +0.185 A 
ATOM     22  N   UNL     1      -3.539   0.900  23.684  0.00  0.00    -0.060 NA
ATOM     23  O   UNL     1      -4.011   1.555  23.853  0.00  0.00    -0.336 OA
ENDROOT
BRANCH  10   9
ATOM      4  N   UNL     1      -4.278   2.984  25.175  0.00  0.00    -0.265 NA
ATOM      5  C   UNL     1      -4.859   3.362  25.623  0.00  0.00    +0.106 C 
ATOM      6  C   UNL     1      -5.440   2.805  25.809  0.00  0.00    +0.170 C 
ATOM      7  O   UNL     1      -6.122   2.946  26.250  0.00  0.00    -0.222 OA
ATOM      8  C   UNL     1      -5.217   2.084  25.476  0.00  0.00    +0.060 C 
ATOM      9  C   UNL     1      -4.499   2.195  25.084  0.00  0.00    +0.140 C 
BRANCH   4   2
ATOM      1  C   UNL     1      -3.600   3.655  24.111  0.00  0.00    +0.017 C 
ATOM      2  C   UNL     1      -3.596   3.335  24.872  0.00  0.00    +0.058 C 
ATOM      3  C   UNL     1      -2.910   3.366  25.329  0.00  0.00    +0.017 C 
ENDBRANCH   4   2
ENDBRANCH  10   9
BRANCH  12  13
ATOM     13  C   UNL     1      -2.838  -0.111  24.488  0.00  0.00    +0.096 C 
BRANCH  13  14
ATOM     14  C   UNL     1      -3.171  -0.865  24.436  0.00  0.00    -0.004 A 
ATOM     15  C   UNL     1      -3.829  -0.992  23.956  0.00  0.00    -0.001 A 
ATOM     16  C   UNL     1      -4.162  -1.746  23.904  0.00  0.00    +0.029 A 
ATOM     17  C   UNL     1      -3.837  -2.371  24.333  0.00  0.00    +0.141 A 
ATOM     18  F   UNL     1      -4.169  -3.124  24.282  0.00  0.00    -0.204 F 
ATOM     19  C   UNL     1      -3.178  -2.242  24.814  0.00  0.00    +0.041 A 
ATOM     20  C   UNL     1      -2.846  -1.489  24.865  0.00  0.00    +0.056 A 
ATOM     21 CL   UNL     1      -2.187  -1.361  25.346  0.00  0.00    -0.082 Cl
ENDBRANCH  13  14
ENDBRANCH  12  13
TORSDOF 4
ENDMDL
MODEL 3
REMARK VINA RESULT:     -10.6      1.964      2.181
REMARK  Name = 
REMARK  4 active torsions:
REMARK  status: ('A' for Active; 'I' for Inactive)
REMARK    1  A    between atoms: C_2  and  N_4
REMARK    2  A    between atoms: C_9  and  C_10
REMARK    3  A    between atoms: C_12  and  C_13
REMARK    4  A    between atoms: C_13  and  C_14
REMARK                            x       y       z     vdW  Elec       q    Type
REMARK                         _______ _______ _______ _____ _____    ______ ____
ROOT
ATOM     10  C   UNL     1      -1.291   0.343  25.474  0.00  0.00    +0.251 A 
ATOM     11  N   UNL     1      -2.113   0.366  25.412  0.00  0.00    -0.193 NA
ATOM     12  C   UNL     1      -2.404  -0.382  25.605  0.00  0.00    +0.185 A 
ATOM     22  N   UNL     1      -1.761  -0.867  25.786  0.00  0.00    -0.060 NA
ATOM     23  O   UNL     1      -1.073  -0.418  25.705  0.00  0.00    -0.336 OA
ENDROOT
BRANCH  10   9
ATOM      4  N   UNL     1      -0.408   1.142  24.612  0.00  0.00    -0.265 NA
ATOM      5  C   UNL     1       0.056   1.817  24.717  0.00  0.00    +0.106 C 
ATOM      6  C   UNL     1      -0.027   2.064  25.500  0.00  0.00    +0.170 C 
ATOM      7  O   UNL     1       0.340   2.718  25.843  0.00  0.00    -0.222 OA
ATOM      8  C   UNL     1      -0.542   1.542  25.878  0.00  0.00    +0.060 C 
ATOM      9  C   UNL     1      -0.777   0.972  25.330  0.00  0.00    +0.140 C 
BRANCH   4   2
ATOM      1  C   UNL     1      -0.006   0.057  23.773  0.00  0.00    +0.017 C 
ATOM      2  C   UNL     1      -0.488   0.713  23.912  0.00  0.00    +0.058 C 
ATOM      3  C   UNL     1      -1.049   0.939  23.352  0.00  0.00    +0.017 C 
ENDBRANCH   4   2
ENDBRANCH  10   9
BRANCH  12  13
ATOM     13  C   UNL     1      -3.198  -0.606  25.615  0.00  0.00    +0.096 C 
BRANCH  13  14
ATOM     14  C   UNL     1      -3.482  -1.146  25.059  0.00  0.00    -0.004 A 
ATOM     15  C   UNL     1      -3.151  -1.900  25.009  0.00  0.00    -0.001 A 
ATOM     16  C   UNL     1      -3.436  -2.439  24.453  0.00  0.00    +0.029 A 
ATOM     17  C   UNL     1      -4.050  -2.224  23.946  0.00  0.00    +0.141 A 
ATOM     18  F   UNL     1      -4.335  -2.763  23.390  0.00  0.00    -0.204 F 
ATOM     19  C   UNL     1      -4.381  -1.469  23.997  0.00  0.00    +0.041 A 
ATOM     20  C   UNL     1      -4.097  -0.930  24.553  0.00  0.00    +0.056 A 
ATOM     21 CL   UNL     1      -4.427  -0.176  24.603  0.00  0.00    -0.082 Cl
ENDBRANCH  13  14
ENDBRANCH  12  13
TORSDOF 4
ENDMDL
MODEL 4
REMARK VINA RESULT:     -10.5      1.575      2.336
REMARK  Name = 
REMARK  4 active torsions:
REMARK  status: ('A' for Active; 'I' for Inactive)
REMARK    1  A    between atoms: C_2  and  N_4
REMARK    2  A    between atoms: C_9  and  C_10
REMARK    3  A    between atoms: C_12  and  C_13
REMARK    4  A    between atoms: C_13  and  C_14
REMARK                            x       y       z     vdW  Elec       q    Type
REMARK                         _______ _______ _______ _____ _____    ______ ____
ROOT
ATOM     10  C   UNL     1      -4.290   1.109  24.893  0.00  0.00    +0.251 A 
ATOM     11  N   UNL     1      -4.208   0.567  24.276  0.00  0.00    -0.193 NA
ATOM     12  C   UNL     1      -4.208  -0.191  24.601  0.00  0.00    +0.185 A 
ATOM     22  N   UNL     1      -4.290  -0.118  25.419  0.00  0.00    -0.060 NA
ATOM     23  O   UNL     1      -4.340   0.685  25.599  0.00  0.00    -0.336 OA
ENDROOT
BRANCH  10   9
ATOM      4  N   UNL     1      -4.964   2.412  24.985  0.00  0.00    -0.265 NA
ATOM      5  C   UNL     1      -4.748   3.193  24.831  0.00  0.00    +0.106 C 
ATOM      6  C   UNL     1      -3.966   3.194  24.568  0.00  0.00    +0.170 C 
ATOM      7  O   UNL     1      -3.528   3.859  24.352  0.00  0.00    -0.222 OA
ATOM      8  C   UNL     1      -3.699   2.414  24.559  0.00  0.00    +0.060 C 
ATOM      9  C   UNL     1      -4.316   1.930  24.817  0.00  0.00    +0.140 C 
BRANCH   4   2
ATOM      1  C   UNL     1      -6.281   1.923  24.721  0.00  0.00    +0.017 C 
ATOM      2  C   UNL     1      -5.700   2.157  25.259  0.00  0.00    +0.058 C 
ATOM      3  C   UNL     1      -5.854   2.137  26.068  0.00  0.00    +0.017 C 
ENDBRANCH   4   2
ENDBRANCH  10   9
BRANCH  12  13
ATOM     13  C   UNL     1      -4.138  -0.898  24.182  0.00  0.00    +0.096 C 
BRANCH  13  14
ATOM     14  C   UNL     1      -3.496  -1.398  24.319  0.00  0.00    -0.004 A 
ATOM     15  C   UNL     1      -2.772  -1.084  24.559  0.00  0.00    -0.001 A 
ATOM     16  C   UNL     1      -2.131  -1.584  24.695  0.00  0.00    +0.029 A 
ATOM     17  C   UNL     1      -2.213  -2.398  24.592  0.00  0.00    +0.141 A 
ATOM     18  F   UNL     1      -1.571  -2.898  24.729  0.00  0.00    -0.204 F 
ATOM     19  C   UNL     1      -2.937  -2.713  24.352  0.00  0.00    +0.041 A 
ATOM     20  C   UNL     1      -3.579  -2.212  24.215  0.00  0.00    +0.056 A 
ATOM     21 CL   UNL     1      -4.303  -2.527  23.975  0.00  0.00    -0.082 Cl
ENDBRANCH  13  14
ENDBRANCH  12  13
TORSDOF 4
ENDMDL
MODEL 5
REMARK VINA RESULT:     -10.5      2.385      4.385
REMARK  Name = 
REMARK  4 active torsions:
REMARK  status: ('A' for Active; 'I' for Inactive)
REMARK    1  A    between atoms: C_2  and  N_4
REMARK    2  A    between atoms: C_9  and  C_10
REMARK    3  A    between atoms: C_12  and  C_13
REMARK    4  A    between atoms: C_13  and  C_14
REMARK                            x       y       z     vdW  Elec       q    Type
REMARK                         _______ _______ _______ _____ _____    ______ ____
ROOT
ATOM     10  C   UNL     1      -3.641   0.274  24.052  0.00  0.00    +0.251 A 
ATOM     11  N   UNL     1      -4.139   0.819  24.418  0.00  0.00    -0.193 NA
ATOM     12  C   UNL     1      -3.946   1.571  24.136  0.00  0.00    +0.185 A 
ATOM     22  N   UNL     1      -3.328   1.489  23.595  0.00  0.00    -0.060 NA
ATOM     23  O   UNL     1      -3.139   0.687  23.543  0.00  0.00    -0.336 OA
ENDROOT
BRANCH  10   9
ATOM      4  N   UNL     1      -3.109  -0.965  24.637  0.00  0.00    -0.265 NA
ATOM      5  C   UNL     1      -3.316  -1.764  24.602  0.00  0.00    +0.106 C 
ATOM      6  C   UNL     1      -3.979  -1.834  24.114  0.00  0.00    +0.170 C 
ATOM      7  O   UNL     1      -4.369  -2.535  23.926  0.00  0.00    -0.222 OA
ATOM      8  C   UNL     1      -4.181  -1.079  23.849  0.00  0.00    +0.060 C 
ATOM      9  C   UNL     1      -3.643  -0.543  24.172  0.00  0.00    +0.140 C 
BRANCH   4   2
ATOM      1  C   UNL     1      -2.573  -0.459  25.861  0.00  0.00    +0.017 C 
ATOM      2  C   UNL     1      -2.478  -0.647  25.063  0.00  0.00    +0.058 C 
ATOM      3  C   UNL     1      -1.754  -0.516  24.691  0.00  0.00    +0.017 C 
ENDBRANCH   4   2
ENDBRANCH  10   9
BRANCH  12  13
ATOM     13  C   UNL     1      -4.307   2.278  24.356  0.00  0.00    +0.096 C 
BRANCH  13  14
ATOM     14  C   UNL     1      -3.909   2.811  24.845  0.00  0.00    -0.004 A 
ATOM     15  C   UNL     1      -3.112   2.974  24.714  0.00  0.00    -0.001 A 
ATOM     16  C   UNL     1      -2.714   3.507  25.203  0.00  0.00    +0.029 A 
ATOM     17  C   UNL     1      -3.114   3.876  25.823  0.00  0.00    +0.141 A 
ATOM     18  F   UNL     1      -2.717   4.408  26.312  0.00  0.00    -0.204 F 
ATOM     19  C   UNL     1      -3.912   3.712  25.954  0.00  0.00    +0.041 A 
ATOM     20  C   UNL     1      -4.310   3.180  25.465  0.00  0.00    +0.056 A 
ATOM     21 CL   UNL     1      -5.108   3.016  25.596  0.00  0.00    -0.082 Cl
ENDBRANCH  13  14
ENDBRANCH  12  13
TORSDOF 4
ENDMDL
MODEL 6
REMARK VINA RESULT:     -10.5      2.538      4.032
REMARK  Name = 
REMARK  4 active torsions:
REMARK  status: ('A' for Active; 'I' for Inactive)
REMARK    1  A    between atoms: C_2  and  N_4
REMARK    2  A    between atoms: C_9  and  C_10
REMARK    3  A    between atoms: C_12  and  C_13
REMARK    4  A    between atoms: C_13  and  C_14
REMARK                            x       y       z     vdW  Elec       q    Type
REMARK                         _______ _______ _______ _____ _____    ______ ____
ROOT
ATOM     10  C   UNL     1      -2.587   0.397  24.311  0.00  0.00    +0.251 A 
ATOM     11  N   UNL     1      -2.622   1.154  24.636  0.00  0.00    -0.193 NA
ATOM     12  C   UNL     1      -3.130   1.608  24.170  0.00  0.00    +0.185 A 
ATOM     22  N   UNL     1      -3.408   1.131  23.557  0.00  0.00    -0.060 NA
ATOM     23  O   UNL     1      -3.072   0.382  23.644  0.00  0.00    -0.336 OA
ENDROOT
BRANCH  10   9
ATOM      4  N   UNL     1      -2.445  -0.920  24.948  0.00  0.00    -0.265 NA
ATOM      5  C   UNL     1      -1.808  -1.402  25.158  0.00  0.00    +0.106 C 
ATOM      6  C   UNL     1      -1.113  -1.013  24.942  0.00  0.00    +0.170 C 
ATOM      7  O   UNL     1      -0.346  -1.297  25.050  0.00  0.00    -0.222 OA
ATOM      8  C   UNL     1      -1.320  -0.292  24.598  0.00  0.00    +0.060 C 
ATOM      9  C   UNL     1      -2.143  -0.235  24.602  0.00  0.00    +0.140 C 
BRANCH   4   2
ATOM      1  C   UNL     1      -3.603  -0.917  25.785  0.00  0.00    +0.017 C 
ATOM      2  C   UNL     1      -3.243  -1.094  25.064  0.00  0.00    +0.058 C 
ATOM      3  C   UNL     1      -3.680  -1.445  24.459  0.00  0.00    +0.017 C 
ENDBRANCH   4   2
ENDBRANCH  10   9
BRANCH  12  13
ATOM     13  C   UNL     1      -3.325   2.400  24.295  0.00  0.00    +0.096 C 
BRANCH  13  14
ATOM     14  C   UNL     1      -4.003   2.595  24.724  0.00  0.00    -0.004 A 
ATOM     15  C   UNL     1      -4.713   2.203  24.575  0.00  0.00    -0.001 A 
ATOM     16  C   UNL     1      -5.389   2.399  25.004  0.00  0.00    +0.029 A 
ATOM     17  C   UNL     1      -5.357   2.987  25.582  0.00  0.00    +0.141 A 
ATOM     18  F   UNL     1      -6.033   3.183  26.011  0.00  0.00    -0.204 F 
ATOM     19  C   UNL     1      -4.646   3.379  25.730  0.00  0.00    +0.041 A 
ATOM     20  C   UNL     1      -3.969   3.184  25.301  0.00  0.00    +0.056 A 
ATOM     21 CL   UNL     1      -3.258   3.576  25.450  0.00  0.00    -0.082 Cl
ENDBRANCH  13  14
ENDBRANCH  12  13
TORSDOF 4
ENDMDL
