MODEL 1
REMARK VINA RESULT:     -10.9      0.000      0.000
REMARK  Name = 
REMARK  3 active torsions:
REMARK  status: ('A' for Active; 'I' for Inactive)
REMARK    1  A    between atoms: O_2  and  C_3
REMARK    2  A    between atoms: C_3  and  C_5
REMARK    3  A    between atoms: C_11  and  C_13
REMARK                            x       y       z     vdW  Elec       q    Type
REMARK                         _______ _______ _______ _____ _____    ______ ____
ROOT
ATOM      5  C   UNL     1      -3.852   1.904  24.693  0.00  0.00    +0.181 C 
ATOM      6  C   UNL     1      -3.281   2.471  24.514  0.00  0.00    +0.078 C 
ATOM      7  C   UNL     1      -2.515   2.238  24.314  0.00  0.00    +0.076 A 
ATOM      8  C   UNL     1      -2.321   1.436  24.294  0.00  0.00    +0.072 A 
ATOM      9  C   UNL     1      -2.892   0.868  24.474  0.00  0.00    +0.139 C 
ATOM     10  N   UNL     1      -3.657   1.102  24.674  0.00  0.00    -0.262 N 
ATOM     11  C   UNL     1      -4.228   0.534  24.853  0.00  0.00    +0.250 C 
ATOM     12  O   UNL     1      -4.994   0.769  25.053  0.00  0.00    -0.270 OA
ATOM     19  N   UNL     1      -1.527   1.372  24.080  0.00  0.00    -0.309 N 
ATOM     20  C   UNL     1      -1.104   0.669  23.994  0.00  0.00    +0.132 C 
ATOM     21  C   UNL     1      -1.231   2.133  23.967  0.00  0.00    +0.178 A 
ATOM     22  N   UNL     1      -1.842   2.668  24.112  0.00  0.00    -0.229 NA
ENDROOT
BRANCH  11  13
ATOM     13  C   UNL     1      -4.033  -0.267  24.834  0.00  0.00    +0.054 A 
ATOM     14  C   UNL     1      -4.144  -0.701  24.142  0.00  0.00    +0.005 A 
ATOM     15  C   UNL     1      -3.950  -1.502  24.122  0.00  0.00    +0.000 A 
ATOM     16  C   UNL     1      -3.644  -1.870  24.794  0.00  0.00    +0.000 A 
ATOM     17  C   UNL     1      -3.533  -1.435  25.487  0.00  0.00    +0.000 A 
ATOM     18  C   UNL     1      -3.728  -0.634  25.507  0.00  0.00    +0.005 A 
ENDBRANCH  11  13
BRANCH   5   3
ATOM      3  C   UNL     1      -4.617   2.137  24.893  0.00  0.00    +0.336 C 
ATOM      4  O   UNL     1      -5.213   2.129  24.322  0.00  0.00    -0.248 OA
BRANCH   3   2
ATOM      1  C   UNL     1      -5.459   2.833  25.814  0.00  0.00    +0.256 C 
ATOM      2  O   UNL     1      -4.788   2.380  25.663  0.00  0.00    -0.443 OA
ENDBRANCH   3   2
ENDBRANCH   5   3
TORSDOF 3
ENDMDL
MODEL 2
REMARK VINA RESULT:     -10.5      1.468      2.611
REMARK  Name = 
REMARK  3 active torsions:
REMARK  status: ('A' for Active; 'I' for Inactive)
REMARK    1  A    between atoms: O_2  and  C_3
REMARK    2  A    between atoms: C_3  and  C_5
REMARK    3  A    between atoms: C_11  and  C_13
REMARK                            x       y       z     vdW  Elec       q    Type
REMARK                         _______ _______ _______ _____ _____    ______ ____
ROOT
ATOM      5  C   UNL     1      -3.073   2.214  24.362  0.00  0.00    +0.181 C 
ATOM      6  C   UNL     1      -3.481   2.904  24.554  0.00  0.00    +0.078 C 
ATOM      7  C   UNL     1      -4.232   2.860  24.893  0.00  0.00    +0.076 A 
ATOM      8  C   UNL     1      -4.575   2.124  25.040  0.00  0.00    +0.072 A 
ATOM      9  C   UNL     1      -4.167   1.432  24.848  0.00  0.00    +0.139 C 
ATOM     10  N   UNL     1      -3.416   1.478  24.509  0.00  0.00    -0.262 N 
ATOM     11  C   UNL     1      -3.009   0.787  24.317  0.00  0.00    +0.250 C 
ATOM     12  O   UNL     1      -2.257   0.832  23.978  0.00  0.00    -0.270 OA
ATOM     19  N   UNL     1      -5.316   2.251  25.376  0.00  0.00    -0.309 N 
ATOM     20  C   UNL     1      -5.850   1.666  25.611  0.00  0.00    +0.132 C 
ATOM     21  C   UNL     1      -5.432   3.065  25.438  0.00  0.00    +0.178 A 
ATOM     22  N   UNL     1      -4.762   3.441  25.140  0.00  0.00    -0.229 NA
ENDROOT
BRANCH  11  13
ATOM     13  C   UNL     1      -3.351   0.051  24.463  0.00  0.00    +0.054 A 
ATOM     14  C   UNL     1      -3.818  -0.308  23.887  0.00  0.00    +0.005 A 
ATOM     15  C   UNL     1      -4.161  -1.044  24.033  0.00  0.00    +0.000 A 
ATOM     16  C   UNL     1      -4.037  -1.421  24.756  0.00  0.00    +0.000 A 
ATOM     17  C   UNL     1      -3.570  -1.061  25.334  0.00  0.00    +0.000 A 
ATOM     18  C   UNL     1      -3.227  -0.325  25.187  0.00  0.00    +0.005 A 
ENDBRANCH  11  13
BRANCH   5   3
ATOM      3  C   UNL     1      -2.323   2.259  24.024  0.00  0.00    +0.336 C 
ATOM      4  O   UNL     1      -2.235   2.194  23.206  0.00  0.00    -0.248 OA
BRANCH   3   2
ATOM      1  C   UNL     1      -0.957   2.650  24.176  0.00  0.00    +0.256 C 
ATOM      2  O   UNL     1      -1.659   2.368  24.502  0.00  0.00    -0.443 OA
ENDBRANCH   3   2
ENDBRANCH   5   3
TORSDOF 3
ENDMDL
