MODEL 1
REMARK VINA RESULT:     -13.1      0.000      0.000
REMARK  Name = 
REMARK  6 active torsions:
REMARK  status: ('A' for Active; 'I' for Inactive)
REMARK    1  A    between atoms: C_2  and  C_4
REMARK    2  A    between atoms: C_4  and  C_5
REMARK    3  A    between atoms: C_5  and  C_6
REMARK    4  A    between atoms: N_15  and  C_16
REMARK    5  A    between atoms: N_26  and  C_27
REMARK    6  A    between atoms: C_27  and  C_28
REMARK                            x       y       z     vdW  Elec       q    Type
REMARK                         _______ _______ _______ _____ _____    ______ ____
ROOT
ATOM      6  C   UNL     1       0.018   0.351  23.629  0.00  0.00    +0.227 C 
ATOM      7  O   UNL     1      -0.121   1.141  23.435  0.00  0.00    -0.275 OA
ATOM      8  N   UNL     1      -0.559  -0.082  24.028  0.00  0.00    -0.272 N 
ATOM      9  C   UNL     1      -0.499  -0.873  24.258  0.00  0.00    +0.096 C 
ATOM     10  C   UNL     1      -1.200  -1.081  24.639  0.00  0.00    +0.044 C 
ATOM     11  C   UNL     1      -1.693  -0.420  24.645  0.00  0.00    +0.106 C 
ATOM     12  C   UNL     1      -1.297   0.197  24.268  0.00  0.00    +0.171 C 
ATOM     13  C   UNL     1      -1.660   0.934  24.191  0.00  0.00    +0.256 C 
ATOM     14  O   UNL     1      -1.264   1.551  23.813  0.00  0.00    -0.272 OA
ATOM     15  N   UNL     1      -2.418   1.053  24.492  0.00  0.00    -0.191 N 
ATOM     24  C   UNL     1      -2.814   0.436  24.869  0.00  0.00    +0.317 C 
ATOM     25  O   UNL     1      -3.573   0.555  25.170  0.00  0.00    -0.252 OA
ATOM     26  N   UNL     1      -2.452  -0.301  24.947  0.00  0.00    -0.259 N 
ENDROOT
BRANCH  15  16
ATOM     16  C   UNL     1      -2.781   1.790  24.415  0.00  0.00    +0.063 A 
ATOM     17  C   UNL     1      -2.703   2.352  25.013  0.00  0.00    +0.029 A 
ATOM     18  C   UNL     1      -3.066   3.090  24.937  0.00  0.00    +0.086 A 
ATOM     19 CL   UNL     1      -2.988   3.652  25.535  0.00  0.00    -0.080 Cl
ATOM     20  C   UNL     1      -3.507   3.264  24.261  0.00  0.00    +0.151 A 
ATOM     21  F   UNL     1      -3.870   4.001  24.185  0.00  0.00    -0.203 F 
ATOM     22  C   UNL     1      -3.584   2.701  23.663  0.00  0.00    +0.032 A 
ATOM     23  C   UNL     1      -3.222   1.965  23.740  0.00  0.00    +0.018 A 
ENDBRANCH  15  16
BRANCH   6   5
ATOM      5  C   UNL     1       0.734  -0.004  23.424  0.00  0.00    +0.097 C 
BRANCH   5   4
ATOM      4  C   UNL     1       1.278   0.404  22.958  0.00  0.00    +0.124 C 
BRANCH   4   2
ATOM      1  O   UNL     1       2.602  -0.134  22.960  0.00  0.00    -0.246 OA
ATOM      2  C   UNL     1       1.884  -0.006  22.576  0.00  0.00    +0.365 C 
ATOM      3  O   UNL     1       1.771  -0.288  21.809  0.00  0.00    -0.246 OA
ENDBRANCH   4   2
ENDBRANCH   5   4
ENDBRANCH   6   5
BRANCH  26  27
ATOM     27  C   UNL     1      -2.848  -0.918  25.324  0.00  0.00    +0.122 C 
BRANCH  27  28
ATOM     28  C   UNL     1      -3.293  -1.454  24.882  0.00  0.00    -0.002 A 
ATOM     29  C   UNL     1      -3.117  -2.260  24.913  0.00  0.00    -0.003 A 
ATOM     30  C   UNL     1      -3.561  -2.797  24.471  0.00  0.00    -0.000 A 
ATOM     31  C   UNL     1      -4.181  -2.528  23.997  0.00  0.00    -0.000 A 
ATOM     32  C   UNL     1      -4.357  -1.722  23.966  0.00  0.00    -0.000 A 
ATOM     33  C   UNL     1      -3.912  -1.186  24.408  0.00  0.00    -0.003 A 
ENDBRANCH  27  28
ENDBRANCH  26  27
TORSDOF 6
ENDMDL
MODEL 2
REMARK VINA RESULT:     -12.3      1.812      3.407
REMARK  Name = 
REMARK  6 active torsions:
REMARK  status: ('A' for Active; 'I' for Inactive)
REMARK    1  A    between atoms: C_2  and  C_4
REMARK    2  A    between atoms: C_4  and  C_5
REMARK    3  A    between atoms: C_5  and  C_6
REMARK    4  A    between atoms: N_15  and  C_16
REMARK    5  A    between atoms: N_26  and  C_27
REMARK    6  A    between atoms: C_27  and  C_28
REMARK                            x       y       z     vdW  Elec       q    Type
REMARK                         _______ _______ _______ _____ _____    ______ ____
ROOT
ATOM      6  C   UNL     1       0.139   0.134  23.625  0.00  0.00    +0.227 C 
ATOM      7  O   UNL     1      -0.064  -0.665  23.627  0.00  0.00    -0.275 OA
ATOM      8  N   UNL     1      -0.381   0.692  23.936  0.00  0.00    -0.272 N 
ATOM      9  C   UNL     1      -0.254   1.507  23.972  0.00  0.00    +0.096 C 
ATOM     10  C   UNL     1      -0.914   1.853  24.325  0.00  0.00    +0.044 C 
ATOM     11  C   UNL     1      -1.449   1.253  24.507  0.00  0.00    +0.106 C 
ATOM     12  C   UNL     1      -1.120   0.536  24.267  0.00  0.00    +0.171 C 
ATOM     13  C   UNL     1      -1.536  -0.168  24.382  0.00  0.00    +0.256 C 
ATOM     14  O   UNL     1      -1.206  -0.885  24.142  0.00  0.00    -0.272 OA
ATOM     15  N   UNL     1      -2.280  -0.154  24.735  0.00  0.00    -0.191 N 
ATOM     24  C   UNL     1      -2.610   0.563  24.975  0.00  0.00    +0.317 C 
ATOM     25  O   UNL     1      -3.355   0.577  25.329  0.00  0.00    -0.252 OA
ATOM     26  N   UNL     1      -2.195   1.267  24.862  0.00  0.00    -0.259 N 
ENDROOT
BRANCH  15  16
ATOM     16  C   UNL     1      -2.696  -0.857  24.849  0.00  0.00    +0.063 A 
ATOM     17  C   UNL     1      -3.220  -1.125  24.271  0.00  0.00    +0.029 A 
ATOM     18  C   UNL     1      -3.636  -1.829  24.385  0.00  0.00    +0.086 A 
ATOM     19 CL   UNL     1      -4.160  -2.096  23.807  0.00  0.00    -0.080 Cl
ATOM     20  C   UNL     1      -3.527  -2.264  25.077  0.00  0.00    +0.151 A 
ATOM     21  F   UNL     1      -3.943  -2.968  25.191  0.00  0.00    -0.203 F 
ATOM     22  C   UNL     1      -3.003  -1.996  25.655  0.00  0.00    +0.032 A 
ATOM     23  C   UNL     1      -2.588  -1.293  25.541  0.00  0.00    +0.018 A 
ENDBRANCH  15  16
BRANCH   6   5
ATOM      5  C   UNL     1       0.863   0.374  23.310  0.00  0.00    +0.097 C 
BRANCH   5   4
ATOM      4  C   UNL     1       1.370  -0.180  22.969  0.00  0.00    +0.124 C 
BRANCH   4   2
ATOM      1  O   UNL     1       2.654   0.442  22.910  0.00  0.00    -0.246 OA
ATOM      2  C   UNL     1       2.023   0.071  22.532  0.00  0.00    +0.365 C 
ATOM      3  O   UNL     1       2.044  -0.051  21.717  0.00  0.00    -0.246 OA
ENDBRANCH   4   2
ENDBRANCH   5   4
ENDBRANCH   6   5
BRANCH  26  27
ATOM     27  C   UNL     1      -2.524   1.984  25.102  0.00  0.00    +0.122 C 
BRANCH  27  28
ATOM     28  C   UNL     1      -3.137   2.323  24.665  0.00  0.00    -0.002 A 
ATOM     29  C   UNL     1      -3.893   2.378  24.991  0.00  0.00    -0.003 A 
ATOM     30  C   UNL     1      -4.506   2.716  24.555  0.00  0.00    -0.000 A 
ATOM     31  C   UNL     1      -4.363   2.999  23.793  0.00  0.00    -0.000 A 
ATOM     32  C   UNL     1      -3.607   2.944  23.467  0.00  0.00    -0.000 A 
ATOM     33  C   UNL     1      -2.994   2.605  23.904  0.00  0.00    -0.003 A 
ENDBRANCH  27  28
ENDBRANCH  26  27
TORSDOF 6
ENDMDL
MODEL 3
REMARK VINA RESULT:     -12.2      2.252      4.216
REMARK  Name = 
REMARK  6 active torsions:
REMARK  status: ('A' for Active; 'I' for Inactive)
REMARK    1  A    between atoms: C_2  and  C_4
REMARK    2  A    between atoms: C_4  and  C_5
REMARK    3  A    between atoms: C_5  and  C_6
REMARK    4  A    between atoms: N_15  and  C_16
REMARK    5  A    between atoms: N_26  and  C_27
REMARK    6  A    between atoms: C_27  and  C_28
REMARK                            x       y       z     vdW  Elec       q    Type
REMARK                         _______ _______ _______ _____ _____    ______ ____
ROOT
ATOM      6  C   UNL     1      -3.016  -0.868  24.754  0.00  0.00    +0.227 C 
ATOM      7  O   UNL     1      -2.246  -0.870  25.049  0.00  0.00    -0.275 OA
ATOM      8  N   UNL     1      -3.377  -0.156  24.549  0.00  0.00    -0.272 N 
ATOM      9  C   UNL     1      -4.141  -0.069  24.248  0.00  0.00    +0.096 C 
ATOM     10  C   UNL     1      -4.275   0.735  24.122  0.00  0.00    +0.044 C 
ATOM     11  C   UNL     1      -3.594   1.145  24.344  0.00  0.00    +0.106 C 
ATOM     12  C   UNL     1      -3.040   0.594  24.608  0.00  0.00    +0.171 C 
ATOM     13  C   UNL     1      -2.299   0.847  24.868  0.00  0.00    +0.256 C 
ATOM     14  O   UNL     1      -1.744   0.296  25.132  0.00  0.00    -0.272 OA
ATOM     15  N   UNL     1      -2.112   1.650  24.864  0.00  0.00    -0.191 N 
ATOM     24  C   UNL     1      -2.666   2.201  24.600  0.00  0.00    +0.317 C 
ATOM     25  O   UNL     1      -2.480   3.004  24.596  0.00  0.00    -0.252 OA
ATOM     26  N   UNL     1      -3.408   1.949  24.340  0.00  0.00    -0.259 N 
ENDROOT
BRANCH  15  16
ATOM     16  C   UNL     1      -1.372   1.902  25.124  0.00  0.00    +0.063 A 
ATOM     17  C   UNL     1      -0.735   1.923  24.599  0.00  0.00    +0.029 A 
ATOM     18  C   UNL     1       0.006   2.176  24.859  0.00  0.00    +0.086 A 
ATOM     19 CL   UNL     1       0.642   2.197  24.334  0.00  0.00    -0.080 Cl
ATOM     20  C   UNL     1       0.111   2.408  25.644  0.00  0.00    +0.151 A 
ATOM     21  F   UNL     1       0.852   2.661  25.904  0.00  0.00    -0.203 F 
ATOM     22  C   UNL     1      -0.526   2.387  26.169  0.00  0.00    +0.032 A 
ATOM     23  C   UNL     1      -1.266   2.135  25.909  0.00  0.00    +0.018 A 
ENDBRANCH  15  16
BRANCH   6   5
ATOM      5  C   UNL     1      -3.424  -1.580  24.665  0.00  0.00    +0.097 C 
BRANCH   5   4
ATOM      4  C   UNL     1      -3.015  -2.295  24.677  0.00  0.00    +0.124 C 
BRANCH   4   2
ATOM      1  O   UNL     1      -3.534  -3.408  25.408  0.00  0.00    -0.246 OA
ATOM      2  C   UNL     1      -3.430  -3.008  24.694  0.00  0.00    +0.365 C 
ATOM      3  O   UNL     1      -3.740  -3.321  23.997  0.00  0.00    -0.246 OA
ENDBRANCH   4   2
ENDBRANCH   5   4
ENDBRANCH   6   5
BRANCH  26  27
ATOM     27  C   UNL     1      -3.962   2.500  24.076  0.00  0.00    +0.122 C 
BRANCH  27  28
ATOM     28  C   UNL     1      -4.428   2.909  24.621  0.00  0.00    -0.002 A 
ATOM     29  C   UNL     1      -4.218   3.672  24.852  0.00  0.00    -0.003 A 
ATOM     30  C   UNL     1      -4.683   4.082  25.396  0.00  0.00    -0.000 A 
ATOM     31  C   UNL     1      -5.359   3.727  25.709  0.00  0.00    -0.000 A 
ATOM     32  C   UNL     1      -5.570   2.964  25.478  0.00  0.00    -0.000 A 
ATOM     33  C   UNL     1      -5.104   2.555  24.934  0.00  0.00    -0.003 A 
ENDBRANCH  27  28
ENDBRANCH  26  27
TORSDOF 6
ENDMDL
MODEL 4
REMARK VINA RESULT:     -11.9      2.618      4.099
REMARK  Name = 
REMARK  6 active torsions:
REMARK  status: ('A' for Active; 'I' for Inactive)
REMARK    1  A    between atoms: C_2  and  C_4
REMARK    2  A    between atoms: C_4  and  C_5
REMARK    3  A    between atoms: C_5  and  C_6
REMARK    4  A    between atoms: N_15  and  C_16
REMARK    5  A    between atoms: N_26  and  C_27
REMARK    6  A    between atoms: C_27  and  C_28
REMARK                            x       y       z     vdW  Elec       q    Type
REMARK                         _______ _______ _______ _____ _____    ______ ____
ROOT
ATOM      6  C   UNL     1      -1.164   1.562  25.271  0.00  0.00    +0.227 C 
ATOM      7  O   UNL     1      -0.984   0.776  25.446  0.00  0.00    -0.275 OA
ATOM      8  N   UNL     1      -1.921   1.765  25.018  0.00  0.00    -0.272 N 
ATOM      9  C   UNL     1      -2.181   2.524  24.824  0.00  0.00    +0.096 C 
ATOM     10  C   UNL     1      -2.973   2.473  24.599  0.00  0.00    +0.044 C 
ATOM     11  C   UNL     1      -3.203   1.683  24.654  0.00  0.00    +0.106 C 
ATOM     12  C   UNL     1      -2.553   1.246  24.913  0.00  0.00    +0.171 C 
ATOM     13  C   UNL     1      -2.622   0.430  25.019  0.00  0.00    +0.256 C 
ATOM     14  O   UNL     1      -1.972  -0.007  25.278  0.00  0.00    -0.272 OA
ATOM     15  N   UNL     1      -3.339   0.053  24.868  0.00  0.00    -0.191 N 
ATOM     24  C   UNL     1      -3.988   0.491  24.609  0.00  0.00    +0.317 C 
ATOM     25  O   UNL     1      -4.706   0.114  24.457  0.00  0.00    -0.252 OA
ATOM     26  N   UNL     1      -3.921   1.306  24.502  0.00  0.00    -0.259 N 
ENDROOT
BRANCH  15  16
ATOM     16  C   UNL     1      -3.406  -0.762  24.974  0.00  0.00    +0.063 A 
ATOM     17  C   UNL     1      -3.411  -1.264  24.320  0.00  0.00    +0.029 A 
ATOM     18  C   UNL     1      -3.479  -2.080  24.426  0.00  0.00    +0.086 A 
ATOM     19 CL   UNL     1      -3.484  -2.583  23.772  0.00  0.00    -0.080 Cl
ATOM     20  C   UNL     1      -3.542  -2.392  25.187  0.00  0.00    +0.151 A 
ATOM     21  F   UNL     1      -3.610  -3.208  25.294  0.00  0.00    -0.203 F 
ATOM     22  C   UNL     1      -3.538  -1.890  25.842  0.00  0.00    +0.032 A 
ATOM     23  C   UNL     1      -3.470  -1.075  25.735  0.00  0.00    +0.018 A 
ENDBRANCH  15  16
BRANCH   6   5
ATOM      5  C   UNL     1      -0.585   2.144  25.351  0.00  0.00    +0.097 C 
BRANCH   5   4
ATOM      4  C   UNL     1       0.055   2.024  25.856  0.00  0.00    +0.124 C 
BRANCH   4   2
ATOM      1  O   UNL     1       0.549   3.356  25.705  0.00  0.00    -0.246 OA
ATOM      2  C   UNL     1       0.473   2.670  26.155  0.00  0.00    +0.365 C 
ATOM      3  O   UNL     1       0.815   2.629  26.904  0.00  0.00    -0.246 OA
ENDBRANCH   4   2
ENDBRANCH   5   4
ENDBRANCH   6   5
BRANCH  26  27
ATOM     27  C   UNL     1      -4.571   1.743  24.244  0.00  0.00    +0.122 C 
BRANCH  27  28
ATOM     28  C   UNL     1      -5.117   2.032  24.791  0.00  0.00    -0.002 A 
ATOM     29  C   UNL     1      -5.021   2.786  25.110  0.00  0.00    -0.003 A 
ATOM     30  C   UNL     1      -5.567   3.076  25.657  0.00  0.00    -0.000 A 
ATOM     31  C   UNL     1      -6.209   2.610  25.885  0.00  0.00    -0.000 A 
ATOM     32  C   UNL     1      -6.305   1.855  25.565  0.00  0.00    -0.000 A 
ATOM     33  C   UNL     1      -5.759   1.567  25.018  0.00  0.00    -0.003 A 
ENDBRANCH  27  28
ENDBRANCH  26  27
TORSDOF 6
ENDMDL
MODEL 5
REMARK VINA RESULT:     -11.4      2.101      4.278
REMARK  Name = 
REMARK  6 active torsions:
REMARK  status: ('A' for Active; 'I' for Inactive)
REMARK    1  A    between atoms: C_2  and  C_4
REMARK    2  A    between atoms: C_4  and  C_5
REMARK    3  A    between atoms: C_5  and  C_6
REMARK    4  A    between atoms: N_15  and  C_16
REMARK    5  A    between atoms: N_26  and  C_27
REMARK    6  A    between atoms: C_27  and  C_28
REMARK                            x       y       z     vdW  Elec       q    Type
REMARK                         _______ _______ _______ _____ _____    ______ ____
ROOT
ATOM      6  C   UNL     1      -4.391   2.427  24.973  0.00  0.00    +0.227 C 
ATOM      7  O   UNL     1      -3.728   2.849  24.722  0.00  0.00    -0.275 OA
ATOM      8  N   UNL     1      -4.330   1.622  25.138  0.00  0.00    -0.272 N 
ATOM      9  C   UNL     1      -4.942   1.131  25.393  0.00  0.00    +0.096 C 
ATOM     10  C   UNL     1      -4.636   0.371  25.489  0.00  0.00    +0.044 C 
ATOM     11  C   UNL     1      -3.836   0.392  25.294  0.00  0.00    +0.106 C 
ATOM     12  C   UNL     1      -3.646   1.165  25.077  0.00  0.00    +0.171 C 
ATOM     13  C   UNL     1      -2.875   1.353  24.852  0.00  0.00    +0.256 C 
ATOM     14  O   UNL     1      -2.685   2.126  24.635  0.00  0.00    -0.272 OA
ATOM     15  N   UNL     1      -2.293   0.769  24.844  0.00  0.00    -0.191 N 
ATOM     24  C   UNL     1      -2.483  -0.004  25.062  0.00  0.00    +0.317 C 
ATOM     25  O   UNL     1      -1.901  -0.590  25.054  0.00  0.00    -0.252 OA
ATOM     26  N   UNL     1      -3.253  -0.193  25.287  0.00  0.00    -0.259 N 
ENDROOT
BRANCH  15  16
ATOM     16  C   UNL     1      -1.523   0.957  24.620  0.00  0.00    +0.063 A 
ATOM     17  C   UNL     1      -1.011   1.313  25.160  0.00  0.00    +0.029 A 
ATOM     18  C   UNL     1      -0.239   1.501  24.935  0.00  0.00    +0.086 A 
ATOM     19 CL   UNL     1       0.273   1.857  25.475  0.00  0.00    -0.080 Cl
ATOM     20  C   UNL     1       0.020   1.333  24.170  0.00  0.00    +0.151 A 
ATOM     21  F   UNL     1       0.792   1.521  23.945  0.00  0.00    -0.203 F 
ATOM     22  C   UNL     1      -0.492   0.977  23.630  0.00  0.00    +0.032 A 
ATOM     23  C   UNL     1      -1.263   0.789  23.855  0.00  0.00    +0.018 A 
ENDBRANCH  15  16
BRANCH   6   5
ATOM      5  C   UNL     1      -5.116   2.813  25.059  0.00  0.00    +0.097 C 
BRANCH   5   4
ATOM      4  C   UNL     1      -5.138   3.627  25.185  0.00  0.00    +0.124 C 
BRANCH   4   2
ATOM      1  O   UNL     1      -6.413   3.500  25.818  0.00  0.00    -0.246 OA
ATOM      2  C   UNL     1      -5.802   3.974  25.532  0.00  0.00    +0.365 C 
ATOM      3  O   UNL     1      -5.854   4.795  25.593  0.00  0.00    -0.246 OA
ENDBRANCH   4   2
ENDBRANCH   5   4
ENDBRANCH   6   5
BRANCH  26  27
ATOM     27  C   UNL     1      -3.443  -0.966  25.504  0.00  0.00    +0.122 C 
BRANCH  27  28
ATOM     28  C   UNL     1      -3.566  -1.539  24.922  0.00  0.00    -0.002 A 
ATOM     29  C   UNL     1      -3.100  -2.219  24.909  0.00  0.00    -0.003 A 
ATOM     30  C   UNL     1      -3.222  -2.792  24.328  0.00  0.00    -0.000 A 
ATOM     31  C   UNL     1      -3.812  -2.685  23.761  0.00  0.00    -0.000 A 
ATOM     32  C   UNL     1      -4.278  -2.004  23.774  0.00  0.00    -0.000 A 
ATOM     33  C   UNL     1      -4.155  -1.432  24.356  0.00  0.00    -0.003 A 
ENDBRANCH  27  28
ENDBRANCH  26  27
TORSDOF 6
ENDMDL
MODEL 6
REMARK VINA RESULT:     -11.4      2.342      5.248
REMARK  Name = 
REMARK  6 active torsions:
REMARK  status: ('A' for Active; 'I' for Inactive)
REMARK    1  A    between atoms: C_2  and  C_4
REMARK    2  A    between atoms: C_4  and  C_5
REMARK    3  A    between atoms: C_5  and  C_6
REMARK    4  A    between atoms: N_15  and  C_16
REMARK    5  A    between atoms: N_26  and  C_27
REMARK    6  A    between atoms: C_27  and  C_28
REMARK                            x       y       z     vdW  Elec       q    Type
REMARK                         _______ _______ _______ _____ _____    ______ ____
ROOT
ATOM      6  C   UNL     1      -4.638   2.290  24.935  0.00  0.00    +0.227 C 
ATOM      7  O   UNL     1      -4.988   1.627  25.279  0.00  0.00    -0.275 OA
ATOM      8  N   UNL     1      -3.921   2.216  24.534  0.00  0.00    -0.272 N 
ATOM      9  C   UNL     1      -3.507   2.827  24.163  0.00  0.00    +0.096 C 
ATOM     10  C   UNL     1      -2.823   2.507  23.832  0.00  0.00    +0.044 C 
ATOM     11  C   UNL     1      -2.814   1.699  23.998  0.00  0.00    +0.106 C 
ATOM     12  C   UNL     1      -3.493   1.519  24.431  0.00  0.00    +0.171 C 
ATOM     13  C   UNL     1      -3.632   0.744  24.676  0.00  0.00    +0.256 C 
ATOM     14  O   UNL     1      -4.311   0.564  25.109  0.00  0.00    -0.272 OA
ATOM     15  N   UNL     1      -3.094   0.148  24.488  0.00  0.00    -0.191 N 
ATOM     24  C   UNL     1      -2.415   0.328  24.055  0.00  0.00    +0.317 C 
ATOM     25  O   UNL     1      -1.876  -0.267  23.866  0.00  0.00    -0.252 OA
ATOM     26  N   UNL     1      -2.275   1.103  23.809  0.00  0.00    -0.259 N 
ENDROOT
BRANCH  15  16
ATOM     16  C   UNL     1      -3.233  -0.626  24.733  0.00  0.00    +0.063 A 
ATOM     17  C   UNL     1      -3.613  -1.156  24.227  0.00  0.00    +0.029 A 
ATOM     18  C   UNL     1      -3.753  -1.932  24.472  0.00  0.00    +0.086 A 
ATOM     19 CL   UNL     1      -4.132  -2.462  23.966  0.00  0.00    -0.080 Cl
ATOM     20  C   UNL     1      -3.513  -2.177  25.222  0.00  0.00    +0.151 A 
ATOM     21  F   UNL     1      -3.653  -2.953  25.467  0.00  0.00    -0.203 F 
ATOM     22  C   UNL     1      -3.134  -1.647  25.728  0.00  0.00    +0.032 A 
ATOM     23  C   UNL     1      -2.994  -0.872  25.483  0.00  0.00    +0.018 A 
ENDBRANCH  15  16
BRANCH   6   5
ATOM      5  C   UNL     1      -5.004   3.027  24.993  0.00  0.00    +0.097 C 
BRANCH   5   4
ATOM      4  C   UNL     1      -5.524   3.182  25.615  0.00  0.00    +0.124 C 
BRANCH   4   2
ATOM      1  O   UNL     1      -6.498   4.227  25.604  0.00  0.00    -0.246 OA
ATOM      2  C   UNL     1      -5.740   3.959  25.788  0.00  0.00    +0.365 C 
ATOM      3  O   UNL     1      -5.199   4.468  26.146  0.00  0.00    -0.246 OA
ENDBRANCH   4   2
ENDBRANCH   5   4
ENDBRANCH   6   5
BRANCH  26  27
ATOM     27  C   UNL     1      -1.596   1.282  23.376  0.00  0.00    +0.122 C 
BRANCH  27  28
ATOM     28  C   UNL     1      -0.874   1.380  23.763  0.00  0.00    -0.002 A 
ATOM     29  C   UNL     1      -0.292   0.798  23.702  0.00  0.00    -0.003 A 
ATOM     30  C   UNL     1       0.431   0.894  24.089  0.00  0.00    -0.000 A 
ATOM     31  C   UNL     1       0.571   1.573  24.537  0.00  0.00    -0.000 A 
ATOM     32  C   UNL     1      -0.011   2.155  24.598  0.00  0.00    -0.000 A 
ATOM     33  C   UNL     1      -0.733   2.057  24.211  0.00  0.00    -0.003 A 
ENDBRANCH  27  28
ENDBRANCH  26  27
TORSDOF 6
ENDMDL
MODEL 7
REMARK VINA RESULT:     -11.2      2.134      4.055
REMARK  Name = 
REMARK  6 active torsions:
REMARK  status: ('A' for Active; 'I' for Inactive)
REMARK    1  A    between atoms: C_2  and  C_4
REMARK    2  A    between atoms: C_4  and  C_5
REMARK    3  A    between atoms: C_5  and  C_6
REMARK    4  A    between atoms: N_15  and  C_16
REMARK    5  A    between atoms: N_26  and  C_27
REMARK    6  A    between atoms: C_27  and  C_28
REMARK                            x       y       z     vdW  Elec       q    Type
REMARK                         _______ _______ _______ _____ _____    ______ ____
ROOT
ATOM      6  C   UNL     1      -3.347  -0.668  24.617  0.00  0.00    +0.227 C 
ATOM      7  O   UNL     1      -4.104  -0.380  24.772  0.00  0.00    -0.275 OA
ATOM      8  N   UNL     1      -2.720  -0.143  24.512  0.00  0.00    -0.272 N 
ATOM      9  C   UNL     1      -1.936  -0.348  24.354  0.00  0.00    +0.096 C 
ATOM     10  C   UNL     1      -1.498   0.347  24.291  0.00  0.00    +0.044 C 
ATOM     11  C   UNL     1      -2.010   0.983  24.410  0.00  0.00    +0.106 C 
ATOM     12  C   UNL     1      -2.766   0.679  24.547  0.00  0.00    +0.171 C 
ATOM     13  C   UNL     1      -3.397   1.193  24.685  0.00  0.00    +0.256 C 
ATOM     14  O   UNL     1      -4.152   0.890  24.821  0.00  0.00    -0.272 OA
ATOM     15  N   UNL     1      -3.273   2.008  24.686  0.00  0.00    -0.191 N 
ATOM     24  C   UNL     1      -2.518   2.311  24.550  0.00  0.00    +0.317 C 
ATOM     25  O   UNL     1      -2.394   3.126  24.551  0.00  0.00    -0.252 OA
ATOM     26  N   UNL     1      -1.887   1.799  24.412  0.00  0.00    -0.259 N 
ENDROOT
BRANCH  15  16
ATOM     16  C   UNL     1      -3.904   2.520  24.824  0.00  0.00    +0.063 A 
ATOM     17  C   UNL     1      -4.091   2.746  25.595  0.00  0.00    +0.029 A 
ATOM     18  C   UNL     1      -4.723   3.259  25.734  0.00  0.00    +0.086 A 
ATOM     19 CL   UNL     1      -4.910   3.484  26.505  0.00  0.00    -0.080 Cl
ATOM     20  C   UNL     1      -5.167   3.546  25.101  0.00  0.00    +0.151 A 
ATOM     21  F   UNL     1      -5.799   4.059  25.239  0.00  0.00    -0.203 F 
ATOM     22  C   UNL     1      -4.980   3.320  24.329  0.00  0.00    +0.032 A 
ATOM     23  C   UNL     1      -4.349   2.808  24.191  0.00  0.00    +0.018 A 
ENDBRANCH  15  16
BRANCH   6   5
ATOM      5  C   UNL     1      -3.218  -1.481  24.566  0.00  0.00    +0.097 C 
BRANCH   5   4
ATOM      4  C   UNL     1      -3.856  -2.003  24.586  0.00  0.00    +0.124 C 
BRANCH   4   2
ATOM      1  O   UNL     1      -3.890  -3.199  23.805  0.00  0.00    -0.246 OA
ATOM      2  C   UNL     1      -3.728  -2.815  24.517  0.00  0.00    +0.365 C 
ATOM      3  O   UNL     1      -3.438  -3.243  25.159  0.00  0.00    -0.246 OA
ENDBRANCH   4   2
ENDBRANCH   5   4
ENDBRANCH   6   5
BRANCH  26  27
ATOM     27  C   UNL     1      -1.131   2.102  24.275  0.00  0.00    +0.122 C 
BRANCH  27  28
ATOM     28  C   UNL     1      -0.687   2.400  24.904  0.00  0.00    -0.002 A 
ATOM     29  C   UNL     1      -0.571   3.213  24.977  0.00  0.00    -0.003 A 
ATOM     30  C   UNL     1      -0.127   3.512  25.605  0.00  0.00    -0.000 A 
ATOM     31  C   UNL     1       0.201   2.996  26.160  0.00  0.00    -0.000 A 
ATOM     32  C   UNL     1       0.084   2.183  26.087  0.00  0.00    -0.000 A 
ATOM     33  C   UNL     1      -0.360   1.885  25.458  0.00  0.00    -0.003 A 
ENDBRANCH  27  28
ENDBRANCH  26  27
TORSDOF 6
ENDMDL
