REMARK  Name = 
REMARK  7 active torsions:
REMARK  status: ('A' for Active; 'I' for Inactive)
REMARK    1  A    between atoms: O_2  and  C_3
REMARK    2  A    between atoms: C_6  and  C_9
REMARK    3  A    between atoms: C_11  and  C_12
REMARK    4  A    between atoms: C_12  and  C_13
REMARK    5  A    between atoms: C_18  and  C_19
REMARK    6  A    between atoms: C_19  and  N_20
REMARK    7  A    between atoms: N_20  and  C_21
REMARK                            x       y       z     vdW  Elec       q    Type
REMARK                         _______ _______ _______ _____ _____    ______ ____
ROOT
ATOM     13  C   UNL     1       4.576  -6.801   0.000  0.00  0.00    +0.121 C 
ATOM     14  C   UNL     1       4.911  -6.047   0.000  0.00  0.00    +0.033 C 
ATOM     15  C   UNL     1       5.732  -5.961   0.000  0.00  0.00    +0.038 C 
ATOM     16  C   UNL     1       6.217  -6.628   0.000  0.00  0.00    +0.180 C 
ATOM     17  O   UNL     1       7.037  -6.542   0.000  0.00  0.00    -0.220 OA
ATOM     18  C   UNL     1       5.881  -7.382   0.000  0.00  0.00    +0.163 C 
ATOM     30  O   UNL     1       5.061  -7.468   0.000  0.00  0.00    -0.354 OA
ENDROOT
BRANCH  13  12
ATOM     12  C   UNL     1       3.755  -6.887   0.000  0.00  0.00    +0.079 C 
BRANCH  12  11
ATOM      9  C   UNL     1       2.858  -4.950   0.000  0.00  0.00    +0.177 A 
ATOM     10  C   UNL     1       3.525  -5.435   0.000  0.00  0.00    +0.058 A 
ATOM     11  C   UNL     1       3.270  -6.220   0.000  0.00  0.00    +0.103 A 
ATOM     31  N   UNL     1       2.445  -6.220   0.000  0.00  0.00    -0.081 NA
ATOM     32  O   UNL     1       2.190  -5.435   0.000  0.00  0.00    -0.354 OA
BRANCH   9   6
ATOM      3  C   UNL     1       2.858  -2.475   0.000  0.00  0.00    +0.139 A 
ATOM      4  C   UNL     1       3.572  -2.888   0.000  0.00  0.00    +0.037 A 
ATOM      5  C   UNL     1       3.572  -3.712   0.000  0.00  0.00    +0.006 A 
ATOM      6  C   UNL     1       2.858  -4.125   0.000  0.00  0.00    +0.037 A 
ATOM      7  C   UNL     1       2.143  -3.712   0.000  0.00  0.00    +0.006 A 
ATOM      8  C   UNL     1       2.143  -2.888   0.000  0.00  0.00    +0.037 A 
BRANCH   3   2
ATOM      1  C   UNL     1       2.143  -1.238   0.000  0.00  0.00    +0.252 C 
ATOM      2  O   UNL     1       2.858  -1.650   0.000  0.00  0.00    -0.471 OA
ENDBRANCH   3   2
ENDBRANCH   9   6
ENDBRANCH  12  11
ENDBRANCH  13  12
BRANCH  18  19
ATOM     19  C   UNL     1       6.366  -8.049   0.000  0.00  0.00    +0.121 C 
BRANCH  19  20
ATOM     20  N   UNL     1       7.187  -7.963   0.000  0.00  0.00    -0.217 NA
BRANCH  20  21
ATOM     21  C   UNL     1       7.671  -8.631   0.000  0.00  0.00    +0.076 C 
ATOM     22  C   UNL     1       8.492  -8.544   0.000  0.00  0.00    +0.039 C 
ATOM     23  C   UNL     1       8.977  -9.212   0.000  0.00  0.00    +0.095 C 
ATOM     24  N   UNL     1       8.641  -9.966   0.000  0.00  0.00    -0.279 N 
ATOM     25  C   UNL     1       7.821 -10.052   0.000  0.00  0.00    +0.095 C 
ATOM     26  C   UNL     1       7.336  -9.384   0.000  0.00  0.00    +0.039 C 
ATOM     27  C   UNL     1       9.126 -10.633   0.000  0.00  0.00    +0.226 C 
ATOM     28  C   UNL     1       9.947 -10.547   0.000  0.00  0.00    +0.095 C 
ATOM     29  O   UNL     1       8.791 -11.387   0.000  0.00  0.00    -0.275 OA
ENDBRANCH  20  21
ENDBRANCH  19  20
ENDBRANCH  18  19
TORSDOF 7
