MODEL 1
REMARK VINA RESULT:     -11.9      0.000      0.000
REMARK  Name = 
REMARK  7 active torsions:
REMARK  status: ('A' for Active; 'I' for Inactive)
REMARK    1  A    between atoms: C_2  and  O_5
REMARK    2  A    between atoms: O_5  and  C_6
REMARK    3  A    between atoms: C_9  and  C_12
REMARK    4  A    between atoms: C_15  and  C_17
REMARK    5  A    between atoms: N_22  and  C_23
REMARK    6  A    between atoms: C_23  and  C_24
REMARK    7  A    between atoms: C_28  and  C_30
REMARK                            x       y       z     vdW  Elec       q    Type
REMARK                         _______ _______ _______ _____ _____    ______ ____
ROOT
ATOM     17  C   UNL     1      -4.139   2.421  24.633  0.00  0.00    +0.144 C 
ATOM     18  C   UNL     1      -4.904   2.488  24.931  0.00  0.00    +0.073 C 
ATOM     19  C   UNL     1      -5.134   3.172  25.331  0.00  0.00    +0.077 A 
ATOM     20  C   UNL     1      -4.596   3.790  25.433  0.00  0.00    +0.090 A 
ATOM     21  C   UNL     1      -3.829   3.723  25.135  0.00  0.00    +0.121 C 
ATOM     22  N   UNL     1      -3.601   3.039  24.735  0.00  0.00    -0.257 NA
ATOM     32  N   UNL     1      -4.976   4.392  25.848  0.00  0.00    -0.226 NA
ATOM     33  C   UNL     1      -5.748   4.148  26.003  0.00  0.00    +0.198 A 
ATOM     34  N   UNL     1      -5.845   3.394  25.683  0.00  0.00    -0.227 NA
ENDROOT
BRANCH  17  15
ATOM     12  C   UNL     1      -3.596   0.468  23.964  0.00  0.00    +0.203 A 
ATOM     13  N   UNL     1      -3.519   0.901  23.268  0.00  0.00    -0.056 NA
ATOM     14  O   UNL     1      -3.713   1.686  23.433  0.00  0.00    -0.336 OA
ATOM     15  C   UNL     1      -3.910   1.738  24.233  0.00  0.00    +0.251 A 
ATOM     16  N   UNL     1      -3.838   0.984  24.562  0.00  0.00    -0.190 NA
BRANCH  12   9
ATOM      6  C   UNL     1      -3.175  -1.958  24.225  0.00  0.00    +0.147 A 
ATOM      7  C   UNL     1      -2.590  -1.413  24.428  0.00  0.00    +0.037 A 
ATOM      8  C   UNL     1      -2.730  -0.605  24.341  0.00  0.00    +0.006 A 
ATOM      9  C   UNL     1      -3.457  -0.341  24.051  0.00  0.00    +0.039 A 
ATOM     10  C   UNL     1      -4.042  -0.885  23.848  0.00  0.00    +0.006 A 
ATOM     11  C   UNL     1      -3.902  -1.694  23.934  0.00  0.00    +0.037 A 
BRANCH   6   5
ATOM      5  O   UNL     1      -3.035  -2.766  24.311  0.00  0.00    -0.404 OA
BRANCH   5   2
ATOM      1  F   UNL     1      -3.630  -3.570  25.624  0.00  0.00    -0.133 F 
ATOM      2  C   UNL     1      -3.333  -3.168  24.967  0.00  0.00    +0.575 C 
ATOM      3  F   UNL     1      -2.676  -2.936  25.409  0.00  0.00    -0.133 F 
ATOM      4  F   UNL     1      -3.990  -3.400  24.526  0.00  0.00    -0.133 F 
ENDBRANCH   5   2
ENDBRANCH   6   5
ENDBRANCH  12   9
ENDBRANCH  17  15
BRANCH  22  23
ATOM     23  C   UNL     1      -2.835   2.972  24.437  0.00  0.00    +0.100 C 
BRANCH  23  24
ATOM     24  C   UNL     1      -2.212   3.365  24.809  0.00  0.00    -0.005 A 
ATOM     25  C   UNL     1      -2.124   4.179  24.716  0.00  0.00    -0.003 A 
ATOM     26  C   UNL     1      -1.501   4.572  25.088  0.00  0.00    +0.000 A 
ATOM     27  C   UNL     1      -0.965   4.150  25.553  0.00  0.00    +0.010 A 
ATOM     28  C   UNL     1      -1.054   3.334  25.645  0.00  0.00    +0.068 A 
ATOM     29  C   UNL     1      -1.677   2.942  25.273  0.00  0.00    +0.007 A 
BRANCH  28  30
ATOM     30  C   UNL     1      -0.518   2.912  26.110  0.00  0.00    +0.100 C 
ATOM     31  N   UNL     1       0.017   2.489  26.574  0.00  0.00    -0.191 NA
ENDBRANCH  28  30
ENDBRANCH  23  24
ENDBRANCH  22  23
TORSDOF 7
ENDMDL
MODEL 2
REMARK VINA RESULT:     -11.2      1.015      2.773
REMARK  Name = 
REMARK  7 active torsions:
REMARK  status: ('A' for Active; 'I' for Inactive)
REMARK    1  A    between atoms: C_2  and  O_5
REMARK    2  A    between atoms: O_5  and  C_6
REMARK    3  A    between atoms: C_9  and  C_12
REMARK    4  A    between atoms: C_15  and  C_17
REMARK    5  A    between atoms: N_22  and  C_23
REMARK    6  A    between atoms: C_23  and  C_24
REMARK    7  A    between atoms: C_28  and  C_30
REMARK                            x       y       z     vdW  Elec       q    Type
REMARK                         _______ _______ _______ _____ _____    ______ ____
ROOT
ATOM     17  C   UNL     1      -2.375   2.620  24.397  0.00  0.00    +0.144 C 
ATOM     18  C   UNL     1      -1.600   2.836  24.576  0.00  0.00    +0.073 C 
ATOM     19  C   UNL     1      -1.436   3.595  24.855  0.00  0.00    +0.077 A 
ATOM     20  C   UNL     1      -2.048   4.139  24.955  0.00  0.00    +0.090 A 
ATOM     21  C   UNL     1      -2.825   3.923  24.775  0.00  0.00    +0.121 C 
ATOM     22  N   UNL     1      -2.988   3.164  24.496  0.00  0.00    -0.257 NA
ATOM     32  N   UNL     1      -1.722   4.841  25.237  0.00  0.00    -0.226 NA
ATOM     33  C   UNL     1      -0.908   4.732  25.312  0.00  0.00    +0.198 A 
ATOM     34  N   UNL     1      -0.732   3.962  25.076  0.00  0.00    -0.227 NA
ENDROOT
BRANCH  17  15
ATOM     12  C   UNL     1      -2.845   0.563  24.076  0.00  0.00    +0.203 A 
ATOM     13  N   UNL     1      -2.736   0.824  23.301  0.00  0.00    -0.056 NA
ATOM     14  O   UNL     1      -2.546   1.627  23.328  0.00  0.00    -0.336 OA
ATOM     15  C   UNL     1      -2.539   1.862  24.118  0.00  0.00    +0.251 A 
ATOM     16  N   UNL     1      -2.724   1.204  24.581  0.00  0.00    -0.190 NA
BRANCH  12   9
ATOM      6  C   UNL     1      -3.435  -1.739  24.768  0.00  0.00    +0.147 A 
ATOM      7  C   UNL     1      -2.707  -1.417  24.985  0.00  0.00    +0.037 A 
ATOM      8  C   UNL     1      -2.511  -0.650  24.754  0.00  0.00    +0.006 A 
ATOM      9  C   UNL     1      -3.043  -0.205  24.306  0.00  0.00    +0.039 A 
ATOM     10  C   UNL     1      -3.770  -0.527  24.089  0.00  0.00    +0.006 A 
ATOM     11  C   UNL     1      -3.967  -1.294  24.320  0.00  0.00    +0.037 A 
BRANCH   6   5
ATOM      5  O   UNL     1      -3.631  -2.506  24.998  0.00  0.00    -0.404 OA
BRANCH   5   2
ATOM      1  F   UNL     1      -3.423  -3.763  23.948  0.00  0.00    -0.133 F 
ATOM      2  C   UNL     1      -3.526  -3.135  24.473  0.00  0.00    +0.575 C 
ATOM      3  F   UNL     1      -4.299  -3.035  24.200  0.00  0.00    -0.133 F 
ATOM      4  F   UNL     1      -2.755  -3.234  24.747  0.00  0.00    -0.133 F 
ENDBRANCH   5   2
ENDBRANCH   6   5
ENDBRANCH  12   9
ENDBRANCH  17  15
BRANCH  22  23
ATOM     23  C   UNL     1      -3.764   2.949  24.317  0.00  0.00    +0.100 C 
BRANCH  23  24
ATOM     24  C   UNL     1      -4.389   3.257  24.759  0.00  0.00    -0.005 A 
ATOM     25  C   UNL     1      -4.596   4.051  24.682  0.00  0.00    -0.003 A 
ATOM     26  C   UNL     1      -5.222   4.358  25.123  0.00  0.00    +0.000 A 
ATOM     27  C   UNL     1      -5.641   3.871  25.641  0.00  0.00    +0.010 A 
ATOM     28  C   UNL     1      -5.434   3.075  25.717  0.00  0.00    +0.068 A 
ATOM     29  C   UNL     1      -4.808   2.768  25.276  0.00  0.00    +0.007 A 
BRANCH  28  30
ATOM     30  C   UNL     1      -5.853   2.588  26.234  0.00  0.00    +0.100 C 
ATOM     31  N   UNL     1      -6.273   2.102  26.751  0.00  0.00    -0.191 NA
ENDBRANCH  28  30
ENDBRANCH  23  24
ENDBRANCH  22  23
TORSDOF 7
ENDMDL
MODEL 3
REMARK VINA RESULT:     -11.1      3.114      5.737
REMARK  Name = 
REMARK  7 active torsions:
REMARK  status: ('A' for Active; 'I' for Inactive)
REMARK    1  A    between atoms: C_2  and  O_5
REMARK    2  A    between atoms: O_5  and  C_6
REMARK    3  A    between atoms: C_9  and  C_12
REMARK    4  A    between atoms: C_15  and  C_17
REMARK    5  A    between atoms: N_22  and  C_23
REMARK    6  A    between atoms: C_23  and  C_24
REMARK    7  A    between atoms: C_28  and  C_30
REMARK                            x       y       z     vdW  Elec       q    Type
REMARK                         _______ _______ _______ _____ _____    ______ ____
ROOT
ATOM     17  C   UNL     1      -0.630   0.755  24.392  0.00  0.00    +0.144 C 
ATOM     18  C   UNL     1      -0.048   1.026  23.875  0.00  0.00    +0.073 C 
ATOM     19  C   UNL     1       0.429   0.486  23.471  0.00  0.00    +0.077 A 
ATOM     20  C   UNL     1       0.324  -0.324  23.586  0.00  0.00    +0.090 A 
ATOM     21  C   UNL     1      -0.259  -0.595  24.105  0.00  0.00    +0.121 C 
ATOM     22  N   UNL     1      -0.736  -0.055  24.507  0.00  0.00    -0.257 NA
ATOM     32  N   UNL     1       0.872  -0.722  23.117  0.00  0.00    -0.226 NA
ATOM     33  C   UNL     1       1.317  -0.158  22.712  0.00  0.00    +0.198 A 
ATOM     34  N   UNL     1       1.043   0.588  22.931  0.00  0.00    -0.227 NA
ENDROOT
BRANCH  17  15
ATOM     12  C   UNL     1      -2.102   2.131  25.097  0.00  0.00    +0.203 A 
ATOM     13  N   UNL     1      -1.578   2.119  25.733  0.00  0.00    -0.056 NA
ATOM     14  O   UNL     1      -0.963   1.602  25.546  0.00  0.00    -0.336 OA
ATOM     15  C   UNL     1      -1.106   1.294  24.795  0.00  0.00    +0.251 A 
ATOM     16  N   UNL     1      -1.811   1.621  24.516  0.00  0.00    -0.190 NA
BRANCH  12   9
ATOM      6  C   UNL     1      -4.186   3.460  24.949  0.00  0.00    +0.147 A 
ATOM      7  C   UNL     1      -4.120   2.747  24.538  0.00  0.00    +0.037 A 
ATOM      8  C   UNL     1      -3.426   2.305  24.587  0.00  0.00    +0.006 A 
ATOM      9  C   UNL     1      -2.797   2.575  25.048  0.00  0.00    +0.039 A 
ATOM     10  C   UNL     1      -2.861   3.286  25.458  0.00  0.00    +0.006 A 
ATOM     11  C   UNL     1      -3.556   3.730  25.409  0.00  0.00    +0.037 A 
BRANCH   6   5
ATOM      5  O   UNL     1      -4.880   3.902  24.899  0.00  0.00    -0.404 OA
BRANCH   5   2
ATOM      1  F   UNL     1      -6.100   3.648  25.982  0.00  0.00    -0.133 F 
ATOM      2  C   UNL     1      -5.490   3.775  25.441  0.00  0.00    +0.575 C 
ATOM      3  F   UNL     1      -5.234   4.424  25.882  0.00  0.00    -0.133 F 
ATOM      4  F   UNL     1      -5.745   3.126  25.000  0.00  0.00    -0.133 F 
ENDBRANCH   5   2
ENDBRANCH   6   5
ENDBRANCH  12   9
ENDBRANCH  17  15
BRANCH  22  23
ATOM     23  C   UNL     1      -1.318  -0.326  25.025  0.00  0.00    +0.100 C 
BRANCH  23  24
ATOM     24  C   UNL     1      -1.652  -1.072  24.916  0.00  0.00    -0.005 A 
ATOM     25  C   UNL     1      -1.231  -1.747  25.131  0.00  0.00    -0.003 A 
ATOM     26  C   UNL     1      -1.565  -2.494  25.023  0.00  0.00    +0.000 A 
ATOM     27  C   UNL     1      -2.320  -2.565  24.699  0.00  0.00    +0.010 A 
ATOM     28  C   UNL     1      -2.742  -1.889  24.483  0.00  0.00    +0.068 A 
ATOM     29  C   UNL     1      -2.408  -1.142  24.592  0.00  0.00    +0.007 A 
BRANCH  28  30
ATOM     30  C   UNL     1      -3.497  -1.960  24.160  0.00  0.00    +0.100 C 
ATOM     31  N   UNL     1      -4.252  -2.032  23.835  0.00  0.00    -0.191 NA
ENDBRANCH  28  30
ENDBRANCH  23  24
ENDBRANCH  22  23
TORSDOF 7
ENDMDL
MODEL 4
REMARK VINA RESULT:     -10.7      3.146      5.328
REMARK  Name = 
REMARK  7 active torsions:
REMARK  status: ('A' for Active; 'I' for Inactive)
REMARK    1  A    between atoms: C_2  and  O_5
REMARK    2  A    between atoms: O_5  and  C_6
REMARK    3  A    between atoms: C_9  and  C_12
REMARK    4  A    between atoms: C_15  and  C_17
REMARK    5  A    between atoms: N_22  and  C_23
REMARK    6  A    between atoms: C_23  and  C_24
REMARK    7  A    between atoms: C_28  and  C_30
REMARK                            x       y       z     vdW  Elec       q    Type
REMARK                         _______ _______ _______ _____ _____    ______ ____
ROOT
ATOM     17  C   UNL     1      -3.679  -0.578  24.220  0.00  0.00    +0.144 C 
ATOM     18  C   UNL     1      -4.248  -1.108  23.948  0.00  0.00    +0.073 C 
ATOM     19  C   UNL     1      -4.110  -1.920  23.989  0.00  0.00    +0.077 A 
ATOM     20  C   UNL     1      -3.401  -2.202  24.302  0.00  0.00    +0.090 A 
ATOM     21  C   UNL     1      -2.830  -1.672  24.575  0.00  0.00    +0.121 C 
ATOM     22  N   UNL     1      -2.969  -0.860  24.533  0.00  0.00    -0.257 NA
ATOM     32  N   UNL     1      -3.419  -3.026  24.272  0.00  0.00    -0.226 NA
ATOM     33  C   UNL     1      -4.139  -3.254  23.940  0.00  0.00    +0.198 A 
ATOM     34  N   UNL     1      -4.565  -2.570  23.765  0.00  0.00    -0.227 NA
ENDROOT
BRANCH  17  15
ATOM     12  C   UNL     1      -4.220   1.470  24.480  0.00  0.00    +0.203 A 
ATOM     13  N   UNL     1      -3.840   1.498  23.749  0.00  0.00    -0.056 NA
ATOM     14  O   UNL     1      -3.591   0.734  23.563  0.00  0.00    -0.336 OA
ATOM     15  C   UNL     1      -3.817   0.234  24.178  0.00  0.00    +0.251 A 
ATOM     16  N   UNL     1      -4.206   0.689  24.747  0.00  0.00    -0.190 NA
BRANCH  12   9
ATOM      6  C   UNL     1      -5.228   3.392  25.672  0.00  0.00    +0.147 A 
ATOM      7  C   UNL     1      -5.671   2.707  25.544  0.00  0.00    +0.037 A 
ATOM      8  C   UNL     1      -5.335   2.067  25.147  0.00  0.00    +0.006 A 
ATOM      9  C   UNL     1      -4.556   2.111  24.878  0.00  0.00    +0.039 A 
ATOM     10  C   UNL     1      -4.113   2.795  25.006  0.00  0.00    +0.006 A 
ATOM     11  C   UNL     1      -4.449   3.436  25.403  0.00  0.00    +0.037 A 
BRANCH   6   5
ATOM      5  O   UNL     1      -5.565   4.031  26.069  0.00  0.00    -0.404 OA
BRANCH   5   2
ATOM      1  F   UNL     1      -6.331   5.220  25.219  0.00  0.00    -0.133 F 
ATOM      2  C   UNL     1      -5.948   4.626  25.644  0.00  0.00    +0.575 C 
ATOM      3  F   UNL     1      -5.231   5.024  25.553  0.00  0.00    -0.133 F 
ATOM      4  F   UNL     1      -6.665   4.228  25.735  0.00  0.00    -0.133 F 
ENDBRANCH   5   2
ENDBRANCH   6   5
ENDBRANCH  12   9
ENDBRANCH  17  15
BRANCH  22  23
ATOM     23  C   UNL     1      -2.399  -0.330  24.806  0.00  0.00    +0.100 C 
BRANCH  23  24
ATOM     24  C   UNL     1      -1.609  -0.563  24.854  0.00  0.00    -0.005 A 
ATOM     25  C   UNL     1      -1.342  -0.982  25.511  0.00  0.00    -0.003 A 
ATOM     26  C   UNL     1      -0.552  -1.214  25.559  0.00  0.00    +0.000 A 
ATOM     27  C   UNL     1      -0.029  -1.028  24.949  0.00  0.00    +0.010 A 
ATOM     28  C   UNL     1      -0.296  -0.609  24.291  0.00  0.00    +0.068 A 
ATOM     29  C   UNL     1      -1.086  -0.376  24.243  0.00  0.00    +0.007 A 
BRANCH  28  30
ATOM     30  C   UNL     1       0.227  -0.422  23.681  0.00  0.00    +0.100 C 
ATOM     31  N   UNL     1       0.751  -0.236  23.071  0.00  0.00    -0.191 NA
ENDBRANCH  28  30
ENDBRANCH  23  24
ENDBRANCH  22  23
TORSDOF 7
ENDMDL
MODEL 5
REMARK VINA RESULT:     -10.7      3.442      5.034
REMARK  Name = 
REMARK  7 active torsions:
REMARK  status: ('A' for Active; 'I' for Inactive)
REMARK    1  A    between atoms: C_2  and  O_5
REMARK    2  A    between atoms: O_5  and  C_6
REMARK    3  A    between atoms: C_9  and  C_12
REMARK    4  A    between atoms: C_15  and  C_17
REMARK    5  A    between atoms: N_22  and  C_23
REMARK    6  A    between atoms: C_23  and  C_24
REMARK    7  A    between atoms: C_28  and  C_30
REMARK                            x       y       z     vdW  Elec       q    Type
REMARK                         _______ _______ _______ _____ _____    ______ ____
ROOT
ATOM     17  C   UNL     1      -2.156   1.381  24.565  0.00  0.00    +0.144 C 
ATOM     18  C   UNL     1      -2.476   2.128  24.427  0.00  0.00    +0.073 C 
ATOM     19  C   UNL     1      -3.295   2.232  24.421  0.00  0.00    +0.077 A 
ATOM     20  C   UNL     1      -3.793   1.588  24.552  0.00  0.00    +0.090 A 
ATOM     21  C   UNL     1      -3.472   0.840  24.691  0.00  0.00    +0.121 C 
ATOM     22  N   UNL     1      -2.654   0.737  24.697  0.00  0.00    -0.257 NA
ATOM     32  N   UNL     1      -4.572   1.856  24.514  0.00  0.00    -0.226 NA
ATOM     33  C   UNL     1      -4.555   2.665  24.358  0.00  0.00    +0.198 A 
ATOM     34  N   UNL     1      -3.766   2.897  24.300  0.00  0.00    -0.227 NA
ENDROOT
BRANCH  17  15
ATOM     12  C   UNL     1      -0.089   1.007  24.186  0.00  0.00    +0.203 A 
ATOM     13  N   UNL     1      -0.067   1.230  24.979  0.00  0.00    -0.056 NA
ATOM     14  O   UNL     1      -0.839   1.398  25.218  0.00  0.00    -0.336 OA
ATOM     15  C   UNL     1      -1.338   1.278  24.572  0.00  0.00    +0.251 A 
ATOM     16  N   UNL     1      -0.874   1.037  23.933  0.00  0.00    -0.190 NA
BRANCH  12   9
ATOM      6  C   UNL     1       1.858   0.361  22.800  0.00  0.00    +0.147 A 
ATOM      7  C   UNL     1       1.199  -0.134  22.843  0.00  0.00    +0.037 A 
ATOM      8  C   UNL     1       0.551   0.081  23.305  0.00  0.00    +0.006 A 
ATOM      9  C   UNL     1       0.561   0.792  23.724  0.00  0.00    +0.039 A 
ATOM     10  C   UNL     1       1.218   1.287  23.681  0.00  0.00    +0.006 A 
ATOM     11  C   UNL     1       1.868   1.072  23.219  0.00  0.00    +0.037 A 
BRANCH   6   5
ATOM      5  O   UNL     1       2.506   0.145  22.338  0.00  0.00    -0.404 OA
BRANCH   5   2
ATOM      1  F   UNL     1       4.025   0.173  22.983  0.00  0.00    -0.133 F 
ATOM      2  C   UNL     1       3.266   0.159  22.661  0.00  0.00    +0.575 C 
ATOM      3  F   UNL     1       3.389   0.909  22.339  0.00  0.00    -0.133 F 
ATOM      4  F   UNL     1       3.142  -0.591  22.982  0.00  0.00    -0.133 F 
ENDBRANCH   5   2
ENDBRANCH   6   5
ENDBRANCH  12   9
ENDBRANCH  17  15
BRANCH  22  23
ATOM     23  C   UNL     1      -2.334  -0.011  24.836  0.00  0.00    +0.100 C 
BRANCH  23  24
ATOM     24  C   UNL     1      -2.827  -0.638  25.046  0.00  0.00    -0.005 A 
ATOM     25  C   UNL     1      -2.986  -0.788  25.841  0.00  0.00    -0.003 A 
ATOM     26  C   UNL     1      -3.478  -1.416  26.051  0.00  0.00    +0.000 A 
ATOM     27  C   UNL     1      -3.812  -1.893  25.467  0.00  0.00    +0.010 A 
ATOM     28  C   UNL     1      -3.653  -1.742  24.671  0.00  0.00    +0.068 A 
ATOM     29  C   UNL     1      -3.160  -1.114  24.460  0.00  0.00    +0.007 A 
BRANCH  28  30
ATOM     30  C   UNL     1      -3.986  -2.219  24.086  0.00  0.00    +0.100 C 
ATOM     31  N   UNL     1      -4.320  -2.697  23.503  0.00  0.00    -0.191 NA
ENDBRANCH  28  30
ENDBRANCH  23  24
ENDBRANCH  22  23
TORSDOF 7
ENDMDL
MODEL 6
REMARK VINA RESULT:     -10.5      2.992      5.302
REMARK  Name = 
REMARK  7 active torsions:
REMARK  status: ('A' for Active; 'I' for Inactive)
REMARK    1  A    between atoms: C_2  and  O_5
REMARK    2  A    between atoms: O_5  and  C_6
REMARK    3  A    between atoms: C_9  and  C_12
REMARK    4  A    between atoms: C_15  and  C_17
REMARK    5  A    between atoms: N_22  and  C_23
REMARK    6  A    between atoms: C_23  and  C_24
REMARK    7  A    between atoms: C_28  and  C_30
REMARK                            x       y       z     vdW  Elec       q    Type
REMARK                         _______ _______ _______ _____ _____    ______ ____
ROOT
ATOM     17  C   UNL     1      -3.765  -0.358  24.633  0.00  0.00    +0.144 C 
ATOM     18  C   UNL     1      -4.371  -0.765  24.250  0.00  0.00    +0.073 C 
ATOM     19  C   UNL     1      -4.262  -1.551  24.022  0.00  0.00    +0.077 A 
ATOM     20  C   UNL     1      -3.546  -1.929  24.179  0.00  0.00    +0.090 A 
ATOM     21  C   UNL     1      -2.939  -1.522  24.564  0.00  0.00    +0.121 C 
ATOM     22  N   UNL     1      -3.049  -0.736  24.790  0.00  0.00    -0.257 NA
ATOM     32  N   UNL     1      -3.597  -2.700  23.893  0.00  0.00    -0.226 NA
ATOM     33  C   UNL     1      -4.344  -2.799  23.558  0.00  0.00    +0.198 A 
ATOM     34  N   UNL     1      -4.754  -2.088  23.639  0.00  0.00    -0.227 NA
ENDROOT
BRANCH  17  15
ATOM     12  C   UNL     1      -3.706   1.744  25.000  0.00  0.00    +0.203 A 
ATOM     13  N   UNL     1      -4.382   1.529  25.419  0.00  0.00    -0.056 NA
ATOM     14  O   UNL     1      -4.487   0.715  25.332  0.00  0.00    -0.336 OA
ATOM     15  C   UNL     1      -3.875   0.427  24.860  0.00  0.00    +0.251 A 
ATOM     16  N   UNL     1      -3.391   1.063  24.655  0.00  0.00    -0.190 NA
BRANCH  12   9
ATOM      6  C   UNL     1      -2.775   4.030  24.814  0.00  0.00    +0.147 A 
ATOM      7  C   UNL     1      -2.690   3.606  25.517  0.00  0.00    +0.037 A 
ATOM      8  C   UNL     1      -3.000   2.845  25.579  0.00  0.00    +0.006 A 
ATOM      9  C   UNL     1      -3.395   2.507  24.938  0.00  0.00    +0.039 A 
ATOM     10  C   UNL     1      -3.480   2.930  24.236  0.00  0.00    +0.006 A 
ATOM     11  C   UNL     1      -3.170   3.692  24.173  0.00  0.00    +0.037 A 
BRANCH   6   5
ATOM      5  O   UNL     1      -2.465   4.792  24.752  0.00  0.00    -0.404 OA
BRANCH   5   2
ATOM      1  F   UNL     1      -0.974   5.129  25.373  0.00  0.00    -0.133 F 
ATOM      2  C   UNL     1      -1.719   4.961  25.063  0.00  0.00    +0.575 C 
ATOM      3  F   UNL     1      -1.367   4.661  24.380  0.00  0.00    -0.133 F 
ATOM      4  F   UNL     1      -2.072   5.260  25.746  0.00  0.00    -0.133 F 
ENDBRANCH   5   2
ENDBRANCH   6   5
ENDBRANCH  12   9
ENDBRANCH  17  15
BRANCH  22  23
ATOM     23  C   UNL     1      -2.443  -0.330  25.174  0.00  0.00    +0.100 C 
BRANCH  23  24
ATOM     24  C   UNL     1      -1.671  -0.619  25.148  0.00  0.00    -0.005 A 
ATOM     25  C   UNL     1      -1.396  -1.118  25.744  0.00  0.00    -0.003 A 
ATOM     26  C   UNL     1      -0.624  -1.406  25.718  0.00  0.00    +0.000 A 
ATOM     27  C   UNL     1      -0.126  -1.197  25.095  0.00  0.00    +0.010 A 
ATOM     28  C   UNL     1      -0.401  -0.697  24.497  0.00  0.00    +0.068 A 
ATOM     29  C   UNL     1      -1.173  -0.408  24.524  0.00  0.00    +0.007 A 
BRANCH  28  30
ATOM     30  C   UNL     1       0.097  -0.488  23.874  0.00  0.00    +0.100 C 
ATOM     31  N   UNL     1       0.597  -0.277  23.252  0.00  0.00    -0.191 NA
ENDBRANCH  28  30
ENDBRANCH  23  24
ENDBRANCH  22  23
TORSDOF 7
ENDMDL
MODEL 7
REMARK VINA RESULT:     -10.3      3.483      4.938
REMARK  Name = 
REMARK  7 active torsions:
REMARK  status: ('A' for Active; 'I' for Inactive)
REMARK    1  A    between atoms: C_2  and  O_5
REMARK    2  A    between atoms: O_5  and  C_6
REMARK    3  A    between atoms: C_9  and  C_12
REMARK    4  A    between atoms: C_15  and  C_17
REMARK    5  A    between atoms: N_22  and  C_23
REMARK    6  A    between atoms: C_23  and  C_24
REMARK    7  A    between atoms: C_28  and  C_30
REMARK                            x       y       z     vdW  Elec       q    Type
REMARK                         _______ _______ _______ _____ _____    ______ ____
ROOT
ATOM     17  C   UNL     1      -2.186  -0.071  24.361  0.00  0.00    +0.144 C 
ATOM     18  C   UNL     1      -2.419  -0.861  24.337  0.00  0.00    +0.073 C 
ATOM     19  C   UNL     1      -3.219  -1.055  24.278  0.00  0.00    +0.077 A 
ATOM     20  C   UNL     1      -3.786  -0.456  24.242  0.00  0.00    +0.090 A 
ATOM     21  C   UNL     1      -3.553   0.335  24.266  0.00  0.00    +0.121 C 
ATOM     22  N   UNL     1      -2.753   0.528  24.325  0.00  0.00    -0.257 NA
ATOM     32  N   UNL     1      -4.528  -0.811  24.186  0.00  0.00    -0.226 NA
ATOM     33  C   UNL     1      -4.421  -1.629  24.186  0.00  0.00    +0.198 A 
ATOM     34  N   UNL     1      -3.612  -1.779  24.243  0.00  0.00    -0.227 NA
ENDROOT
BRANCH  17  15
ATOM     12  C   UNL     1      -0.105   0.331  24.113  0.00  0.00    +0.203 A 
ATOM     13  N   UNL     1      -0.206   0.508  24.911  0.00  0.00    -0.056 NA
ATOM     14  O   UNL     1      -0.999   0.378  25.101  0.00  0.00    -0.336 OA
ATOM     15  C   UNL     1      -1.387   0.122  24.420  0.00  0.00    +0.251 A 
ATOM     16  N   UNL     1      -0.834   0.093  23.808  0.00  0.00    -0.190 NA
BRANCH  12   9
ATOM      6  C   UNL     1       2.016   0.486  22.845  0.00  0.00    +0.147 A 
ATOM      7  C   UNL     1       1.537  -0.182  22.769  0.00  0.00    +0.037 A 
ATOM      8  C   UNL     1       0.831  -0.233  23.191  0.00  0.00    +0.006 A 
ATOM      9  C   UNL     1       0.603   0.383  23.690  0.00  0.00    +0.039 A 
ATOM     10  C   UNL     1       1.080   1.050  23.766  0.00  0.00    +0.006 A 
ATOM     11  C   UNL     1       1.788   1.103  23.344  0.00  0.00    +0.037 A 
BRANCH   6   5
ATOM      5  O   UNL     1       2.722   0.537  22.422  0.00  0.00    -0.404 OA
BRANCH   5   2
ATOM      1  F   UNL     1       4.165   0.550  23.224  0.00  0.00    -0.133 F 
ATOM      2  C   UNL     1       3.444   0.543  22.823  0.00  0.00    +0.575 C 
ATOM      3  F   UNL     1       3.453   1.368  22.793  0.00  0.00    -0.133 F 
ATOM      4  F   UNL     1       3.434  -0.281  22.853  0.00  0.00    -0.133 F 
ENDBRANCH   5   2
ENDBRANCH   6   5
ENDBRANCH  12   9
ENDBRANCH  17  15
BRANCH  22  23
ATOM     23  C   UNL     1      -2.521   1.319  24.349  0.00  0.00    +0.100 C 
BRANCH  23  24
ATOM     24  C   UNL     1      -3.066   1.914  24.179  0.00  0.00    -0.005 A 
ATOM     25  C   UNL     1      -3.182   2.157  23.400  0.00  0.00    -0.003 A 
ATOM     26  C   UNL     1      -3.727   2.753  23.230  0.00  0.00    +0.000 A 
ATOM     27  C   UNL     1      -4.156   3.106  23.840  0.00  0.00    +0.010 A 
ATOM     28  C   UNL     1      -4.039   2.863  24.621  0.00  0.00    +0.068 A 
ATOM     29  C   UNL     1      -3.494   2.267  24.790  0.00  0.00    +0.007 A 
BRANCH  28  30
ATOM     30  C   UNL     1      -4.468   3.216  25.230  0.00  0.00    +0.100 C 
ATOM     31  N   UNL     1      -4.897   3.571  25.840  0.00  0.00    -0.191 NA
ENDBRANCH  28  30
ENDBRANCH  23  24
ENDBRANCH  22  23
TORSDOF 7
ENDMDL
MODEL 8
REMARK VINA RESULT:     -10.2      3.002      4.897
REMARK  Name = 
REMARK  7 active torsions:
REMARK  status: ('A' for Active; 'I' for Inactive)
REMARK    1  A    between atoms: C_2  and  O_5
REMARK    2  A    between atoms: O_5  and  C_6
REMARK    3  A    between atoms: C_9  and  C_12
REMARK    4  A    between atoms: C_15  and  C_17
REMARK    5  A    between atoms: N_22  and  C_23
REMARK    6  A    between atoms: C_23  and  C_24
REMARK    7  A    between atoms: C_28  and  C_30
REMARK                            x       y       z     vdW  Elec       q    Type
REMARK                         _______ _______ _______ _____ _____    ______ ____
ROOT
ATOM     17  C   UNL     1      -2.502  -0.247  24.447  0.00  0.00    +0.144 C 
ATOM     18  C   UNL     1      -2.648  -1.029  24.662  0.00  0.00    +0.073 C 
ATOM     19  C   UNL     1      -2.020  -1.555  24.762  0.00  0.00    +0.077 A 
ATOM     20  C   UNL     1      -1.245  -1.298  24.645  0.00  0.00    +0.090 A 
ATOM     21  C   UNL     1      -1.098  -0.514  24.430  0.00  0.00    +0.121 C 
ATOM     22  N   UNL     1      -1.727   0.010  24.331  0.00  0.00    -0.257 NA
ATOM     32  N   UNL     1      -0.742  -1.936  24.782  0.00  0.00    -0.226 NA
ATOM     33  C   UNL     1      -1.205  -2.588  24.983  0.00  0.00    +0.198 A 
ATOM     34  N   UNL     1      -1.995  -2.352  24.970  0.00  0.00    -0.227 NA
ENDROOT
BRANCH  17  15
ATOM     12  C   UNL     1      -4.049   1.218  24.583  0.00  0.00    +0.203 A 
ATOM     13  N   UNL     1      -4.144   0.957  23.807  0.00  0.00    -0.056 NA
ATOM     14  O   UNL     1      -3.576   0.377  23.662  0.00  0.00    -0.336 OA
ATOM     15  C   UNL     1      -3.129   0.278  24.348  0.00  0.00    +0.251 A 
ATOM     16  N   UNL     1      -3.422   0.798  24.918  0.00  0.00    -0.190 NA
BRANCH  12   9
ATOM      6  C   UNL     1      -5.406   2.952  25.714  0.00  0.00    +0.147 A 
ATOM      7  C   UNL     1      -5.685   2.176  25.664  0.00  0.00    +0.037 A 
ATOM      8  C   UNL     1      -5.233   1.599  25.287  0.00  0.00    +0.006 A 
ATOM      9  C   UNL     1      -4.501   1.796  24.960  0.00  0.00    +0.039 A 
ATOM     10  C   UNL     1      -4.222   2.570  25.010  0.00  0.00    +0.006 A 
ATOM     11  C   UNL     1      -4.674   3.149  25.387  0.00  0.00    +0.037 A 
BRANCH   6   5
ATOM      5  O   UNL     1      -5.858   3.529  26.091  0.00  0.00    -0.404 OA
BRANCH   5   2
ATOM      1  F   UNL     1      -6.136   4.976  25.347  0.00  0.00    -0.133 F 
ATOM      2  C   UNL     1      -5.997   4.253  25.719  0.00  0.00    +0.575 C 
ATOM      3  F   UNL     1      -6.695   3.953  25.396  0.00  0.00    -0.133 F 
ATOM      4  F   UNL     1      -5.299   4.552  26.042  0.00  0.00    -0.133 F 
ENDBRANCH   5   2
ENDBRANCH   6   5
ENDBRANCH  12   9
ENDBRANCH  17  15
BRANCH  22  23
ATOM     23  C   UNL     1      -1.579   0.793  24.115  0.00  0.00    +0.100 C 
BRANCH  23  24
ATOM     24  C   UNL     1      -0.836   1.126  24.251  0.00  0.00    -0.005 A 
ATOM     25  C   UNL     1      -0.241   1.048  23.686  0.00  0.00    -0.003 A 
ATOM     26  C   UNL     1       0.502   1.381  23.822  0.00  0.00    +0.000 A 
ATOM     27  C   UNL     1       0.649   1.791  24.522  0.00  0.00    +0.010 A 
ATOM     28  C   UNL     1       0.052   1.869  25.088  0.00  0.00    +0.068 A 
ATOM     29  C   UNL     1      -0.691   1.536  24.952  0.00  0.00    +0.007 A 
BRANCH  28  30
ATOM     30  C   UNL     1       0.199   2.279  25.788  0.00  0.00    +0.100 C 
ATOM     31  N   UNL     1       0.346   2.688  26.489  0.00  0.00    -0.191 NA
ENDBRANCH  28  30
ENDBRANCH  23  24
ENDBRANCH  22  23
TORSDOF 7
ENDMDL
MODEL 9
REMARK VINA RESULT:     -10.1      4.639      5.971
REMARK  Name = 
REMARK  7 active torsions:
REMARK  status: ('A' for Active; 'I' for Inactive)
REMARK    1  A    between atoms: C_2  and  O_5
REMARK    2  A    between atoms: O_5  and  C_6
REMARK    3  A    between atoms: C_9  and  C_12
REMARK    4  A    between atoms: C_15  and  C_17
REMARK    5  A    between atoms: N_22  and  C_23
REMARK    6  A    between atoms: C_23  and  C_24
REMARK    7  A    between atoms: C_28  and  C_30
REMARK                            x       y       z     vdW  Elec       q    Type
REMARK                         _______ _______ _______ _____ _____    ______ ____
ROOT
ATOM     17  C   UNL     1      -0.133  -0.159  23.996  0.00  0.00    +0.144 C 
ATOM     18  C   UNL     1      -0.433  -0.916  24.118  0.00  0.00    +0.073 C 
ATOM     19  C   UNL     1      -1.070  -1.030  24.630  0.00  0.00    +0.077 A 
ATOM     20  C   UNL     1      -1.407  -0.385  25.019  0.00  0.00    +0.090 A 
ATOM     21  C   UNL     1      -1.106   0.374  24.897  0.00  0.00    +0.121 C 
ATOM     22  N   UNL     1      -0.469   0.486  24.385  0.00  0.00    -0.257 NA
ATOM     32  N   UNL     1      -2.025  -0.664  25.488  0.00  0.00    -0.226 NA
ATOM     33  C   UNL     1      -2.071  -1.482  25.389  0.00  0.00    +0.198 A 
ATOM     34  N   UNL     1      -1.481  -1.707  24.859  0.00  0.00    -0.227 NA
ENDROOT
BRANCH  17  15
ATOM     12  C   UNL     1       1.744   0.110  23.015  0.00  0.00    +0.203 A 
ATOM     13  N   UNL     1       1.224   0.150  22.376  0.00  0.00    -0.056 NA
ATOM     14  O   UNL     1       0.457   0.054  22.667  0.00  0.00    -0.336 OA
ATOM     15  C   UNL     1       0.504  -0.045  23.484  0.00  0.00    +0.251 A 
ATOM     16  N   UNL     1       1.299  -0.010  23.700  0.00  0.00    -0.190 NA
BRANCH  12   9
ATOM      6  C   UNL     1       4.208   0.319  22.900  0.00  0.00    +0.147 A 
ATOM      7  C   UNL     1       3.731   0.975  22.748  0.00  0.00    +0.037 A 
ATOM      8  C   UNL     1       2.910   0.905  22.787  0.00  0.00    +0.006 A 
ATOM      9  C   UNL     1       2.566   0.179  22.977  0.00  0.00    +0.039 A 
ATOM     10  C   UNL     1       3.042  -0.476  23.128  0.00  0.00    +0.006 A 
ATOM     11  C   UNL     1       3.864  -0.407  23.090  0.00  0.00    +0.037 A 
BRANCH   6   5
ATOM      5  O   UNL     1       5.029   0.388  22.862  0.00  0.00    -0.404 OA
BRANCH   5   2
ATOM      1  F   UNL     1       5.950   0.029  24.183  0.00  0.00    -0.133 F 
ATOM      2  C   UNL     1       5.490   0.208  23.522  0.00  0.00    +0.575 C 
ATOM      3  F   UNL     1       5.343   0.960  23.830  0.00  0.00    -0.133 F 
ATOM      4  F   UNL     1       5.636  -0.543  23.215  0.00  0.00    -0.133 F 
ENDBRANCH   5   2
ENDBRANCH   6   5
ENDBRANCH  12   9
ENDBRANCH  17  15
BRANCH  22  23
ATOM     23  C   UNL     1      -0.169   1.245  24.262  0.00  0.00    +0.100 C 
BRANCH  23  24
ATOM     24  C   UNL     1      -0.385   1.861  24.767  0.00  0.00    -0.005 A 
ATOM     25  C   UNL     1       0.033   1.985  25.467  0.00  0.00    -0.003 A 
ATOM     26  C   UNL     1      -0.183   2.601  25.972  0.00  0.00    +0.000 A 
ATOM     27  C   UNL     1      -0.816   3.093  25.777  0.00  0.00    +0.010 A 
ATOM     28  C   UNL     1      -1.234   2.968  25.076  0.00  0.00    +0.068 A 
ATOM     29  C   UNL     1      -1.018   2.352  24.571  0.00  0.00    +0.007 A 
BRANCH  28  30
ATOM     30  C   UNL     1      -1.867   3.459  24.881  0.00  0.00    +0.100 C 
ATOM     31  N   UNL     1      -2.501   3.951  24.687  0.00  0.00    -0.191 NA
ENDBRANCH  28  30
ENDBRANCH  23  24
ENDBRANCH  22  23
TORSDOF 7
ENDMDL
