MODEL 1
REMARK VINA RESULT:      -8.5      0.000      0.000
REMARK  Name = 
REMARK  5 active torsions:
REMARK  status: ('A' for Active; 'I' for Inactive)
REMARK    1  A    between atoms: N_4  and  C_5
REMARK    2  A    between atoms: C_5  and  C_6
REMARK    3  A    between atoms: C_6  and  N_7
REMARK    4  A    between atoms: N_21  and  C_22
REMARK    5  A    between atoms: C_22  and  C_23
REMARK                            x       y       z     vdW  Elec       q    Type
REMARK                         _______ _______ _______ _____ _____    ______ ____
ROOT
ATOM      7  N   UNL     1      -3.148   3.053  25.018  0.00  0.00    -0.278 N 
ATOM      8  C   UNL     1      -2.500   2.544  24.988  0.00  0.00    +0.094 C 
ATOM      9  C   UNL     1      -2.492   1.726  24.888  0.00  0.00    +0.023 C 
ATOM     10  C   UNL     1      -3.131   1.213  24.794  0.00  0.00    +0.022 C 
ATOM     11  C   UNL     1      -2.882   0.432  24.711  0.00  0.00    +0.095 C 
ATOM     12  N   UNL     1      -3.437  -0.171  24.610  0.00  0.00    -0.263 N 
ATOM     13  C   UNL     1      -4.242   0.010  24.592  0.00  0.00    +0.095 C 
ATOM     14  C   UNL     1      -4.492   0.792  24.675  0.00  0.00    +0.022 C 
ATOM     15  C   UNL     1      -3.936   1.393  24.776  0.00  0.00    +0.012 C 
ATOM     16  C   UNL     1      -4.301   2.130  24.848  0.00  0.00    +0.085 C 
ATOM     17  C   UNL     1      -3.950   2.869  24.956  0.00  0.00    +0.226 C 
ATOM     18  O   UNL     1      -4.469   3.508  25.008  0.00  0.00    -0.275 OA
ATOM     19  C   UNL     1      -3.188  -0.953  24.526  0.00  0.00    +0.324 C 
ATOM     20  O   UNL     1      -2.383  -1.133  24.544  0.00  0.00    -0.251 OA
ATOM     21  N   UNL     1      -3.742  -1.554  24.425  0.00  0.00    -0.184 NA
ENDROOT
BRANCH   7   6
ATOM      6  C   UNL     1      -2.972   3.852  25.125  0.00  0.00    +0.117 C 
BRANCH   6   5
ATOM      5  C   UNL     1      -2.189   4.111  25.088  0.00  0.00    +0.137 C 
BRANCH   5   4
ATOM      1  C   UNL     1      -1.075   5.981  24.937  0.00  0.00    +0.096 C 
ATOM      2  C   UNL     1      -1.242   5.174  24.971  0.00  0.00    +0.242 C 
ATOM      3  O   UNL     1      -0.630   4.624  24.922  0.00  0.00    -0.273 OA
ATOM      4  N   UNL     1      -2.022   4.918  25.054  0.00  0.00    -0.204 NA
ENDBRANCH   5   4
ENDBRANCH   6   5
ENDBRANCH   7   6
BRANCH  21  22
ATOM     22  C   UNL     1      -3.493  -2.336  24.342  0.00  0.00    +0.143 C 
BRANCH  22  23
ATOM     23  C   UNL     1      -4.029  -2.918  24.110  0.00  0.00    -0.003 C 
ATOM     24  C   UNL     1      -3.791  -3.706  24.070  0.00  0.00    -0.003 C 
ENDBRANCH  22  23
ENDBRANCH  21  22
TORSDOF 5
ENDMDL
MODEL 2
REMARK VINA RESULT:      -8.3      2.930      4.546
REMARK  Name = 
REMARK  5 active torsions:
REMARK  status: ('A' for Active; 'I' for Inactive)
REMARK    1  A    between atoms: N_4  and  C_5
REMARK    2  A    between atoms: C_5  and  C_6
REMARK    3  A    between atoms: C_6  and  N_7
REMARK    4  A    between atoms: N_21  and  C_22
REMARK    5  A    between atoms: C_22  and  C_23
REMARK                            x       y       z     vdW  Elec       q    Type
REMARK                         _______ _______ _______ _____ _____    ______ ____
ROOT
ATOM      7  N   UNL     1      -0.252  -0.059  24.002  0.00  0.00    -0.278 N 
ATOM      8  C   UNL     1      -0.484   0.692  23.753  0.00  0.00    +0.094 C 
ATOM      9  C   UNL     1      -1.213   1.066  23.852  0.00  0.00    +0.023 C 
ATOM     10  C   UNL     1      -1.890   0.780  24.226  0.00  0.00    +0.022 C 
ATOM     11  C   UNL     1      -2.502   1.332  24.204  0.00  0.00    +0.095 C 
ATOM     12  N   UNL     1      -3.231   1.154  24.548  0.00  0.00    -0.263 N 
ATOM     13  C   UNL     1      -3.347   0.425  24.914  0.00  0.00    +0.095 C 
ATOM     14  C   UNL     1      -2.734  -0.128  24.937  0.00  0.00    +0.022 C 
ATOM     15  C   UNL     1      -2.006   0.050  24.593  0.00  0.00    +0.012 C 
ATOM     16  C   UNL     1      -1.473  -0.575  24.676  0.00  0.00    +0.085 C 
ATOM     17  C   UNL     1      -0.693  -0.623  24.413  0.00  0.00    +0.226 C 
ATOM     18  O   UNL     1      -0.300  -1.328  24.584  0.00  0.00    -0.275 OA
ATOM     19  C   UNL     1      -3.844   1.706  24.526  0.00  0.00    +0.324 C 
ATOM     20  O   UNL     1      -3.728   2.436  24.159  0.00  0.00    -0.251 OA
ATOM     21  N   UNL     1      -4.572   1.529  24.870  0.00  0.00    -0.184 NA
ENDROOT
BRANCH   7   6
ATOM      6  C   UNL     1       0.522  -0.275  23.816  0.00  0.00    +0.117 C 
BRANCH   6   5
ATOM      5  C   UNL     1       0.867  -0.013  23.115  0.00  0.00    +0.137 C 
BRANCH   5   4
ATOM      1  C   UNL     1       2.899   0.141  22.335  0.00  0.00    +0.096 C 
ATOM      2  C   UNL     1       2.086   0.007  22.370  0.00  0.00    +0.242 C 
ATOM      3  O   UNL     1       1.680  -0.242  21.697  0.00  0.00    -0.273 OA
ATOM      4  N   UNL     1       1.680   0.122  23.079  0.00  0.00    -0.204 NA
ENDBRANCH   5   4
ENDBRANCH   6   5
ENDBRANCH   7   6
BRANCH  21  22
ATOM     22  C   UNL     1      -5.184   2.081  24.848  0.00  0.00    +0.143 C 
BRANCH  22  23
ATOM     23  C   UNL     1      -5.946   1.862  25.078  0.00  0.00    -0.003 C 
ATOM     24  C   UNL     1      -6.316   2.253  25.703  0.00  0.00    -0.003 C 
ENDBRANCH  22  23
ENDBRANCH  21  22
TORSDOF 5
ENDMDL
MODEL 3
REMARK VINA RESULT:      -8.2      1.036      5.482
REMARK  Name = 
REMARK  5 active torsions:
REMARK  status: ('A' for Active; 'I' for Inactive)
REMARK    1  A    between atoms: N_4  and  C_5
REMARK    2  A    between atoms: C_5  and  C_6
REMARK    3  A    between atoms: C_6  and  N_7
REMARK    4  A    between atoms: N_21  and  C_22
REMARK    5  A    between atoms: C_22  and  C_23
REMARK                            x       y       z     vdW  Elec       q    Type
REMARK                         _______ _______ _______ _____ _____    ______ ____
ROOT
ATOM      7  N   UNL     1      -3.988  -0.009  24.388  0.00  0.00    -0.278 N 
ATOM      8  C   UNL     1      -3.176   0.068  24.267  0.00  0.00    +0.094 C 
ATOM      9  C   UNL     1      -2.704   0.739  24.350  0.00  0.00    +0.023 C 
ATOM     10  C   UNL     1      -2.929   1.500  24.576  0.00  0.00    +0.022 C 
ATOM     11  C   UNL     1      -2.283   2.013  24.591  0.00  0.00    +0.095 C 
ATOM     12  N   UNL     1      -2.388   2.804  24.803  0.00  0.00    -0.263 N 
ATOM     13  C   UNL     1      -3.140   3.081  25.001  0.00  0.00    +0.095 C 
ATOM     14  C   UNL     1      -3.786   2.567  24.986  0.00  0.00    +0.022 C 
ATOM     15  C   UNL     1      -3.680   1.778  24.774  0.00  0.00    +0.012 C 
ATOM     16  C   UNL     1      -4.393   1.362  24.795  0.00  0.00    +0.085 C 
ATOM     17  C   UNL     1      -4.530   0.567  24.623  0.00  0.00    +0.226 C 
ATOM     18  O   UNL     1      -5.312   0.314  24.696  0.00  0.00    -0.275 OA
ATOM     19  C   UNL     1      -1.742   3.317  24.818  0.00  0.00    +0.324 C 
ATOM     20  O   UNL     1      -0.991   3.040  24.620  0.00  0.00    -0.251 OA
ATOM     21  N   UNL     1      -1.848   4.107  25.031  0.00  0.00    -0.184 NA
ENDROOT
BRANCH   7   6
ATOM      6  C   UNL     1      -4.300  -0.761  24.257  0.00  0.00    +0.117 C 
BRANCH   6   5
ATOM      5  C   UNL     1      -3.875  -1.430  24.484  0.00  0.00    +0.137 C 
BRANCH   5   4
ATOM      1  C   UNL     1      -3.847  -3.565  24.030  0.00  0.00    +0.096 C 
ATOM      2  C   UNL     1      -3.741  -2.852  24.431  0.00  0.00    +0.242 C 
ATOM      3  O   UNL     1      -3.396  -2.847  25.180  0.00  0.00    -0.273 OA
ATOM      4  N   UNL     1      -3.981  -2.143  24.083  0.00  0.00    -0.204 NA
ENDBRANCH   5   4
ENDBRANCH   6   5
ENDBRANCH   7   6
BRANCH  21  22
ATOM     22  C   UNL     1      -1.202   4.619  25.045  0.00  0.00    +0.143 C 
BRANCH  22  23
ATOM     23  C   UNL     1      -1.322   5.433  25.116  0.00  0.00    -0.003 C 
ATOM     24  C   UNL     1      -0.822   5.959  24.726  0.00  0.00    -0.003 C 
ENDBRANCH  22  23
ENDBRANCH  21  22
TORSDOF 5
ENDMDL
MODEL 4
REMARK VINA RESULT:      -7.9      1.403      2.094
REMARK  Name = 
REMARK  5 active torsions:
REMARK  status: ('A' for Active; 'I' for Inactive)
REMARK    1  A    between atoms: N_4  and  C_5
REMARK    2  A    between atoms: C_5  and  C_6
REMARK    3  A    between atoms: C_6  and  N_7
REMARK    4  A    between atoms: N_21  and  C_22
REMARK    5  A    between atoms: C_22  and  C_23
REMARK                            x       y       z     vdW  Elec       q    Type
REMARK                         _______ _______ _______ _____ _____    ______ ____
ROOT
ATOM      7  N   UNL     1      -0.945   2.461  25.285  0.00  0.00    -0.278 N 
ATOM      8  C   UNL     1      -1.722   2.414  25.013  0.00  0.00    +0.094 C 
ATOM      9  C   UNL     1      -2.180   1.741  24.878  0.00  0.00    +0.023 C 
ATOM     10  C   UNL     1      -1.974   0.949  24.980  0.00  0.00    +0.022 C 
ATOM     11  C   UNL     1      -2.596   0.447  24.780  0.00  0.00    +0.095 C 
ATOM     12  N   UNL     1      -2.504  -0.371  24.843  0.00  0.00    -0.263 N 
ATOM     13  C   UNL     1      -1.788  -0.685  25.106  0.00  0.00    +0.095 C 
ATOM     14  C   UNL     1      -1.165  -0.183  25.306  0.00  0.00    +0.022 C 
ATOM     15  C   UNL     1      -1.258   0.634  25.243  0.00  0.00    +0.012 C 
ATOM     16  C   UNL     1      -0.572   1.034  25.469  0.00  0.00    +0.085 C 
ATOM     17  C   UNL     1      -0.433   1.847  25.487  0.00  0.00    +0.226 C 
ATOM     18  O   UNL     1       0.317   2.076  25.742  0.00  0.00    -0.275 OA
ATOM     19  C   UNL     1      -3.127  -0.874  24.643  0.00  0.00    +0.324 C 
ATOM     20  O   UNL     1      -3.843  -0.559  24.380  0.00  0.00    -0.251 OA
ATOM     21  N   UNL     1      -3.035  -1.690  24.706  0.00  0.00    -0.184 NA
ENDROOT
BRANCH   7   6
ATOM      6  C   UNL     1      -0.639   3.223  25.364  0.00  0.00    +0.117 C 
BRANCH   6   5
ATOM      5  C   UNL     1      -1.133   3.877  25.278  0.00  0.00    +0.137 C 
BRANCH   5   4
ATOM      1  C   UNL     1      -0.965   5.991  24.763  0.00  0.00    +0.096 C 
ATOM      2  C   UNL     1      -1.264   5.284  25.063  0.00  0.00    +0.242 C 
ATOM      3  O   UNL     1      -1.993   5.275  25.448  0.00  0.00    -0.273 OA
ATOM      4  N   UNL     1      -0.834   4.585  24.978  0.00  0.00    -0.204 NA
ENDBRANCH   5   4
ENDBRANCH   6   5
ENDBRANCH   7   6
BRANCH  21  22
ATOM     22  C   UNL     1      -3.657  -2.193  24.506  0.00  0.00    +0.143 C 
BRANCH  22  23
ATOM     23  C   UNL     1      -3.558  -3.011  24.549  0.00  0.00    -0.003 C 
ATOM     24  C   UNL     1      -3.931  -3.501  24.001  0.00  0.00    -0.003 C 
ENDBRANCH  22  23
ENDBRANCH  21  22
TORSDOF 5
ENDMDL
MODEL 5
REMARK VINA RESULT:      -7.4      2.888      4.544
REMARK  Name = 
REMARK  5 active torsions:
REMARK  status: ('A' for Active; 'I' for Inactive)
REMARK    1  A    between atoms: N_4  and  C_5
REMARK    2  A    between atoms: C_5  and  C_6
REMARK    3  A    between atoms: C_6  and  N_7
REMARK    4  A    between atoms: N_21  and  C_22
REMARK    5  A    between atoms: C_22  and  C_23
REMARK                            x       y       z     vdW  Elec       q    Type
REMARK                         _______ _______ _______ _____ _____    ______ ____
ROOT
ATOM      7  N   UNL     1      -3.204   0.257  24.942  0.00  0.00    -0.278 N 
ATOM      8  C   UNL     1      -2.809   0.952  24.739  0.00  0.00    +0.094 C 
ATOM      9  C   UNL     1      -2.040   1.044  24.454  0.00  0.00    +0.023 C 
ATOM     10  C   UNL     1      -1.476   0.462  24.302  0.00  0.00    +0.022 C 
ATOM     11  C   UNL     1      -0.774   0.789  24.020  0.00  0.00    +0.095 C 
ATOM     12  N   UNL     1      -0.136   0.300  23.833  0.00  0.00    -0.263 N 
ATOM     13  C   UNL     1      -0.201  -0.517  23.928  0.00  0.00    +0.095 C 
ATOM     14  C   UNL     1      -0.905  -0.845  24.211  0.00  0.00    +0.022 C 
ATOM     15  C   UNL     1      -1.542  -0.355  24.397  0.00  0.00    +0.012 C 
ATOM     16  C   UNL     1      -2.187  -0.792  24.668  0.00  0.00    +0.085 C 
ATOM     17  C   UNL     1      -2.927  -0.519  24.910  0.00  0.00    +0.226 C 
ATOM     18  O   UNL     1      -3.461  -1.099  25.154  0.00  0.00    -0.275 OA
ATOM     19  C   UNL     1       0.567   0.627  23.551  0.00  0.00    +0.324 C 
ATOM     20  O   UNL     1       0.633   1.444  23.456  0.00  0.00    -0.251 OA
ATOM     21  N   UNL     1       1.204   0.138  23.365  0.00  0.00    -0.184 NA
ENDROOT
BRANCH   7   6
ATOM      6  C   UNL     1      -3.978   0.351  25.213  0.00  0.00    +0.117 C 
BRANCH   6   5
ATOM      5  C   UNL     1      -4.413   1.016  24.995  0.00  0.00    +0.137 C 
BRANCH   5   4
ATOM      1  C   UNL     1      -6.304   1.986  25.494  0.00  0.00    +0.096 C 
ATOM      2  C   UNL     1      -5.586   1.824  25.122  0.00  0.00    +0.242 C 
ATOM      3  O   UNL     1      -5.322   2.305  24.507  0.00  0.00    -0.273 OA
ATOM      4  N   UNL     1      -5.132   1.179  25.367  0.00  0.00    -0.204 NA
ENDBRANCH   5   4
ENDBRANCH   6   5
ENDBRANCH   7   6
BRANCH  21  22
ATOM     22  C   UNL     1       1.907   0.465  23.083  0.00  0.00    +0.143 C 
BRANCH  22  23
ATOM     23  C   UNL     1       2.461  -0.012  22.702  0.00  0.00    -0.003 C 
ATOM     24  C   UNL     1       3.205   0.289  22.512  0.00  0.00    -0.003 C 
ENDBRANCH  22  23
ENDBRANCH  21  22
TORSDOF 5
ENDMDL
MODEL 6
REMARK VINA RESULT:      -7.4      2.840      4.209
REMARK  Name = 
REMARK  5 active torsions:
REMARK  status: ('A' for Active; 'I' for Inactive)
REMARK    1  A    between atoms: N_4  and  C_5
REMARK    2  A    between atoms: C_5  and  C_6
REMARK    3  A    between atoms: C_6  and  N_7
REMARK    4  A    between atoms: N_21  and  C_22
REMARK    5  A    between atoms: C_22  and  C_23
REMARK                            x       y       z     vdW  Elec       q    Type
REMARK                         _______ _______ _______ _____ _____    ______ ____
ROOT
ATOM      7  N   UNL     1      -2.750   2.694  25.010  0.00  0.00    -0.278 N 
ATOM      8  C   UNL     1      -2.771   1.994  24.574  0.00  0.00    +0.094 C 
ATOM      9  C   UNL     1      -2.142   1.570  24.249  0.00  0.00    +0.023 C 
ATOM     10  C   UNL     1      -1.336   1.743  24.280  0.00  0.00    +0.022 C 
ATOM     11  C   UNL     1      -0.890   1.175  23.882  0.00  0.00    +0.095 C 
ATOM     12  N   UNL     1      -0.069   1.244  23.846  0.00  0.00    -0.263 N 
ATOM     13  C   UNL     1       0.307   1.882  24.209  0.00  0.00    +0.095 C 
ATOM     14  C   UNL     1      -0.139   2.452  24.607  0.00  0.00    +0.022 C 
ATOM     15  C   UNL     1      -0.960   2.382  24.642  0.00  0.00    +0.012 C 
ATOM     16  C   UNL     1      -1.297   3.005  25.065  0.00  0.00    +0.085 C 
ATOM     17  C   UNL     1      -2.094   3.144  25.228  0.00  0.00    +0.226 C 
ATOM     18  O   UNL     1      -2.256   3.823  25.668  0.00  0.00    -0.275 OA
ATOM     19  C   UNL     1       0.377   0.675  23.448  0.00  0.00    +0.324 C 
ATOM     20  O   UNL     1       0.001   0.036  23.085  0.00  0.00    -0.251 OA
ATOM     21  N   UNL     1       1.198   0.745  23.412  0.00  0.00    -0.184 NA
ENDROOT
BRANCH   7   6
ATOM      6  C   UNL     1      -3.481   2.982  25.260  0.00  0.00    +0.117 C 
BRANCH   6   5
ATOM      5  C   UNL     1      -4.166   2.542  25.127  0.00  0.00    +0.137 C 
BRANCH   5   4
ATOM      1  C   UNL     1      -6.208   2.432  25.888  0.00  0.00    +0.096 C 
ATOM      2  C   UNL     1      -5.555   2.338  25.393  0.00  0.00    +0.242 C 
ATOM      3  O   UNL     1      -5.637   1.949  24.672  0.00  0.00    -0.273 OA
ATOM      4  N   UNL     1      -4.819   2.635  25.622  0.00  0.00    -0.204 NA
ENDBRANCH   5   4
ENDBRANCH   6   5
ENDBRANCH   7   6
BRANCH  21  22
ATOM     22  C   UNL     1       1.643   0.176  23.014  0.00  0.00    +0.143 C 
BRANCH  22  23
ATOM     23  C   UNL     1       2.466   0.234  22.997  0.00  0.00    -0.003 C 
ATOM     24  C   UNL     1       2.874   0.108  22.292  0.00  0.00    -0.003 C 
ENDBRANCH  22  23
ENDBRANCH  21  22
TORSDOF 5
ENDMDL
MODEL 7
REMARK VINA RESULT:      -7.3      2.974      4.313
REMARK  Name = 
REMARK  5 active torsions:
REMARK  status: ('A' for Active; 'I' for Inactive)
REMARK    1  A    between atoms: N_4  and  C_5
REMARK    2  A    between atoms: C_5  and  C_6
REMARK    3  A    between atoms: C_6  and  N_7
REMARK    4  A    between atoms: N_21  and  C_22
REMARK    5  A    between atoms: C_22  and  C_23
REMARK                            x       y       z     vdW  Elec       q    Type
REMARK                         _______ _______ _______ _____ _____    ______ ____
ROOT
ATOM      7  N   UNL     1       0.073   1.250  24.132  0.00  0.00    -0.278 N 
ATOM      8  C   UNL     1      -0.441   0.610  24.055  0.00  0.00    +0.094 C 
ATOM      9  C   UNL     1      -1.256   0.587  24.179  0.00  0.00    +0.023 C 
ATOM     10  C   UNL     1      -1.758   1.199  24.412  0.00  0.00    +0.022 C 
ATOM     11  C   UNL     1      -2.539   0.942  24.472  0.00  0.00    +0.095 C 
ATOM     12  N   UNL     1      -3.132   1.470  24.698  0.00  0.00    -0.263 N 
ATOM     13  C   UNL     1      -2.943   2.256  24.863  0.00  0.00    +0.095 C 
ATOM     14  C   UNL     1      -2.160   2.513  24.802  0.00  0.00    +0.022 C 
ATOM     15  C   UNL     1      -1.569   1.985  24.577  0.00  0.00    +0.012 C 
ATOM     16  C   UNL     1      -0.831   2.353  24.550  0.00  0.00    +0.085 C 
ATOM     17  C   UNL     1      -0.100   2.025  24.352  0.00  0.00    +0.226 C 
ATOM     18  O   UNL     1       0.543   2.542  24.378  0.00  0.00    -0.275 OA
ATOM     19  C   UNL     1      -3.914   1.213  24.759  0.00  0.00    +0.324 C 
ATOM     20  O   UNL     1      -4.103   0.427  24.594  0.00  0.00    -0.251 OA
ATOM     21  N   UNL     1      -4.505   1.741  24.985  0.00  0.00    -0.184 NA
ENDROOT
BRANCH   7   6
ATOM      6  C   UNL     1       0.866   1.093  23.966  0.00  0.00    +0.117 C 
BRANCH   6   5
ATOM      5  C   UNL     1       1.068   0.615  23.326  0.00  0.00    +0.137 C 
BRANCH   5   4
ATOM      1  C   UNL     1       2.854  -0.050  22.261  0.00  0.00    +0.096 C 
ATOM      2  C   UNL     1       2.060   0.069  22.455  0.00  0.00    +0.242 C 
ATOM      3  O   UNL     1       1.468  -0.239  21.971  0.00  0.00    -0.273 OA
ATOM      4  N   UNL     1       1.861   0.496  23.132  0.00  0.00    -0.204 NA
ENDBRANCH   5   4
ENDBRANCH   6   5
ENDBRANCH   7   6
BRANCH  21  22
ATOM     22  C   UNL     1      -5.286   1.484  25.045  0.00  0.00    +0.143 C 
BRANCH  22  23
ATOM     23  C   UNL     1      -5.898   2.033  25.118  0.00  0.00    -0.003 C 
ATOM     24  C   UNL     1      -6.426   1.982  25.748  0.00  0.00    -0.003 C 
ENDBRANCH  22  23
ENDBRANCH  21  22
TORSDOF 5
ENDMDL
MODEL 8
REMARK VINA RESULT:      -6.9     14.289     14.793
REMARK  Name = 
REMARK  5 active torsions:
REMARK  status: ('A' for Active; 'I' for Inactive)
REMARK    1  A    between atoms: N_4  and  C_5
REMARK    2  A    between atoms: C_5  and  C_6
REMARK    3  A    between atoms: C_6  and  N_7
REMARK    4  A    between atoms: N_21  and  C_22
REMARK    5  A    between atoms: C_22  and  C_23
REMARK                            x       y       z     vdW  Elec       q    Type
REMARK                         _______ _______ _______ _____ _____    ______ ____
ROOT
ATOM      7  N   UNL     1      -7.533 -10.167  17.606  0.00  0.00    -0.278 N 
ATOM      8  C   UNL     1      -7.297 -10.050  16.824  0.00  0.00    +0.094 C 
ATOM      9  C   UNL     1      -6.543 -10.121  16.498  0.00  0.00    +0.023 C 
ATOM     10  C   UNL     1      -5.838 -10.327  16.873  0.00  0.00    +0.022 C 
ATOM     11  C   UNL     1      -5.206 -10.334  16.344  0.00  0.00    +0.095 C 
ATOM     12  N   UNL     1      -4.448 -10.527  16.608  0.00  0.00    -0.263 N 
ATOM     13  C   UNL     1      -4.324 -10.712  17.402  0.00  0.00    +0.095 C 
ATOM     14  C   UNL     1      -4.957 -10.705  17.932  0.00  0.00    +0.022 C 
ATOM     15  C   UNL     1      -5.714 -10.512  17.667  0.00  0.00    +0.012 C 
ATOM     16  C   UNL     1      -6.263 -10.538  18.283  0.00  0.00    +0.085 C 
ATOM     17  C   UNL     1      -7.073 -10.384  18.255  0.00  0.00    +0.226 C 
ATOM     18  O   UNL     1      -7.476 -10.457  18.971  0.00  0.00    -0.275 OA
ATOM     19  C   UNL     1      -3.815 -10.534  16.079  0.00  0.00    +0.324 C 
ATOM     20  O   UNL     1      -3.940 -10.349  15.285  0.00  0.00    -0.251 OA
ATOM     21  N   UNL     1      -3.058 -10.727  16.343  0.00  0.00    -0.184 NA
ENDROOT
BRANCH   7   6
ATOM      6  C   UNL     1      -8.336 -10.051  17.759  0.00  0.00    +0.117 C 
BRANCH   6   5
ATOM      5  C   UNL     1      -8.716  -9.375  17.479  0.00  0.00    +0.137 C 
BRANCH   5   4
ATOM      1  C   UNL     1     -10.719  -8.508  17.447  0.00  0.00    +0.096 C 
ATOM      2  C   UNL     1      -9.901  -8.584  17.369  0.00  0.00    +0.242 C 
ATOM      3  O   UNL     1      -9.452  -7.946  17.103  0.00  0.00    -0.273 OA
ATOM      4  N   UNL     1      -9.534  -9.299  17.557  0.00  0.00    -0.204 NA
ENDBRANCH   5   4
ENDBRANCH   6   5
ENDBRANCH   7   6
BRANCH  21  22
ATOM     22  C   UNL     1      -2.426 -10.734  15.814  0.00  0.00    +0.143 C 
BRANCH  22  23
ATOM     23  C   UNL     1      -1.652 -10.771  16.096  0.00  0.00    -0.003 C 
ATOM     24  C   UNL     1      -1.018 -10.683  15.576  0.00  0.00    -0.003 C 
ENDBRANCH  22  23
ENDBRANCH  21  22
TORSDOF 5
ENDMDL
MODEL 9
REMARK VINA RESULT:      -6.3     14.278     16.386
REMARK  Name = 
REMARK  5 active torsions:
REMARK  status: ('A' for Active; 'I' for Inactive)
REMARK    1  A    between atoms: N_4  and  C_5
REMARK    2  A    between atoms: C_5  and  C_6
REMARK    3  A    between atoms: C_6  and  N_7
REMARK    4  A    between atoms: N_21  and  C_22
REMARK    5  A    between atoms: C_22  and  C_23
REMARK                            x       y       z     vdW  Elec       q    Type
REMARK                         _______ _______ _______ _____ _____    ______ ____
ROOT
ATOM      7  N   UNL     1      -3.883 -10.442  12.727  0.00  0.00    -0.278 N 
ATOM      8  C   UNL     1      -4.664 -10.312  12.957  0.00  0.00    +0.094 C 
ATOM      9  C   UNL     1      -4.987 -10.327  13.716  0.00  0.00    +0.023 C 
ATOM     10  C   UNL     1      -4.608 -10.477  14.433  0.00  0.00    +0.022 C 
ATOM     11  C   UNL     1      -5.135 -10.439  15.066  0.00  0.00    +0.095 C 
ATOM     12  N   UNL     1      -4.867 -10.572  15.835  0.00  0.00    -0.263 N 
ATOM     13  C   UNL     1      -4.071 -10.743  15.970  0.00  0.00    +0.095 C 
ATOM     14  C   UNL     1      -3.543 -10.781  15.336  0.00  0.00    +0.022 C 
ATOM     15  C   UNL     1      -3.812 -10.648  14.568  0.00  0.00    +0.012 C 
ATOM     16  C   UNL     1      -3.199 -10.712  14.019  0.00  0.00    +0.085 C 
ATOM     17  C   UNL     1      -3.231 -10.620  13.200  0.00  0.00    +0.226 C 
ATOM     18  O   UNL     1      -2.516 -10.719  12.801  0.00  0.00    -0.275 OA
ATOM     19  C   UNL     1      -5.393 -10.534  16.469  0.00  0.00    +0.324 C 
ATOM     20  O   UNL     1      -6.189 -10.363  16.334  0.00  0.00    -0.251 OA
ATOM     21  N   UNL     1      -5.125 -10.668  17.237  0.00  0.00    -0.184 NA
ENDROOT
BRANCH   7   6
ATOM      6  C   UNL     1      -3.734 -10.387  11.918  0.00  0.00    +0.117 C 
BRANCH   6   5
ATOM      5  C   UNL     1      -4.122  -9.818  11.464  0.00  0.00    +0.137 C 
BRANCH   5   4
ATOM      1  C   UNL     1      -4.206  -9.209   9.370  0.00  0.00    +0.096 C 
ATOM      2  C   UNL     1      -4.241  -9.175  10.193  0.00  0.00    +0.242 C 
ATOM      3  O   UNL     1      -4.431  -8.467  10.569  0.00  0.00    -0.273 OA
ATOM      4  N   UNL     1      -4.086  -9.851  10.641  0.00  0.00    -0.204 NA
ENDBRANCH   5   4
ENDBRANCH   6   5
ENDBRANCH   7   6
BRANCH  21  22
ATOM     22  C   UNL     1      -5.652 -10.630  17.870  0.00  0.00    +0.143 C 
BRANCH  22  23
ATOM     23  C   UNL     1      -5.370 -10.674  18.645  0.00  0.00    -0.003 C 
ATOM     24  C   UNL     1      -5.897 -10.778  19.270  0.00  0.00    -0.003 C 
ENDBRANCH  22  23
ENDBRANCH  21  22
TORSDOF 5
ENDMDL
MODEL 10
REMARK VINA RESULT:      -6.3      2.019      5.104
REMARK  Name = 
REMARK  5 active torsions:
REMARK  status: ('A' for Active; 'I' for Inactive)
REMARK    1  A    between atoms: N_4  and  C_5
REMARK    2  A    between atoms: C_5  and  C_6
REMARK    3  A    between atoms: C_6  and  N_7
REMARK    4  A    between atoms: N_21  and  C_22
REMARK    5  A    between atoms: C_22  and  C_23
REMARK                            x       y       z     vdW  Elec       q    Type
REMARK                         _______ _______ _______ _____ _____    ______ ____
ROOT
ATOM      7  N   UNL     1      -2.979  -0.622  24.529  0.00  0.00    -0.278 N 
ATOM      8  C   UNL     1      -2.572   0.092  24.598  0.00  0.00    +0.094 C 
ATOM      9  C   UNL     1      -2.876   0.846  24.735  0.00  0.00    +0.023 C 
ATOM     10  C   UNL     1      -3.663   1.073  24.838  0.00  0.00    +0.022 C 
ATOM     11  C   UNL     1      -3.729   1.885  24.962  0.00  0.00    +0.095 C 
ATOM     12  N   UNL     1      -4.471   2.226  25.078  0.00  0.00    -0.263 N 
ATOM     13  C   UNL     1      -5.148   1.754  25.068  0.00  0.00    +0.095 C 
ATOM     14  C   UNL     1      -5.082   0.941  24.943  0.00  0.00    +0.022 C 
ATOM     15  C   UNL     1      -4.339   0.601  24.828  0.00  0.00    +0.012 C 
ATOM     16  C   UNL     1      -4.396  -0.215  24.714  0.00  0.00    +0.085 C 
ATOM     17  C   UNL     1      -3.790  -0.758  24.581  0.00  0.00    +0.226 C 
ATOM     18  O   UNL     1      -4.028  -1.543  24.487  0.00  0.00    -0.275 OA
ATOM     19  C   UNL     1      -4.538   3.039  25.203  0.00  0.00    +0.324 C 
ATOM     20  O   UNL     1      -3.862   3.512  25.212  0.00  0.00    -0.251 OA
ATOM     21  N   UNL     1      -5.280   3.380  25.318  0.00  0.00    -0.184 NA
ENDROOT
BRANCH   7   6
ATOM      6  C   UNL     1      -2.512  -1.288  24.391  0.00  0.00    +0.117 C 
BRANCH   6   5
ATOM      5  C   UNL     1      -1.757  -1.339  24.720  0.00  0.00    +0.137 C 
BRANCH   5   4
ATOM      1  C   UNL     1      -0.220  -2.842  25.097  0.00  0.00    +0.096 C 
ATOM      2  C   UNL     1      -0.621  -2.121  25.094  0.00  0.00    +0.242 C 
ATOM      3  O   UNL     1      -0.289  -1.463  25.463  0.00  0.00    -0.273 OA
ATOM      4  N   UNL     1      -1.356  -2.060  24.723  0.00  0.00    -0.204 NA
ENDBRANCH   5   4
ENDBRANCH   6   5
ENDBRANCH   7   6
BRANCH  21  22
ATOM     22  C   UNL     1      -5.346   4.192  25.442  0.00  0.00    +0.143 C 
BRANCH  22  23
ATOM     23  C   UNL     1      -6.075   4.521  25.647  0.00  0.00    -0.003 C 
ATOM     24  C   UNL     1      -6.262   5.288  25.412  0.00  0.00    -0.003 C 
ENDBRANCH  22  23
ENDBRANCH  21  22
TORSDOF 5
ENDMDL
