REMARK  Name = 
REMARK  9 active torsions:
REMARK  status: ('A' for Active; 'I' for Inactive)
REMARK    1  A    between atoms: O_2  and  C_3
REMARK    2  A    between atoms: C_5  and  N_6
REMARK    3  A    between atoms: N_9  and  C_10
REMARK    4  A    between atoms: C_14  and  C_15
REMARK    5  A    between atoms: N_17  and  C_18
REMARK    6  A    between atoms: C_18  and  C_19
REMARK    7  A    between atoms: C_18  and  C_25
REMARK    8  A    between atoms: C_19  and  C_20
REMARK    9  A    between atoms: C_28  and  C_30
REMARK                            x       y       z     vdW  Elec       q    Type
REMARK                         _______ _______ _______ _____ _____    ______ ____
ROOT
ATOM     10  C   UNL     1      -5.368   0.165   0.000  0.00  0.00    +0.126 C 
ATOM     11  C   UNL     1      -6.175  -0.007   0.000  0.00  0.00    +0.045 C 
ATOM     12  C   UNL     1      -6.588   0.707   0.000  0.00  0.00    +0.096 C 
ATOM     13  N   UNL     1      -6.036   1.321   0.000  0.00  0.00    -0.268 N 
ATOM     14  C   UNL     1      -5.282   0.985   0.000  0.00  0.00    +0.174 C 
ATOM     28  C   UNL     1      -6.207   2.127   0.000  0.00  0.00    +0.249 C 
ATOM     29  O   UNL     1      -5.594   2.679   0.000  0.00  0.00    -0.270 OA
ENDROOT
BRANCH  10   9
ATOM      6  N   UNL     1      -4.314  -1.746   0.000  0.00  0.00    -0.161 NA
ATOM      7  C   UNL     1      -4.927  -1.194   0.000  0.00  0.00    +0.344 C 
ATOM      8  O   UNL     1      -5.712  -1.450   0.000  0.00  0.00    -0.249 OA
ATOM      9  N   UNL     1      -4.755  -0.388   0.000  0.00  0.00    -0.186 NA
BRANCH   6   5
ATOM      3  C   UNL     1      -5.441  -3.615   0.000  0.00  0.00    +0.140 A 
ATOM      4  C   UNL     1      -5.270  -2.808   0.000  0.00  0.00    +0.054 A 
ATOM      5  C   UNL     1      -4.485  -2.554   0.000  0.00  0.00    +0.078 A 
ATOM     34  C   UNL     1      -3.872  -3.106   0.000  0.00  0.00    +0.017 A 
ATOM     35  C   UNL     1      -4.044  -3.913   0.000  0.00  0.00    +0.004 A 
ATOM     36  C   UNL     1      -4.828  -4.168   0.000  0.00  0.00    +0.037 A 
BRANCH   3   2
ATOM      1  C   UNL     1      -6.398  -4.677   0.000  0.00  0.00    +0.252 C 
ATOM      2  O   UNL     1      -6.226  -3.870   0.000  0.00  0.00    -0.471 OA
ENDBRANCH   3   2
ENDBRANCH   6   5
ENDBRANCH  10   9
BRANCH  28  30
ATOM     30  C   UNL     1      -6.992   2.382   0.000  0.00  0.00    +0.049 C 
ATOM     31  C   UNL     1      -7.605   1.830   0.000  0.00  0.00    -0.039 C 
ATOM     32  C   UNL     1      -8.390   2.085   0.000  0.00  0.00    +0.027 C 
ATOM     33  C   UNL     1      -7.434   1.023   0.000  0.00  0.00    +0.027 C 
ENDBRANCH  28  30
BRANCH  14  15
ATOM     15  C   UNL     1      -4.568   1.397   0.000  0.00  0.00    +0.262 C 
ATOM     16  O   UNL     1      -3.853   0.985   0.000  0.00  0.00    -0.271 OA
ATOM     17  N   UNL     1      -4.568   2.223   0.000  0.00  0.00    -0.196 NA
BRANCH  17  18
ATOM     18  C   UNL     1      -3.853   2.635   0.000  0.00  0.00    +0.179 C 
BRANCH  18  25
ATOM     25  C   UNL     1      -3.139   2.223   0.000  0.00  0.00    +0.281 C 
ATOM     26  N   UNL     1      -2.424   2.635   0.000  0.00  0.00    -0.086 NA
ATOM     27  O   UNL     1      -3.139   1.397   0.000  0.00  0.00    -0.270 OA
ENDBRANCH  18  25
BRANCH  18  19
ATOM     19  C   UNL     1      -3.853   3.460   0.000  0.00  0.00    +0.064 C 
BRANCH  19  20
ATOM     20  C   UNL     1      -3.139   3.873   0.000  0.00  0.00    +0.010 A 
ATOM     21  C   UNL     1      -3.053   4.693   0.000  0.00  0.00    +0.003 A 
ATOM     22  C   UNL     1      -2.246   4.864   0.000  0.00  0.00    +0.007 A 
ATOM     23  C   UNL     1      -1.833   4.150   0.000  0.00  0.00    +0.035 A 
ATOM     24  S   UNL     1      -2.385   3.537   0.000  0.00  0.00    -0.091 S 
ENDBRANCH  19  20
ENDBRANCH  18  19
ENDBRANCH  17  18
ENDBRANCH  14  15
TORSDOF 9
