MODEL 1
REMARK VINA RESULT:     -10.5      0.000      0.000
REMARK  Name = 
REMARK  7 active torsions:
REMARK  status: ('A' for Active; 'I' for Inactive)
REMARK    1  A    between atoms: O_2  and  C_3
REMARK    2  A    between atoms: C_6  and  C_9
REMARK    3  A    between atoms: N_11  and  C_12
REMARK    4  A    between atoms: C_12  and  C_13
REMARK    5  A    between atoms: C_20  and  C_21
REMARK    6  A    between atoms: C_23  and  C_28
REMARK    7  A    between atoms: C_31  and  N_34
REMARK                            x       y       z     vdW  Elec       q    Type
REMARK                         _______ _______ _______ _____ _____    ______ ____
ROOT
ATOM     13  C   UNL     1       0.338   1.096  23.862  0.00  0.00    +0.079 C 
ATOM     14  C   UNL     1       0.123   1.276  24.587  0.00  0.00    +0.018 C 
ATOM     15  C   UNL     1      -0.441   1.819  24.791  0.00  0.00    +0.010 C 
ATOM     16  C   UNL     1      -0.541   1.880  25.680  0.00  0.00    +0.018 C 
ATOM     17  C   UNL     1      -0.284   1.652  25.124  0.00  0.00    +0.072 C 
ATOM     18  N   UNL     1      -0.236   1.648  24.077  0.00  0.00    -0.272 NA
ATOM     19  C   UNL     1      -0.774   2.194  23.582  0.00  0.00    +0.078 C 
ATOM     20  C   UNL     1      -0.956   2.341  24.308  0.00  0.00    +0.056 C 
ENDROOT
BRANCH  20  21
ATOM     21  C   UNL     1      -1.518   2.880  24.583  0.00  0.00    +0.063 A 
ATOM     22  C   UNL     1      -2.300   2.639  24.691  0.00  0.00    +0.034 A 
ATOM     23  C   UNL     1      -2.862   3.177  24.965  0.00  0.00    +0.084 A 
ATOM     24  N   UNL     1      -2.643   3.955  25.131  0.00  0.00    -0.231 NA
ATOM     25  C   UNL     1      -1.861   4.195  25.022  0.00  0.00    +0.139 A 
ATOM     26  C   UNL     1      -1.641   4.973  25.187  0.00  0.00    +0.074 C 
ATOM     27  N   UNL     1      -1.299   3.657  24.748  0.00  0.00    -0.235 NA
BRANCH  23  28
ATOM     28  C   UNL     1      -3.644   2.937  25.074  0.00  0.00    +0.018 A 
ATOM     29  C   UNL     1      -4.042   3.135  25.769  0.00  0.00    +0.003 A 
ATOM     30  C   UNL     1      -4.824   2.896  25.879  0.00  0.00    +0.015 A 
ATOM     31  C   UNL     1      -5.208   2.459  25.293  0.00  0.00    +0.048 A 
ATOM     32  C   UNL     1      -4.809   2.262  24.599  0.00  0.00    +0.015 A 
ATOM     33  C   UNL     1      -4.027   2.501  24.489  0.00  0.00    +0.003 A 
BRANCH  31  34
ATOM     34  N   UNL     1      -5.990   2.220  25.403  0.00  0.00    -0.304 N 
ATOM     35  C   UNL     1      -6.340   2.285  26.148  0.00  0.00    +0.112 C 
ATOM     36  C   UNL     1      -6.422   1.917  24.770  0.00  0.00    +0.112 C 
ENDBRANCH  31  34
ENDBRANCH  23  28
ENDBRANCH  20  21
BRANCH  13  12
ATOM     12  C   UNL     1       0.788   0.679  23.309  0.00  0.00    +0.131 C 
BRANCH  12  11
ATOM      9  C   UNL     1       2.062   0.283  22.798  0.00  0.00    +0.265 C 
ATOM     10  O   UNL     1       1.692  -0.070  22.151  0.00  0.00    -0.268 OA
ATOM     11  N   UNL     1       1.609   0.658  23.378  0.00  0.00    -0.200 NA
BRANCH   9   6
ATOM      3  C   UNL     1       4.527   0.218  23.004  0.00  0.00    +0.139 A 
ATOM      4  C   UNL     1       4.153   0.903  22.736  0.00  0.00    +0.037 A 
ATOM      5  C   UNL     1       3.332   0.925  22.667  0.00  0.00    +0.008 A 
ATOM      6  C   UNL     1       2.883   0.261  22.867  0.00  0.00    +0.055 A 
ATOM      7  C   UNL     1       3.257  -0.423  23.134  0.00  0.00    +0.008 A 
ATOM      8  C   UNL     1       4.079  -0.445  23.203  0.00  0.00    +0.037 A 
BRANCH   3   2
ATOM      1  C   UNL     1       5.699   0.185  23.819  0.00  0.00    +0.252 C 
ATOM      2  O   UNL     1       5.349   0.197  23.072  0.00  0.00    -0.471 OA
ENDBRANCH   3   2
ENDBRANCH   9   6
ENDBRANCH  12  11
ENDBRANCH  13  12
TORSDOF 7
ENDMDL
MODEL 2
REMARK VINA RESULT:     -10.3      1.796      2.400
REMARK  Name = 
REMARK  7 active torsions:
REMARK  status: ('A' for Active; 'I' for Inactive)
REMARK    1  A    between atoms: O_2  and  C_3
REMARK    2  A    between atoms: C_6  and  C_9
REMARK    3  A    between atoms: N_11  and  C_12
REMARK    4  A    between atoms: C_12  and  C_13
REMARK    5  A    between atoms: C_20  and  C_21
REMARK    6  A    between atoms: C_23  and  C_28
REMARK    7  A    between atoms: C_31  and  N_34
REMARK                            x       y       z     vdW  Elec       q    Type
REMARK                         _______ _______ _______ _____ _____    ______ ____
ROOT
ATOM     13  C   UNL     1       0.295  -0.198  23.518  0.00  0.00    +0.079 C 
ATOM     14  C   UNL     1       0.068  -0.323  24.251  0.00  0.00    +0.018 C 
ATOM     15  C   UNL     1      -0.699  -0.357  24.509  0.00  0.00    +0.010 C 
ATOM     16  C   UNL     1      -0.749  -0.510  25.391  0.00  0.00    +0.018 C 
ATOM     17  C   UNL     1      -0.446  -0.415  24.819  0.00  0.00    +0.072 C 
ATOM     18  N   UNL     1      -0.484  -0.233  23.788  0.00  0.00    -0.272 NA
ATOM     19  C   UNL     1      -1.284  -0.145  23.357  0.00  0.00    +0.078 C 
ATOM     20  C   UNL     1      -1.464  -0.271  24.088  0.00  0.00    +0.056 C 
ENDROOT
BRANCH  20  21
ATOM     21  C   UNL     1      -2.221  -0.316  24.414  0.00  0.00    +0.063 A 
ATOM     22  C   UNL     1      -2.662   0.372  24.529  0.00  0.00    +0.034 A 
ATOM     23  C   UNL     1      -3.418   0.326  24.855  0.00  0.00    +0.084 A 
ATOM     24  N   UNL     1      -3.733  -0.407  25.067  0.00  0.00    -0.231 NA
ATOM     25  C   UNL     1      -3.292  -1.094  24.952  0.00  0.00    +0.139 A 
ATOM     26  C   UNL     1      -3.606  -1.827  25.164  0.00  0.00    +0.074 C 
ATOM     27  N   UNL     1      -2.535  -1.048  24.626  0.00  0.00    -0.235 NA
BRANCH  23  28
ATOM     28  C   UNL     1      -3.861   1.013  24.970  0.00  0.00    +0.018 A 
ATOM     29  C   UNL     1      -3.494   1.696  25.255  0.00  0.00    +0.003 A 
ATOM     30  C   UNL     1      -3.936   2.383  25.369  0.00  0.00    +0.015 A 
ATOM     31  C   UNL     1      -4.744   2.388  25.200  0.00  0.00    +0.048 A 
ATOM     32  C   UNL     1      -5.109   1.706  24.915  0.00  0.00    +0.015 A 
ATOM     33  C   UNL     1      -4.668   1.018  24.800  0.00  0.00    +0.003 A 
BRANCH  31  34
ATOM     34  N   UNL     1      -5.185   3.075  25.315  0.00  0.00    -0.304 N 
ATOM     35  C   UNL     1      -4.914   3.794  25.012  0.00  0.00    +0.112 C 
ATOM     36  C   UNL     1      -5.895   3.046  25.732  0.00  0.00    +0.112 C 
ENDBRANCH  31  34
ENDBRANCH  23  28
ENDBRANCH  20  21
BRANCH  13  12
ATOM     12  C   UNL     1       0.866  -0.104  22.930  0.00  0.00    +0.131 C 
BRANCH  12  11
ATOM      9  C   UNL     1       2.236   0.045  22.550  0.00  0.00    +0.265 C 
ATOM     10  O   UNL     1       2.024  -0.031  21.757  0.00  0.00    -0.268 OA
ATOM     11  N   UNL     1       1.657   0.009  23.137  0.00  0.00    -0.200 NA
BRANCH   9   6
ATOM      3  C   UNL     1       4.607   0.384  23.171  0.00  0.00    +0.139 A 
ATOM      4  C   UNL     1       4.191   0.986  22.790  0.00  0.00    +0.037 A 
ATOM      5  C   UNL     1       3.400   0.873  22.583  0.00  0.00    +0.008 A 
ATOM      6  C   UNL     1       3.026   0.158  22.757  0.00  0.00    +0.055 A 
ATOM      7  C   UNL     1       3.443  -0.443  23.138  0.00  0.00    +0.008 A 
ATOM      8  C   UNL     1       4.233  -0.330  23.345  0.00  0.00    +0.037 A 
BRANCH   3   2
ATOM      1  C   UNL     1       5.763  -0.021  23.906  0.00  0.00    +0.252 C 
ATOM      2  O   UNL     1       5.398   0.497  23.378  0.00  0.00    -0.471 OA
ENDBRANCH   3   2
ENDBRANCH   9   6
ENDBRANCH  12  11
ENDBRANCH  13  12
TORSDOF 7
ENDMDL
MODEL 3
REMARK VINA RESULT:      -7.7      2.057      7.557
REMARK  Name = 
REMARK  7 active torsions:
REMARK  status: ('A' for Active; 'I' for Inactive)
REMARK    1  A    between atoms: O_2  and  C_3
REMARK    2  A    between atoms: C_6  and  C_9
REMARK    3  A    between atoms: N_11  and  C_12
REMARK    4  A    between atoms: C_12  and  C_13
REMARK    5  A    between atoms: C_20  and  C_21
REMARK    6  A    between atoms: C_23  and  C_28
REMARK    7  A    between atoms: C_31  and  N_34
REMARK                            x       y       z     vdW  Elec       q    Type
REMARK                         _______ _______ _______ _____ _____    ______ ____
ROOT
ATOM     13  C   UNL     1      -0.893   1.465  24.682  0.00  0.00    +0.079 C 
ATOM     14  C   UNL     1      -0.708   0.712  24.612  0.00  0.00    +0.018 C 
ATOM     15  C   UNL     1      -0.146   0.409  24.114  0.00  0.00    +0.010 C 
ATOM     16  C   UNL     1      -0.084  -0.483  24.183  0.00  0.00    +0.018 C 
ATOM     17  C   UNL     1      -0.319   0.110  24.324  0.00  0.00    +0.072 C 
ATOM     18  N   UNL     1      -0.322   1.148  24.177  0.00  0.00    -0.272 NA
ATOM     19  C   UNL     1       0.243   1.537  23.575  0.00  0.00    +0.078 C 
ATOM     20  C   UNL     1       0.395   0.790  23.537  0.00  0.00    +0.056 C 
ENDROOT
BRANCH  20  21
ATOM     21  C   UNL     1       0.952   0.418  23.054  0.00  0.00    +0.063 A 
ATOM     22  C   UNL     1       1.752   0.441  23.254  0.00  0.00    +0.034 A 
ATOM     23  C   UNL     1       2.307   0.069  22.771  0.00  0.00    +0.084 A 
ATOM     24  N   UNL     1       2.064  -0.326  22.089  0.00  0.00    -0.231 NA
ATOM     25  C   UNL     1       1.264  -0.348  21.889  0.00  0.00    +0.139 A 
ATOM     26  C   UNL     1       1.020  -0.743  21.207  0.00  0.00    +0.074 C 
ATOM     27  N   UNL     1       0.708   0.024  22.372  0.00  0.00    -0.235 NA
BRANCH  23  28
ATOM     28  C   UNL     1       3.108   0.091  22.970  0.00  0.00    +0.018 A 
ATOM     29  C   UNL     1       3.556   0.764  22.802  0.00  0.00    +0.003 A 
ATOM     30  C   UNL     1       4.356   0.786  23.001  0.00  0.00    +0.015 A 
ATOM     31  C   UNL     1       4.709   0.137  23.368  0.00  0.00    +0.048 A 
ATOM     32  C   UNL     1       4.261  -0.535  23.536  0.00  0.00    +0.015 A 
ATOM     33  C   UNL     1       3.460  -0.558  23.337  0.00  0.00    +0.003 A 
BRANCH  31  34
ATOM     34  N   UNL     1       5.509   0.160  23.567  0.00  0.00    -0.304 N 
ATOM     35  C   UNL     1       5.753   0.558  24.248  0.00  0.00    +0.112 C 
ATOM     36  C   UNL     1       6.065  -0.213  23.086  0.00  0.00    +0.112 C 
ENDBRANCH  31  34
ENDBRANCH  23  28
ENDBRANCH  20  21
BRANCH  13  12
ATOM     12  C   UNL     1      -1.323   2.089  25.006  0.00  0.00    +0.131 C 
BRANCH  12  11
ATOM      9  C   UNL     1      -2.580   2.761  25.111  0.00  0.00    +0.265 C 
ATOM     10  O   UNL     1      -2.188   3.479  25.210  0.00  0.00    -0.268 OA
ATOM     11  N   UNL     1      -2.147   2.065  25.010  0.00  0.00    -0.200 NA
BRANCH   9   6
ATOM      3  C   UNL     1      -5.053   2.688  25.122  0.00  0.00    +0.139 A 
ATOM      4  C   UNL     1      -4.652   3.143  25.681  0.00  0.00    +0.037 A 
ATOM      5  C   UNL     1      -3.827   3.168  25.678  0.00  0.00    +0.008 A 
ATOM      6  C   UNL     1      -3.404   2.736  25.115  0.00  0.00    +0.055 A 
ATOM      7  C   UNL     1      -3.806   2.282  24.557  0.00  0.00    +0.008 A 
ATOM      8  C   UNL     1      -4.630   2.257  24.560  0.00  0.00    +0.037 A 
BRANCH   3   2
ATOM      1  C   UNL     1      -6.269   1.944  25.035  0.00  0.00    +0.252 C 
ATOM      2  O   UNL     1      -5.878   2.664  25.126  0.00  0.00    -0.471 OA
ENDBRANCH   3   2
ENDBRANCH   9   6
ENDBRANCH  12  11
ENDBRANCH  13  12
TORSDOF 7
ENDMDL
MODEL 4
REMARK VINA RESULT:      -7.1      2.715      4.025
REMARK  Name = 
REMARK  7 active torsions:
REMARK  status: ('A' for Active; 'I' for Inactive)
REMARK    1  A    between atoms: O_2  and  C_3
REMARK    2  A    between atoms: C_6  and  C_9
REMARK    3  A    between atoms: N_11  and  C_12
REMARK    4  A    between atoms: C_12  and  C_13
REMARK    5  A    between atoms: C_20  and  C_21
REMARK    6  A    between atoms: C_23  and  C_28
REMARK    7  A    between atoms: C_31  and  N_34
REMARK                            x       y       z     vdW  Elec       q    Type
REMARK                         _______ _______ _______ _____ _____    ______ ____
ROOT
ATOM     13  C   UNL     1      -0.312   0.500  25.009  0.00  0.00    +0.079 C 
ATOM     14  C   UNL     1      -0.125   1.107  25.458  0.00  0.00    +0.018 C 
ATOM     15  C   UNL     1      -0.475   1.837  25.434  0.00  0.00    +0.010 C 
ATOM     16  C   UNL     1      -0.116   2.400  26.033  0.00  0.00    +0.018 C 
ATOM     17  C   UNL     1      -0.186   1.833  25.716  0.00  0.00    +0.072 C 
ATOM     18  N   UNL     1      -0.663   1.247  24.990  0.00  0.00    -0.272 NA
ATOM     19  C   UNL     1      -1.336   1.591  24.479  0.00  0.00    +0.078 C 
ATOM     20  C   UNL     1      -1.123   2.162  24.939  0.00  0.00    +0.056 C 
ENDROOT
BRANCH  20  21
ATOM     21  C   UNL     1      -1.436   2.926  24.965  0.00  0.00    +0.063 A 
ATOM     22  C   UNL     1      -2.245   3.035  25.084  0.00  0.00    +0.034 A 
ATOM     23  C   UNL     1      -2.558   3.798  25.110  0.00  0.00    +0.084 A 
ATOM     24  N   UNL     1      -2.062   4.451  25.017  0.00  0.00    -0.231 NA
ATOM     25  C   UNL     1      -1.253   4.341  24.899  0.00  0.00    +0.139 A 
ATOM     26  C   UNL     1      -0.757   4.993  24.806  0.00  0.00    +0.074 C 
ATOM     27  N   UNL     1      -0.940   3.578  24.873  0.00  0.00    -0.235 NA
BRANCH  23  28
ATOM     28  C   UNL     1      -3.367   3.909  25.229  0.00  0.00    +0.018 A 
ATOM     29  C   UNL     1      -3.872   3.979  24.580  0.00  0.00    +0.003 A 
ATOM     30  C   UNL     1      -4.681   4.090  24.699  0.00  0.00    +0.015 A 
ATOM     31  C   UNL     1      -4.984   4.130  25.465  0.00  0.00    +0.048 A 
ATOM     32  C   UNL     1      -4.479   4.059  26.112  0.00  0.00    +0.015 A 
ATOM     33  C   UNL     1      -3.670   3.949  25.995  0.00  0.00    +0.003 A 
BRANCH  31  34
ATOM     34  N   UNL     1      -5.794   4.241  25.583  0.00  0.00    -0.304 N 
ATOM     35  C   UNL     1      -6.279   3.593  25.743  0.00  0.00    +0.112 C 
ATOM     36  C   UNL     1      -6.118   4.997  25.540  0.00  0.00    +0.112 C 
ENDBRANCH  31  34
ENDBRANCH  23  28
ENDBRANCH  20  21
BRANCH  13  12
ATOM     12  C   UNL     1      -0.226  -0.279  24.753  0.00  0.00    +0.131 C 
BRANCH  12  11
ATOM      9  C   UNL     1      -0.940  -1.508  24.895  0.00  0.00    +0.265 C 
ATOM     10  O   UNL     1      -0.321  -1.817  25.343  0.00  0.00    -0.268 OA
ATOM     11  N   UNL     1      -0.893  -0.739  24.600  0.00  0.00    -0.200 NA
BRANCH   9   6
ATOM      3  C   UNL     1      -2.943  -2.888  24.437  0.00  0.00    +0.139 A 
ATOM      4  C   UNL     1      -2.249  -3.012  24.007  0.00  0.00    +0.037 A 
ATOM      5  C   UNL     1      -1.582  -2.552  24.160  0.00  0.00    +0.008 A 
ATOM      6  C   UNL     1      -1.608  -1.968  24.742  0.00  0.00    +0.055 A 
ATOM      7  C   UNL     1      -2.301  -1.845  25.172  0.00  0.00    +0.008 A 
ATOM      8  C   UNL     1      -2.968  -2.305  25.019  0.00  0.00    +0.037 A 
BRANCH   3   2
ATOM      1  C   UNL     1      -4.264  -3.014  23.907  0.00  0.00    +0.252 C 
ATOM      2  O   UNL     1      -3.610  -3.349  24.283  0.00  0.00    -0.471 OA
ENDBRANCH   3   2
ENDBRANCH   9   6
ENDBRANCH  12  11
ENDBRANCH  13  12
TORSDOF 7
ENDMDL
MODEL 5
REMARK VINA RESULT:      -7.1      2.368      2.710
REMARK  Name = 
REMARK  7 active torsions:
REMARK  status: ('A' for Active; 'I' for Inactive)
REMARK    1  A    between atoms: O_2  and  C_3
REMARK    2  A    between atoms: C_6  and  C_9
REMARK    3  A    between atoms: N_11  and  C_12
REMARK    4  A    between atoms: C_12  and  C_13
REMARK    5  A    between atoms: C_20  and  C_21
REMARK    6  A    between atoms: C_23  and  C_28
REMARK    7  A    between atoms: C_31  and  N_34
REMARK                            x       y       z     vdW  Elec       q    Type
REMARK                         _______ _______ _______ _____ _____    ______ ____
ROOT
ATOM     13  C   UNL     1       1.178   1.471  23.641  0.00  0.00    +0.079 C 
ATOM     14  C   UNL     1       0.841   1.583  24.334  0.00  0.00    +0.018 C 
ATOM     15  C   UNL     1       0.052   1.497  24.494  0.00  0.00    +0.010 C 
ATOM     16  C   UNL     1      -0.136   1.673  25.353  0.00  0.00    +0.018 C 
ATOM     17  C   UNL     1       0.249   1.608  24.829  0.00  0.00    +0.072 C 
ATOM     18  N   UNL     1       0.375   1.385  23.812  0.00  0.00    -0.272 NA
ATOM     19  C   UNL     1      -0.338   1.150  23.293  0.00  0.00    +0.078 C 
ATOM     20  C   UNL     1      -0.629   1.270  23.989  0.00  0.00    +0.056 C 
ENDROOT
BRANCH  20  21
ATOM     21  C   UNL     1      -1.419   1.201  24.218  0.00  0.00    +0.063 A 
ATOM     22  C   UNL     1      -1.790   0.464  24.201  0.00  0.00    +0.034 A 
ATOM     23  C   UNL     1      -2.579   0.395  24.429  0.00  0.00    +0.084 A 
ATOM     24  N   UNL     1      -2.998   1.062  24.675  0.00  0.00    -0.231 NA
ATOM     25  C   UNL     1      -2.627   1.798  24.692  0.00  0.00    +0.139 A 
ATOM     26  C   UNL     1      -3.045   2.466  24.937  0.00  0.00    +0.074 C 
ATOM     27  N   UNL     1      -1.837   1.868  24.463  0.00  0.00    -0.235 NA
BRANCH  23  28
ATOM     28  C   UNL     1      -2.951  -0.342  24.413  0.00  0.00    +0.018 A 
ATOM     29  C   UNL     1      -2.701  -0.941  24.922  0.00  0.00    +0.003 A 
ATOM     30  C   UNL     1      -3.072  -1.677  24.906  0.00  0.00    +0.015 A 
ATOM     31  C   UNL     1      -3.694  -1.814  24.380  0.00  0.00    +0.048 A 
ATOM     32  C   UNL     1      -3.943  -1.215  23.872  0.00  0.00    +0.015 A 
ATOM     33  C   UNL     1      -3.572  -0.478  23.888  0.00  0.00    +0.003 A 
BRANCH  31  34
ATOM     34  N   UNL     1      -4.065  -2.551  24.365  0.00  0.00    -0.304 N 
ATOM     35  C   UNL     1      -4.704  -2.680  23.859  0.00  0.00    +0.112 C 
ATOM     36  C   UNL     1      -3.798  -3.159  24.854  0.00  0.00    +0.112 C 
ENDBRANCH  31  34
ENDBRANCH  23  28
ENDBRANCH  20  21
BRANCH  13  12
ATOM     12  C   UNL     1       1.828   1.451  23.134  0.00  0.00    +0.131 C 
BRANCH  12  11
ATOM      9  C   UNL     1       3.067   0.809  22.828  0.00  0.00    +0.265 C 
ATOM     10  O   UNL     1       2.889   0.848  22.024  0.00  0.00    -0.268 OA
ATOM     11  N   UNL     1       2.536   1.111  23.383  0.00  0.00    -0.200 NA
BRANCH   9   6
ATOM      3  C   UNL     1       5.193  -0.212  23.577  0.00  0.00    +0.139 A 
ATOM      4  C   UNL     1       4.510  -0.673  23.525  0.00  0.00    +0.037 A 
ATOM      5  C   UNL     1       3.801  -0.332  23.276  0.00  0.00    +0.008 A 
ATOM      6  C   UNL     1       3.775   0.469  23.078  0.00  0.00    +0.055 A 
ATOM      7  C   UNL     1       4.458   0.928  23.129  0.00  0.00    +0.008 A 
ATOM      8  C   UNL     1       5.167   0.588  23.378  0.00  0.00    +0.037 A 
BRANCH   3   2
ATOM      1  C   UNL     1       5.947  -0.910  24.570  0.00  0.00    +0.252 C 
ATOM      2  O   UNL     1       5.901  -0.554  23.826  0.00  0.00    -0.471 OA
ENDBRANCH   3   2
ENDBRANCH   9   6
ENDBRANCH  12  11
ENDBRANCH  13  12
TORSDOF 7
ENDMDL
