MODEL 1
REMARK VINA RESULT:     -10.4      0.000      0.000
REMARK  Name = 
REMARK  9 active torsions:
REMARK  status: ('A' for Active; 'I' for Inactive)
REMARK    1  A    between atoms: C_5  and  C_6
REMARK    2  A    between atoms: C_6  and  C_7
REMARK    3  A    between atoms: N_9  and  C_10
REMARK    4  A    between atoms: C_10  and  C_11
REMARK    5  A    between atoms: C_11  and  N_12
REMARK    6  A    between atoms: C_19  and  C_20
REMARK    7  A    between atoms: C_20  and  N_21
REMARK    8  A    between atoms: N_21  and  C_22
REMARK    9  A    between atoms: C_22  and  C_23
REMARK                            x       y       z     vdW  Elec       q    Type
REMARK                         _______ _______ _______ _____ _____    ______ ____
ROOT
ATOM      1  O   UNL     1      -5.966   3.614  25.744  0.00  0.00    -0.218 OA
ATOM      2  C   UNL     1      -5.481   2.982  25.530  0.00  0.00    +0.213 C 
ATOM      3  C   UNL     1      -5.736   2.239  25.279  0.00  0.00    +0.212 C 
ATOM      4  O   UNL     1      -6.521   1.996  25.199  0.00  0.00    -0.218 OA
ATOM      5  C   UNL     1      -5.069   1.779  25.122  0.00  0.00    +0.157 C 
ATOM     18  O   UNL     1      -4.401   2.240  25.276  0.00  0.00    -0.351 OA
ATOM     19  C   UNL     1      -4.656   2.983  25.528  0.00  0.00    +0.165 C 
ENDROOT
BRANCH   5   6
ATOM      6  C   UNL     1      -5.069   0.998  24.858  0.00  0.00    +0.119 C 
BRANCH   6   7
ATOM      7  C   UNL     1      -4.359   0.632  24.651  0.00  0.00    +0.244 C 
ATOM      8  O   UNL     1      -3.974   0.844  23.953  0.00  0.00    -0.273 OA
ATOM      9  N   UNL     1      -4.035   0.053  25.141  0.00  0.00    -0.204 NA
BRANCH   9  10
ATOM     10  C   UNL     1      -3.326  -0.314  24.934  0.00  0.00    +0.132 C 
BRANCH  10  11
ATOM     11  C   UNL     1      -3.010  -0.903  25.416  0.00  0.00    +0.096 C 
BRANCH  11  12
ATOM     12  N   UNL     1      -2.256  -1.201  25.263  0.00  0.00    -0.267 NA
ATOM     13  C   UNL     1      -2.166  -1.878  24.801  0.00  0.00    +0.105 C 
ATOM     14  C   UNL     1      -1.412  -2.177  24.648  0.00  0.00    +0.159 C 
ATOM     15  O   UNL     1      -0.748  -1.797  24.957  0.00  0.00    -0.351 OA
ATOM     16  C   UNL     1      -0.838  -1.120  25.420  0.00  0.00    +0.159 C 
ATOM     17  C   UNL     1      -1.592  -0.822  25.572  0.00  0.00    +0.105 C 
ENDBRANCH  11  12
ENDBRANCH  10  11
ENDBRANCH   9  10
ENDBRANCH   6   7
ENDBRANCH   5   6
BRANCH  19  20
ATOM     20  C   UNL     1      -4.171   3.616  25.740  0.00  0.00    +0.121 C 
BRANCH  20  21
ATOM     21  N   UNL     1      -3.386   3.634  25.492  0.00  0.00    -0.211 NA
BRANCH  21  22
ATOM     22  C   UNL     1      -2.839   4.110  25.888  0.00  0.00    +0.115 C 
BRANCH  22  23
ATOM     23  C   UNL     1      -2.069   4.181  25.600  0.00  0.00    -0.004 A 
ATOM     24  C   UNL     1      -1.829   4.880  25.233  0.00  0.00    -0.003 A 
ATOM     25  C   UNL     1      -1.060   4.951  24.945  0.00  0.00    +0.001 A 
ATOM     26  C   UNL     1      -0.530   4.324  25.024  0.00  0.00    +0.011 A 
ATOM     27  C   UNL     1      -0.770   3.625  25.391  0.00  0.00    +0.057 A 
ATOM     28 CL   UNL     1      -0.240   2.997  25.469  0.00  0.00    -0.082 Cl
ATOM     29  C   UNL     1      -1.540   3.553  25.678  0.00  0.00    +0.009 A 
ENDBRANCH  22  23
ENDBRANCH  21  22
ENDBRANCH  20  21
ENDBRANCH  19  20
TORSDOF 9
ENDMDL
MODEL 2
REMARK VINA RESULT:     -10.0      1.882      4.345
REMARK  Name = 
REMARK  9 active torsions:
REMARK  status: ('A' for Active; 'I' for Inactive)
REMARK    1  A    between atoms: C_5  and  C_6
REMARK    2  A    between atoms: C_6  and  C_7
REMARK    3  A    between atoms: N_9  and  C_10
REMARK    4  A    between atoms: C_10  and  C_11
REMARK    5  A    between atoms: C_11  and  N_12
REMARK    6  A    between atoms: C_19  and  C_20
REMARK    7  A    between atoms: C_20  and  N_21
REMARK    8  A    between atoms: N_21  and  C_22
REMARK    9  A    between atoms: C_22  and  C_23
REMARK                            x       y       z     vdW  Elec       q    Type
REMARK                         _______ _______ _______ _____ _____    ______ ____
ROOT
ATOM      1  O   UNL     1      -6.511   1.960  25.390  0.00  0.00    -0.218 OA
ATOM      2  C   UNL     1      -5.741   2.241  25.302  0.00  0.00    +0.213 C 
ATOM      3  C   UNL     1      -5.470   2.987  25.527  0.00  0.00    +0.212 C 
ATOM      4  O   UNL     1      -5.920   3.582  25.880  0.00  0.00    -0.218 OA
ATOM      5  C   UNL     1      -4.667   3.035  25.337  0.00  0.00    +0.157 C 
ATOM     18  O   UNL     1      -4.445   2.318  24.995  0.00  0.00    -0.351 OA
ATOM     19  C   UNL     1      -5.108   1.828  24.973  0.00  0.00    +0.165 C 
ENDROOT
BRANCH   5   6
ATOM      6  C   UNL     1      -4.176   3.684  25.467  0.00  0.00    +0.119 C 
BRANCH   6   7
ATOM      7  C   UNL     1      -3.450   3.737  25.079  0.00  0.00    +0.244 C 
ATOM      8  O   UNL     1      -3.425   3.909  24.273  0.00  0.00    -0.273 OA
ATOM      9  N   UNL     1      -2.749   3.618  25.497  0.00  0.00    -0.204 NA
BRANCH   9  10
ATOM     10  C   UNL     1      -2.023   3.670  25.109  0.00  0.00    +0.132 C 
BRANCH  10  11
ATOM     11  C   UNL     1      -1.324   3.715  25.545  0.00  0.00    +0.096 C 
BRANCH  11  12
ATOM     12  N   UNL     1      -0.716   3.177  25.405  0.00  0.00    -0.267 NA
ATOM     13  C   UNL     1      -0.421   2.718  26.024  0.00  0.00    +0.105 C 
ATOM     14  C   UNL     1       0.189   2.179  25.884  0.00  0.00    +0.159 C 
ATOM     15  O   UNL     1       0.502   2.100  25.126  0.00  0.00    -0.351 OA
ATOM     16  C   UNL     1       0.208   2.559  24.507  0.00  0.00    +0.159 C 
ATOM     17  C   UNL     1      -0.401   3.097  24.647  0.00  0.00    +0.105 C 
ENDBRANCH  11  12
ENDBRANCH  10  11
ENDBRANCH   9  10
ENDBRANCH   6   7
ENDBRANCH   5   6
BRANCH  19  20
ATOM     20  C   UNL     1      -5.134   1.059  24.675  0.00  0.00    +0.121 C 
BRANCH  20  21
ATOM     21  N   UNL     1      -4.537   0.523  24.865  0.00  0.00    -0.211 NA
BRANCH  21  22
ATOM     22  C   UNL     1      -4.388  -0.121  24.370  0.00  0.00    +0.115 C 
BRANCH  22  23
ATOM     23  C   UNL     1      -4.039  -0.803  24.675  0.00  0.00    -0.004 A 
ATOM     24  C   UNL     1      -3.668  -0.784  25.411  0.00  0.00    -0.003 A 
ATOM     25  C   UNL     1      -3.320  -1.467  25.715  0.00  0.00    +0.001 A 
ATOM     26  C   UNL     1      -3.342  -2.169  25.283  0.00  0.00    +0.011 A 
ATOM     27  C   UNL     1      -3.713  -2.188  24.546  0.00  0.00    +0.057 A 
ATOM     28 CL   UNL     1      -3.735  -2.891  24.114  0.00  0.00    -0.082 Cl
ATOM     29  C   UNL     1      -4.061  -1.506  24.242  0.00  0.00    +0.009 A 
ENDBRANCH  22  23
ENDBRANCH  21  22
ENDBRANCH  20  21
ENDBRANCH  19  20
TORSDOF 9
ENDMDL
MODEL 3
REMARK VINA RESULT:      -9.8      2.157      3.740
REMARK  Name = 
REMARK  9 active torsions:
REMARK  status: ('A' for Active; 'I' for Inactive)
REMARK    1  A    between atoms: C_5  and  C_6
REMARK    2  A    between atoms: C_6  and  C_7
REMARK    3  A    between atoms: N_9  and  C_10
REMARK    4  A    between atoms: C_10  and  C_11
REMARK    5  A    between atoms: C_11  and  N_12
REMARK    6  A    between atoms: C_19  and  C_20
REMARK    7  A    between atoms: C_20  and  N_21
REMARK    8  A    between atoms: N_21  and  C_22
REMARK    9  A    between atoms: C_22  and  C_23
REMARK                            x       y       z     vdW  Elec       q    Type
REMARK                         _______ _______ _______ _____ _____    ______ ____
ROOT
ATOM      1  O   UNL     1      -0.485   3.765  25.417  0.00  0.00    -0.218 OA
ATOM      2  C   UNL     1      -0.754   2.987  25.365  0.00  0.00    +0.213 C 
ATOM      3  C   UNL     1      -0.313   2.311  25.533  0.00  0.00    +0.212 C 
ATOM      4  O   UNL     1       0.474   2.292  25.782  0.00  0.00    -0.218 OA
ATOM      5  C   UNL     1      -0.797   1.653  25.408  0.00  0.00    +0.157 C 
ATOM     18  O   UNL     1      -1.536   1.925  25.164  0.00  0.00    -0.351 OA
ATOM     19  C   UNL     1      -1.510   2.749  25.137  0.00  0.00    +0.165 C 
ENDROOT
BRANCH   5   6
ATOM      6  C   UNL     1      -0.579   0.865  25.511  0.00  0.00    +0.119 C 
BRANCH   6   7
ATOM      7  C   UNL     1      -0.975   0.270  25.097  0.00  0.00    +0.244 C 
ATOM      8  O   UNL     1      -0.769   0.105  24.316  0.00  0.00    -0.273 OA
ATOM      9  N   UNL     1      -1.575  -0.160  25.465  0.00  0.00    -0.204 NA
BRANCH   9  10
ATOM     10  C   UNL     1      -1.970  -0.754  25.052  0.00  0.00    +0.132 C 
BRANCH  10  11
ATOM     11  C   UNL     1      -2.639  -1.109  25.377  0.00  0.00    +0.096 C 
BRANCH  11  12
ATOM     12  N   UNL     1      -3.140  -1.559  24.902  0.00  0.00    -0.267 NA
ATOM     13  C   UNL     1      -3.051  -2.379  24.870  0.00  0.00    +0.105 C 
ATOM     14  C   UNL     1      -3.553  -2.830  24.394  0.00  0.00    +0.159 C 
ATOM     15  O   UNL     1      -4.142  -2.461  23.951  0.00  0.00    -0.351 OA
ATOM     16  C   UNL     1      -4.231  -1.642  23.983  0.00  0.00    +0.159 C 
ATOM     17  C   UNL     1      -3.731  -1.191  24.458  0.00  0.00    +0.105 C 
ENDBRANCH  11  12
ENDBRANCH  10  11
ENDBRANCH   9  10
ENDBRANCH   6   7
ENDBRANCH   5   6
BRANCH  19  20
ATOM     20  C   UNL     1      -2.130   3.248  24.920  0.00  0.00    +0.121 C 
BRANCH  20  21
ATOM     21  N   UNL     1      -2.899   3.081  25.167  0.00  0.00    -0.211 NA
BRANCH  21  22
ATOM     22  C   UNL     1      -3.542   3.367  24.736  0.00  0.00    +0.115 C 
BRANCH  22  23
ATOM     23  C   UNL     1      -4.311   3.200  24.982  0.00  0.00    -0.004 A 
ATOM     24  C   UNL     1      -4.716   3.734  25.462  0.00  0.00    -0.003 A 
ATOM     25  C   UNL     1      -5.485   3.567  25.708  0.00  0.00    +0.001 A 
ATOM     26  C   UNL     1      -5.850   2.866  25.474  0.00  0.00    +0.011 A 
ATOM     27  C   UNL     1      -5.445   2.331  24.993  0.00  0.00    +0.057 A 
ATOM     28 CL   UNL     1      -5.811   1.629  24.758  0.00  0.00    -0.082 Cl
ATOM     29  C   UNL     1      -4.676   2.498  24.747  0.00  0.00    +0.009 A 
ENDBRANCH  22  23
ENDBRANCH  21  22
ENDBRANCH  20  21
ENDBRANCH  19  20
TORSDOF 9
ENDMDL
MODEL 4
REMARK VINA RESULT:      -9.6      2.202      5.610
REMARK  Name = 
REMARK  9 active torsions:
REMARK  status: ('A' for Active; 'I' for Inactive)
REMARK    1  A    between atoms: C_5  and  C_6
REMARK    2  A    between atoms: C_6  and  C_7
REMARK    3  A    between atoms: N_9  and  C_10
REMARK    4  A    between atoms: C_10  and  C_11
REMARK    5  A    between atoms: C_11  and  N_12
REMARK    6  A    between atoms: C_19  and  C_20
REMARK    7  A    between atoms: C_20  and  N_21
REMARK    8  A    between atoms: N_21  and  C_22
REMARK    9  A    between atoms: C_22  and  C_23
REMARK                            x       y       z     vdW  Elec       q    Type
REMARK                         _______ _______ _______ _____ _____    ______ ____
ROOT
ATOM      1  O   UNL     1       0.538   0.300  23.949  0.00  0.00    -0.218 OA
ATOM      2  C   UNL     1      -0.022   0.812  24.274  0.00  0.00    +0.213 C 
ATOM      3  C   UNL     1       0.028   1.635  24.293  0.00  0.00    +0.212 C 
ATOM      4  O   UNL     1       0.646   2.091  23.992  0.00  0.00    -0.218 OA
ATOM      5  C   UNL     1      -0.649   1.923  24.668  0.00  0.00    +0.157 C 
ATOM     18  O   UNL     1      -1.117   1.277  24.879  0.00  0.00    -0.351 OA
ATOM     19  C   UNL     1      -0.730   0.591  24.635  0.00  0.00    +0.165 C 
ENDROOT
BRANCH   5   6
ATOM      6  C   UNL     1      -0.827   2.716  24.806  0.00  0.00    +0.119 C 
BRANCH   6   7
ATOM      7  C   UNL     1      -1.538   2.924  25.168  0.00  0.00    +0.244 C 
ATOM      8  O   UNL     1      -1.588   2.954  25.991  0.00  0.00    -0.273 OA
ATOM      9  N   UNL     1      -2.200   3.101  24.708  0.00  0.00    -0.204 NA
BRANCH   9  10
ATOM     10  C   UNL     1      -2.911   3.308  25.071  0.00  0.00    +0.132 C 
BRANCH  10  11
ATOM     11  C   UNL     1      -3.576   3.470  24.612  0.00  0.00    +0.096 C 
BRANCH  11  12
ATOM     12  N   UNL     1      -4.325   3.250  24.878  0.00  0.00    -0.267 NA
ATOM     13  C   UNL     1      -4.673   2.555  24.601  0.00  0.00    +0.105 C 
ATOM     14  C   UNL     1      -5.423   2.335  24.868  0.00  0.00    +0.159 C 
ATOM     15  O   UNL     1      -5.823   2.810  25.411  0.00  0.00    -0.351 OA
ATOM     16  C   UNL     1      -5.475   3.505  25.687  0.00  0.00    +0.159 C 
ATOM     17  C   UNL     1      -4.726   3.724  25.421  0.00  0.00    +0.105 C 
ENDBRANCH  11  12
ENDBRANCH  10  11
ENDBRANCH   9  10
ENDBRANCH   6   7
ENDBRANCH   5   6
BRANCH  19  20
ATOM     20  C   UNL     1      -1.002  -0.182  24.736  0.00  0.00    +0.121 C 
BRANCH  20  21
ATOM     21  N   UNL     1      -1.795  -0.360  24.601  0.00  0.00    -0.211 NA
BRANCH  21  22
ATOM     22  C   UNL     1      -2.133  -1.027  24.951  0.00  0.00    +0.115 C 
BRANCH  22  23
ATOM     23  C   UNL     1      -2.840  -1.334  24.657  0.00  0.00    -0.004 A 
ATOM     24  C   UNL     1      -3.453  -0.825  24.442  0.00  0.00    -0.003 A 
ATOM     25  C   UNL     1      -4.160  -1.132  24.148  0.00  0.00    +0.001 A 
ATOM     26  C   UNL     1      -4.255  -1.948  24.069  0.00  0.00    +0.011 A 
ATOM     27  C   UNL     1      -3.642  -2.457  24.285  0.00  0.00    +0.057 A 
ATOM     28 CL   UNL     1      -3.737  -3.272  24.206  0.00  0.00    -0.082 Cl
ATOM     29  C   UNL     1      -2.935  -2.150  24.578  0.00  0.00    +0.009 A 
ENDBRANCH  22  23
ENDBRANCH  21  22
ENDBRANCH  20  21
ENDBRANCH  19  20
TORSDOF 9
ENDMDL
MODEL 5
REMARK VINA RESULT:      -9.5      2.171      3.844
REMARK  Name = 
REMARK  9 active torsions:
REMARK  status: ('A' for Active; 'I' for Inactive)
REMARK    1  A    between atoms: C_5  and  C_6
REMARK    2  A    between atoms: C_6  and  C_7
REMARK    3  A    between atoms: N_9  and  C_10
REMARK    4  A    between atoms: C_10  and  C_11
REMARK    5  A    between atoms: C_11  and  N_12
REMARK    6  A    between atoms: C_19  and  C_20
REMARK    7  A    between atoms: C_20  and  N_21
REMARK    8  A    between atoms: N_21  and  C_22
REMARK    9  A    between atoms: C_22  and  C_23
REMARK                            x       y       z     vdW  Elec       q    Type
REMARK                         _______ _______ _______ _____ _____    ______ ____
ROOT
ATOM      1  O   UNL     1      -1.843   5.532  25.142  0.00  0.00    -0.218 OA
ATOM      2  C   UNL     1      -1.638   4.737  25.230  0.00  0.00    +0.213 C 
ATOM      3  C   UNL     1      -0.887   4.416  25.117  0.00  0.00    +0.212 C 
ATOM      4  O   UNL     1      -0.208   4.832  24.896  0.00  0.00    -0.218 OA
ATOM      5  C   UNL     1      -0.931   3.605  25.262  0.00  0.00    +0.157 C 
ATOM     18  O   UNL     1      -1.711   3.426  25.466  0.00  0.00    -0.351 OA
ATOM     19  C   UNL     1      -2.147   4.126  25.445  0.00  0.00    +0.165 C 
ENDROOT
BRANCH   5   6
ATOM      6  C   UNL     1      -0.307   3.069  25.214  0.00  0.00    +0.119 C 
BRANCH   6   7
ATOM      7  C   UNL     1      -0.423   2.280  25.426  0.00  0.00    +0.244 C 
ATOM      8  O   UNL     1      -0.449   2.068  26.223  0.00  0.00    -0.273 OA
ATOM      9  N   UNL     1      -0.512   1.704  24.844  0.00  0.00    -0.204 NA
BRANCH   9  10
ATOM     10  C   UNL     1      -0.627   0.915  25.056  0.00  0.00    +0.132 C 
BRANCH  10  11
ATOM     11  C   UNL     1      -0.655   0.330  24.476  0.00  0.00    +0.096 C 
BRANCH  11  12
ATOM     12  N   UNL     1      -0.994  -0.402  24.643  0.00  0.00    -0.267 NA
ATOM     13  C   UNL     1      -1.811  -0.501  24.586  0.00  0.00    +0.105 C 
ATOM     14  C   UNL     1      -2.151  -1.235  24.754  0.00  0.00    +0.159 C 
ATOM     15  O   UNL     1      -1.673  -1.868  24.979  0.00  0.00    -0.351 OA
ATOM     16  C   UNL     1      -0.856  -1.769  25.036  0.00  0.00    +0.159 C 
ATOM     17  C   UNL     1      -0.517  -1.037  24.868  0.00  0.00    +0.105 C 
ENDBRANCH  11  12
ENDBRANCH  10  11
ENDBRANCH   9  10
ENDBRANCH   6   7
ENDBRANCH   5   6
BRANCH  19  20
ATOM     20  C   UNL     1      -2.952   4.201  25.612  0.00  0.00    +0.121 C 
BRANCH  20  21
ATOM     21  N   UNL     1      -3.464   3.573  25.462  0.00  0.00    -0.211 NA
BRANCH  21  22
ATOM     22  C   UNL     1      -4.281   3.688  25.500  0.00  0.00    +0.115 C 
BRANCH  22  23
ATOM     23  C   UNL     1      -4.793   3.056  25.366  0.00  0.00    -0.004 A 
ATOM     24  C   UNL     1      -4.776   2.657  24.644  0.00  0.00    -0.003 A 
ATOM     25  C   UNL     1      -5.289   2.025  24.510  0.00  0.00    +0.001 A 
ATOM     26  C   UNL     1      -5.819   1.792  25.097  0.00  0.00    +0.011 A 
ATOM     27  C   UNL     1      -5.836   2.191  25.819  0.00  0.00    +0.057 A 
ATOM     28 CL   UNL     1      -6.367   1.958  26.406  0.00  0.00    -0.082 Cl
ATOM     29  C   UNL     1      -5.324   2.823  25.954  0.00  0.00    +0.009 A 
ENDBRANCH  22  23
ENDBRANCH  21  22
ENDBRANCH  20  21
ENDBRANCH  19  20
TORSDOF 9
ENDMDL
MODEL 6
REMARK VINA RESULT:      -9.4      2.064      4.337
REMARK  Name = 
REMARK  9 active torsions:
REMARK  status: ('A' for Active; 'I' for Inactive)
REMARK    1  A    between atoms: C_5  and  C_6
REMARK    2  A    between atoms: C_6  and  C_7
REMARK    3  A    between atoms: N_9  and  C_10
REMARK    4  A    between atoms: C_10  and  C_11
REMARK    5  A    between atoms: C_11  and  N_12
REMARK    6  A    between atoms: C_19  and  C_20
REMARK    7  A    between atoms: C_20  and  N_21
REMARK    8  A    between atoms: N_21  and  C_22
REMARK    9  A    between atoms: C_22  and  C_23
REMARK                            x       y       z     vdW  Elec       q    Type
REMARK                         _______ _______ _______ _____ _____    ______ ____
ROOT
ATOM      1  O   UNL     1      -4.378  -2.137  23.982  0.00  0.00    -0.218 OA
ATOM      2  C   UNL     1      -3.759  -1.683  24.285  0.00  0.00    +0.213 C 
ATOM      3  C   UNL     1      -2.981  -1.937  24.391  0.00  0.00    +0.212 C 
ATOM      4  O   UNL     1      -2.685  -2.687  24.213  0.00  0.00    -0.218 OA
ATOM      5  C   UNL     1      -2.548  -1.308  24.706  0.00  0.00    +0.157 C 
ATOM     18  O   UNL     1      -3.060  -0.667  24.795  0.00  0.00    -0.351 OA
ATOM     19  C   UNL     1      -3.808  -0.899  24.535  0.00  0.00    +0.165 C 
ENDROOT
BRANCH   5   6
ATOM      6  C   UNL     1      -1.747  -1.319  24.899  0.00  0.00    +0.119 C 
BRANCH   6   7
ATOM      7  C   UNL     1      -1.402  -0.668  25.270  0.00  0.00    +0.244 C 
ATOM      8  O   UNL     1      -1.434  -0.598  26.092  0.00  0.00    -0.273 OA
ATOM      9  N   UNL     1      -1.026  -0.088  24.821  0.00  0.00    -0.204 NA
BRANCH   9  10
ATOM     10  C   UNL     1      -0.681   0.563  25.193  0.00  0.00    +0.132 C 
BRANCH  10  11
ATOM     11  C   UNL     1      -0.269   1.122  24.748  0.00  0.00    +0.096 C 
BRANCH  11  12
ATOM     12  N   UNL     1      -0.314   1.921  24.945  0.00  0.00    -0.267 NA
ATOM     13  C   UNL     1      -0.078   2.175  25.693  0.00  0.00    +0.105 C 
ATOM     14  C   UNL     1      -0.123   2.976  25.891  0.00  0.00    +0.159 C 
ATOM     15  O   UNL     1      -0.405   3.520  25.339  0.00  0.00    -0.351 OA
ATOM     16  C   UNL     1      -0.642   3.266  24.591  0.00  0.00    +0.159 C 
ATOM     17  C   UNL     1      -0.596   2.467  24.394  0.00  0.00    +0.105 C 
ENDBRANCH  11  12
ENDBRANCH  10  11
ENDBRANCH   9  10
ENDBRANCH   6   7
ENDBRANCH   5   6
BRANCH  19  20
ATOM     20  C   UNL     1      -4.486  -0.429  24.525  0.00  0.00    +0.121 C 
BRANCH  20  21
ATOM     21  N   UNL     1      -4.441   0.363  24.746  0.00  0.00    -0.211 NA
BRANCH  21  22
ATOM     22  C   UNL     1      -5.086   0.864  24.622  0.00  0.00    +0.115 C 
BRANCH  22  23
ATOM     23  C   UNL     1      -5.065   1.641  24.897  0.00  0.00    -0.004 A 
ATOM     24  C   UNL     1      -5.516   1.860  25.551  0.00  0.00    -0.003 A 
ATOM     25  C   UNL     1      -5.495   2.637  25.826  0.00  0.00    +0.001 A 
ATOM     26  C   UNL     1      -5.022   3.196  25.447  0.00  0.00    +0.011 A 
ATOM     27  C   UNL     1      -4.569   2.977  24.792  0.00  0.00    +0.057 A 
ATOM     28 CL   UNL     1      -4.096   3.536  24.412  0.00  0.00    -0.082 Cl
ATOM     29  C   UNL     1      -4.591   2.200  24.517  0.00  0.00    +0.009 A 
ENDBRANCH  22  23
ENDBRANCH  21  22
ENDBRANCH  20  21
ENDBRANCH  19  20
TORSDOF 9
ENDMDL
