MODEL 1
REMARK VINA RESULT:      -7.8      0.000      0.000
REMARK  Name = 
REMARK  5 active torsions:
REMARK  status: ('A' for Active; 'I' for Inactive)
REMARK    1  A    between atoms: N_3  and  C_4
REMARK    2  A    between atoms: C_8  and  N_12
REMARK    3  A    between atoms: C_15  and  C_19
REMARK    4  A    between atoms: C_22  and  C_25
REMARK    5  A    between atoms: N_31  and  C_32
REMARK                            x       y       z     vdW  Elec       q    Type
REMARK                         _______ _______ _______ _____ _____    ______ ____
ROOT
ATOM     12  N   UNL     1      -0.575   0.805  23.385  0.00  0.00    -0.200 NA
ATOM     13  C   UNL     1      -1.112   0.543  23.953  0.00  0.00    +0.237 A 
ATOM     14  N   UNL     1      -1.778   0.995  24.131  0.00  0.00    -0.212 NA
ATOM     15  C   UNL     1      -2.316   0.733  24.700  0.00  0.00    +0.086 A 
ATOM     16  C   UNL     1      -2.187   0.017  25.089  0.00  0.00    +0.040 A 
ATOM     17  C   UNL     1      -1.521  -0.436  24.911  0.00  0.00    +0.103 A 
ATOM     18  N   UNL     1      -0.984  -0.173  24.343  0.00  0.00    -0.211 NA
ENDROOT
BRANCH  12   8
ATOM      4  C   UNL     1       2.127   0.271  22.902  0.00  0.00    +0.156 C 
ATOM      5  C   UNL     1       2.119   1.081  23.053  0.00  0.00    +0.166 C 
ATOM      6  O   UNL     1       1.339   1.304  23.205  0.00  0.00    -0.350 OA
ATOM      7  C   UNL     1       0.866   0.632  23.148  0.00  0.00    +0.166 C 
ATOM      8  C   UNL     1       0.092   0.352  23.206  0.00  0.00    +0.154 C 
ATOM      9  C   UNL     1       0.100  -0.459  23.055  0.00  0.00    +0.166 C 
ATOM     10  O   UNL     1       0.879  -0.681  22.903  0.00  0.00    -0.350 OA
ATOM     11  C   UNL     1       1.353  -0.007  22.961  0.00  0.00    +0.166 C 
BRANCH   4   3
ATOM      1  O   UNL     1       3.537   0.518  23.723  0.00  0.00    -0.249 OA
ATOM      2  C   UNL     1       3.498  -0.059  23.134  0.00  0.00    +0.344 C 
ATOM      3  N   UNL     1       2.793  -0.182  22.724  0.00  0.00    -0.184 NA
ATOM     31  N   UNL     1       4.164  -0.512  22.956  0.00  0.00    -0.161 NA
BRANCH  31  32
ATOM     32  C   UNL     1       4.869  -0.389  23.366  0.00  0.00    +0.075 A 
ATOM     33  C   UNL     1       5.065  -0.871  24.006  0.00  0.00    +0.017 A 
ATOM     34  C   UNL     1       5.770  -0.748  24.416  0.00  0.00    +0.001 A 
ATOM     35  C   UNL     1       6.280  -0.142  24.186  0.00  0.00    +0.000 A 
ATOM     36  C   UNL     1       6.084   0.342  23.546  0.00  0.00    +0.001 A 
ATOM     37  C   UNL     1       5.379   0.218  23.137  0.00  0.00    +0.017 A 
ENDBRANCH  31  32
ENDBRANCH   4   3
ENDBRANCH  12   8
BRANCH  15  19
ATOM     19  C   UNL     1      -2.981   1.185  24.878  0.00  0.00    +0.018 A 
ATOM     20  C   UNL     1      -2.894   1.924  25.239  0.00  0.00    +0.001 A 
ATOM     21  C   UNL     1      -3.560   2.376  25.417  0.00  0.00    +0.000 A 
ATOM     22  C   UNL     1      -4.313   2.092  25.236  0.00  0.00    +0.000 A 
ATOM     23  C   UNL     1      -4.400   1.355  24.876  0.00  0.00    +0.000 A 
ATOM     24  C   UNL     1      -3.734   0.902  24.697  0.00  0.00    +0.001 A 
BRANCH  22  25
ATOM     25  C   UNL     1      -4.979   2.545  25.414  0.00  0.00    +0.000 A 
ATOM     26  C   UNL     1      -5.664   2.178  25.692  0.00  0.00    +0.000 A 
ATOM     27  C   UNL     1      -6.330   2.631  25.871  0.00  0.00    +0.000 A 
ATOM     28  C   UNL     1      -6.311   3.450  25.772  0.00  0.00    +0.000 A 
ATOM     29  C   UNL     1      -5.626   3.816  25.494  0.00  0.00    +0.000 A 
ATOM     30  C   UNL     1      -4.960   3.364  25.316  0.00  0.00    +0.000 A 
ENDBRANCH  22  25
ENDBRANCH  15  19
TORSDOF 5
ENDMDL
MODEL 2
REMARK VINA RESULT:      -7.5     14.617     17.772
REMARK  Name = 
REMARK  5 active torsions:
REMARK  status: ('A' for Active; 'I' for Inactive)
REMARK    1  A    between atoms: N_3  and  C_4
REMARK    2  A    between atoms: C_8  and  N_12
REMARK    3  A    between atoms: C_15  and  C_19
REMARK    4  A    between atoms: C_22  and  C_25
REMARK    5  A    between atoms: N_31  and  C_32
REMARK                            x       y       z     vdW  Elec       q    Type
REMARK                         _______ _______ _______ _____ _____    ______ ____
ROOT
ATOM     12  N   UNL     1      12.613  -6.684  32.332  0.00  0.00    -0.200 NA
ATOM     13  C   UNL     1      13.054  -6.392  31.699  0.00  0.00    +0.237 A 
ATOM     14  N   UNL     1      13.547  -5.739  31.805  0.00  0.00    -0.212 NA
ATOM     15  C   UNL     1      13.988  -5.447  31.171  0.00  0.00    +0.086 A 
ATOM     16  C   UNL     1      13.936  -5.808  30.432  0.00  0.00    +0.040 A 
ATOM     17  C   UNL     1      13.442  -6.462  30.325  0.00  0.00    +0.103 A 
ATOM     18  N   UNL     1      13.002  -6.753  30.959  0.00  0.00    -0.211 NA
ENDROOT
BRANCH  12   8
ATOM      4  C   UNL     1      10.265  -8.195  32.483  0.00  0.00    +0.156 C 
ATOM      5  C   UNL     1      10.056  -7.483  32.844  0.00  0.00    +0.166 C 
ATOM      6  O   UNL     1      10.715  -6.988  32.831  0.00  0.00    -0.350 OA
ATOM      7  C   UNL     1      11.332  -7.392  32.462  0.00  0.00    +0.166 C 
ATOM      8  C   UNL     1      12.120  -7.337  32.225  0.00  0.00    +0.154 C 
ATOM      9  C   UNL     1      12.329  -8.048  31.864  0.00  0.00    +0.166 C 
ATOM     10  O   UNL     1      11.670  -8.544  31.877  0.00  0.00    -0.350 OA
ATOM     11  C   UNL     1      11.053  -8.138  32.247  0.00  0.00    +0.166 C 
BRANCH   4   3
ATOM      1  O   UNL     1       8.752  -7.992  31.857  0.00  0.00    -0.249 OA
ATOM      2  C   UNL     1       9.016  -8.747  32.063  0.00  0.00    +0.344 C 
ATOM      3  N   UNL     1       9.772  -8.848  32.376  0.00  0.00    -0.184 NA
ATOM     31  N   UNL     1       8.523  -9.400  31.957  0.00  0.00    -0.161 NA
BRANCH  31  32
ATOM     32  C   UNL     1       7.766  -9.299  31.643  0.00  0.00    +0.075 A 
ATOM     33  C   UNL     1       7.135  -9.114  32.140  0.00  0.00    +0.017 A 
ATOM     34  C   UNL     1       6.378  -9.013  31.827  0.00  0.00    +0.001 A 
ATOM     35  C   UNL     1       6.253  -9.098  31.016  0.00  0.00    +0.000 A 
ATOM     36  C   UNL     1       6.885  -9.284  30.519  0.00  0.00    +0.001 A 
ATOM     37  C   UNL     1       7.641  -9.384  30.833  0.00  0.00    +0.017 A 
ENDBRANCH  31  32
ENDBRANCH   4   3
ENDBRANCH  12   8
BRANCH  15  19
ATOM     19  C   UNL     1      14.480  -4.795  31.278  0.00  0.00    +0.018 A 
ATOM     20  C   UNL     1      14.300  -4.230  31.853  0.00  0.00    +0.001 A 
ATOM     21  C   UNL     1      14.792  -3.578  31.960  0.00  0.00    +0.000 A 
ATOM     22  C   UNL     1      15.466  -3.488  31.491  0.00  0.00    +0.000 A 
ATOM     23  C   UNL     1      15.646  -4.051  30.916  0.00  0.00    +0.000 A 
ATOM     24  C   UNL     1      15.153  -4.705  30.810  0.00  0.00    +0.001 A 
BRANCH  22  25
ATOM     25  C   UNL     1      15.958  -2.835  31.597  0.00  0.00    +0.000 A 
ATOM     26  C   UNL     1      16.287  -2.683  32.338  0.00  0.00    +0.000 A 
ATOM     27  C   UNL     1      16.780  -2.030  32.445  0.00  0.00    +0.000 A 
ATOM     28  C   UNL     1      16.944  -1.530  31.810  0.00  0.00    +0.000 A 
ATOM     29  C   UNL     1      16.615  -1.682  31.069  0.00  0.00    +0.000 A 
ATOM     30  C   UNL     1      16.122  -2.334  30.963  0.00  0.00    +0.000 A 
ENDBRANCH  22  25
ENDBRANCH  15  19
TORSDOF 5
ENDMDL
MODEL 3
REMARK VINA RESULT:      -7.0     17.916     18.943
REMARK  Name = 
REMARK  5 active torsions:
REMARK  status: ('A' for Active; 'I' for Inactive)
REMARK    1  A    between atoms: N_3  and  C_4
REMARK    2  A    between atoms: C_8  and  N_12
REMARK    3  A    between atoms: C_15  and  C_19
REMARK    4  A    between atoms: C_22  and  C_25
REMARK    5  A    between atoms: N_31  and  C_32
REMARK                            x       y       z     vdW  Elec       q    Type
REMARK                         _______ _______ _______ _____ _____    ______ ____
ROOT
ATOM     12  N   UNL     1      15.756  -6.296  26.785  0.00  0.00    -0.200 NA
ATOM     13  C   UNL     1      16.305  -6.200  26.177  0.00  0.00    +0.237 A 
ATOM     14  N   UNL     1      16.357  -5.481  25.777  0.00  0.00    -0.212 NA
ATOM     15  C   UNL     1      16.906  -5.385  25.169  0.00  0.00    +0.086 A 
ATOM     16  C   UNL     1      17.403  -6.009  24.960  0.00  0.00    +0.040 A 
ATOM     17  C   UNL     1      17.352  -6.729  25.360  0.00  0.00    +0.103 A 
ATOM     18  N   UNL     1      16.803  -6.824  25.968  0.00  0.00    -0.211 NA
ENDROOT
BRANCH  12   8
ATOM      4  C   UNL     1      15.289  -8.026  28.931  0.00  0.00    +0.156 C 
ATOM      5  C   UNL     1      15.130  -7.283  29.250  0.00  0.00    +0.166 C 
ATOM      6  O   UNL     1      15.252  -6.721  28.658  0.00  0.00    -0.350 OA
ATOM      7  C   UNL     1      15.485  -7.117  27.974  0.00  0.00    +0.166 C 
ATOM      8  C   UNL     1      15.705  -7.016  27.185  0.00  0.00    +0.154 C 
ATOM      9  C   UNL     1      15.863  -7.760  26.866  0.00  0.00    +0.166 C 
ATOM     10  O   UNL     1      15.741  -8.321  27.458  0.00  0.00    -0.350 OA
ATOM     11  C   UNL     1      15.508  -7.924  28.143  0.00  0.00    +0.166 C 
BRANCH   4   3
ATOM      1  O   UNL     1      13.906  -8.424  29.739  0.00  0.00    -0.249 OA
ATOM      2  C   UNL     1      14.546  -8.946  29.735  0.00  0.00    +0.344 C 
ATOM      3  N   UNL     1      15.237  -8.747  29.331  0.00  0.00    -0.184 NA
ATOM     31  N   UNL     1      14.494  -9.665  30.134  0.00  0.00    -0.161 NA
BRANCH  31  32
ATOM     32  C   UNL     1      13.802  -9.864  30.538  0.00  0.00    +0.075 A 
ATOM     33  C   UNL     1      13.239 -10.348  30.180  0.00  0.00    +0.017 A 
ATOM     34  C   UNL     1      12.548 -10.547  30.584  0.00  0.00    +0.001 A 
ATOM     35  C   UNL     1      12.420 -10.262  31.347  0.00  0.00    +0.000 A 
ATOM     36  C   UNL     1      12.984  -9.777  31.707  0.00  0.00    +0.001 A 
ATOM     37  C   UNL     1      13.675  -9.579  31.302  0.00  0.00    +0.017 A 
ENDBRANCH  31  32
ENDBRANCH   4   3
ENDBRANCH  12   8
BRANCH  15  19
ATOM     19  C   UNL     1      16.958  -4.666  24.769  0.00  0.00    +0.018 A 
ATOM     20  C   UNL     1      17.275  -4.004  25.149  0.00  0.00    +0.001 A 
ATOM     21  C   UNL     1      17.327  -3.285  24.750  0.00  0.00    +0.000 A 
ATOM     22  C   UNL     1      17.063  -3.225  23.970  0.00  0.00    +0.000 A 
ATOM     23  C   UNL     1      16.747  -3.885  23.591  0.00  0.00    +0.000 A 
ATOM     24  C   UNL     1      16.694  -4.606  23.991  0.00  0.00    +0.001 A 
BRANCH  22  25
ATOM     25  C   UNL     1      17.115  -2.506  23.571  0.00  0.00    +0.000 A 
ATOM     26  C   UNL     1      16.929  -1.803  23.961  0.00  0.00    +0.000 A 
ATOM     27  C   UNL     1      16.981  -1.083  23.561  0.00  0.00    +0.000 A 
ATOM     28  C   UNL     1      17.219  -1.066  22.772  0.00  0.00    +0.000 A 
ATOM     29  C   UNL     1      17.405  -1.769  22.382  0.00  0.00    +0.000 A 
ATOM     30  C   UNL     1      17.353  -2.488  22.781  0.00  0.00    +0.000 A 
ENDBRANCH  22  25
ENDBRANCH  15  19
TORSDOF 5
ENDMDL
MODEL 4
REMARK VINA RESULT:      -6.9      1.541      8.186
REMARK  Name = 
REMARK  5 active torsions:
REMARK  status: ('A' for Active; 'I' for Inactive)
REMARK    1  A    between atoms: N_3  and  C_4
REMARK    2  A    between atoms: C_8  and  N_12
REMARK    3  A    between atoms: C_15  and  C_19
REMARK    4  A    between atoms: C_22  and  C_25
REMARK    5  A    between atoms: N_31  and  C_32
REMARK                            x       y       z     vdW  Elec       q    Type
REMARK                         _______ _______ _______ _____ _____    ______ ____
ROOT
ATOM     12  N   UNL     1       0.053   0.848  23.960  0.00  0.00    -0.200 NA
ATOM     13  C   UNL     1       0.533   0.493  23.391  0.00  0.00    +0.237 A 
ATOM     14  N   UNL     1       1.351   0.476  23.493  0.00  0.00    -0.212 NA
ATOM     15  C   UNL     1       1.831   0.120  22.924  0.00  0.00    +0.086 A 
ATOM     16  C   UNL     1       1.492  -0.218  22.252  0.00  0.00    +0.040 A 
ATOM     17  C   UNL     1       0.674  -0.201  22.150  0.00  0.00    +0.103 A 
ATOM     18  N   UNL     1       0.194   0.154  22.719  0.00  0.00    -0.211 NA
ENDROOT
BRANCH  12   8
ATOM      4  C   UNL     1      -2.499   1.974  23.762  0.00  0.00    +0.156 C 
ATOM      5  C   UNL     1      -2.014   2.627  23.897  0.00  0.00    +0.166 C 
ATOM      6  O   UNL     1      -1.237   2.358  23.966  0.00  0.00    -0.350 OA
ATOM      7  C   UNL     1      -1.242   1.539  23.873  0.00  0.00    +0.166 C 
ATOM      8  C   UNL     1      -0.766   0.865  23.858  0.00  0.00    +0.154 C 
ATOM      9  C   UNL     1      -1.251   0.212  23.723  0.00  0.00    +0.166 C 
ATOM     10  O   UNL     1      -2.027   0.481  23.654  0.00  0.00    -0.350 OA
ATOM     11  C   UNL     1      -2.022   1.301  23.747  0.00  0.00    +0.166 C 
BRANCH   4   3
ATOM      1  O   UNL     1      -3.483   2.321  25.040  0.00  0.00    -0.249 OA
ATOM      2  C   UNL     1      -3.810   2.164  24.298  0.00  0.00    +0.344 C 
ATOM      3  N   UNL     1      -3.317   1.991  23.659  0.00  0.00    -0.184 NA
ATOM     31  N   UNL     1      -4.628   2.181  24.196  0.00  0.00    -0.161 NA
BRANCH  31  32
ATOM     32  C   UNL     1      -5.121   2.354  24.835  0.00  0.00    +0.075 A 
ATOM     33  C   UNL     1      -5.207   3.134  25.090  0.00  0.00    +0.017 A 
ATOM     34  C   UNL     1      -5.699   3.307  25.729  0.00  0.00    +0.001 A 
ATOM     35  C   UNL     1      -6.106   2.700  26.113  0.00  0.00    +0.000 A 
ATOM     36  C   UNL     1      -6.020   1.920  25.857  0.00  0.00    +0.001 A 
ATOM     37  C   UNL     1      -5.527   1.748  25.218  0.00  0.00    +0.017 A 
ENDBRANCH  31  32
ENDBRANCH   4   3
ENDBRANCH  12   8
BRANCH  15  19
ATOM     19  C   UNL     1       2.649   0.103  23.026  0.00  0.00    +0.018 A 
ATOM     20  C   UNL     1       3.012  -0.569  23.342  0.00  0.00    +0.001 A 
ATOM     21  C   UNL     1       3.830  -0.586  23.444  0.00  0.00    +0.000 A 
ATOM     22  C   UNL     1       4.286   0.068  23.231  0.00  0.00    +0.000 A 
ATOM     23  C   UNL     1       3.924   0.739  22.916  0.00  0.00    +0.000 A 
ATOM     24  C   UNL     1       3.105   0.756  22.814  0.00  0.00    +0.001 A 
BRANCH  22  25
ATOM     25  C   UNL     1       5.104   0.051  23.333  0.00  0.00    +0.000 A 
ATOM     26  C   UNL     1       5.585  -0.286  22.754  0.00  0.00    +0.000 A 
ATOM     27  C   UNL     1       6.404  -0.303  22.856  0.00  0.00    +0.000 A 
ATOM     28  C   UNL     1       6.741   0.017  23.537  0.00  0.00    +0.000 A 
ATOM     29  C   UNL     1       6.260   0.354  24.117  0.00  0.00    +0.000 A 
ATOM     30  C   UNL     1       5.442   0.371  24.015  0.00  0.00    +0.000 A 
ENDBRANCH  22  25
ENDBRANCH  15  19
TORSDOF 5
ENDMDL
MODEL 5
REMARK VINA RESULT:      -5.9     16.085     17.315
REMARK  Name = 
REMARK  5 active torsions:
REMARK  status: ('A' for Active; 'I' for Inactive)
REMARK    1  A    between atoms: N_3  and  C_4
REMARK    2  A    between atoms: C_8  and  N_12
REMARK    3  A    between atoms: C_15  and  C_19
REMARK    4  A    between atoms: C_22  and  C_25
REMARK    5  A    between atoms: N_31  and  C_32
REMARK                            x       y       z     vdW  Elec       q    Type
REMARK                         _______ _______ _______ _____ _____    ______ ____
ROOT
ATOM     12  N   UNL     1      -5.023 -10.098  11.012  0.00  0.00    -0.200 NA
ATOM     13  C   UNL     1      -5.207  -9.402  10.609  0.00  0.00    +0.237 A 
ATOM     14  N   UNL     1      -5.967  -9.286  10.312  0.00  0.00    -0.212 NA
ATOM     15  C   UNL     1      -6.152  -8.590   9.909  0.00  0.00    +0.086 A 
ATOM     16  C   UNL     1      -5.575  -8.010   9.804  0.00  0.00    +0.040 A 
ATOM     17  C   UNL     1      -4.814  -8.126  10.101  0.00  0.00    +0.103 A 
ATOM     18  N   UNL     1      -4.630  -8.822  10.504  0.00  0.00    -0.211 NA
ENDROOT
BRANCH  12   8
ATOM      4  C   UNL     1      -3.050 -10.564  12.937  0.00  0.00    +0.156 C 
ATOM      5  C   UNL     1      -3.747 -10.560  13.378  0.00  0.00    +0.166 C 
ATOM      6  O   UNL     1      -4.374 -10.426  12.860  0.00  0.00    -0.350 OA
ATOM      7  C   UNL     1      -4.066 -10.346  12.100  0.00  0.00    +0.166 C 
ATOM      8  C   UNL     1      -4.262 -10.214  11.310  0.00  0.00    +0.154 C 
ATOM      9  C   UNL     1      -3.565 -10.218  10.869  0.00  0.00    +0.166 C 
ATOM     10  O   UNL     1      -2.937 -10.353  11.387  0.00  0.00    -0.350 OA
ATOM     11  C   UNL     1      -3.247 -10.432  12.148  0.00  0.00    +0.166 C 
BRANCH   4   3
ATOM      1  O   UNL     1      -2.706 -10.168  14.502  0.00  0.00    -0.249 OA
ATOM      2  C   UNL     1      -2.116 -10.482  14.017  0.00  0.00    +0.344 C 
ATOM      3  N   UNL     1      -2.288 -10.680  13.235  0.00  0.00    -0.184 NA
ATOM     31  N   UNL     1      -1.356 -10.597  14.314  0.00  0.00    -0.161 NA
BRANCH  31  32
ATOM     32  C   UNL     1      -1.184 -10.399  15.097  0.00  0.00    +0.075 A 
ATOM     33  C   UNL     1      -1.575 -10.780  15.715  0.00  0.00    +0.017 A 
ATOM     34  C   UNL     1      -1.403 -10.581  16.497  0.00  0.00    +0.001 A 
ATOM     35  C   UNL     1      -0.839 -10.002  16.661  0.00  0.00    +0.000 A 
ATOM     36  C   UNL     1      -0.447  -9.621  16.042  0.00  0.00    +0.001 A 
ATOM     37  C   UNL     1      -0.620  -9.820  15.260  0.00  0.00    +0.017 A 
ENDBRANCH  31  32
ENDBRANCH   4   3
ENDBRANCH  12   8
BRANCH  15  19
ATOM     19  C   UNL     1      -6.912  -8.474   9.612  0.00  0.00    +0.018 A 
ATOM     20  C   UNL     1      -7.037  -7.936   8.997  0.00  0.00    +0.001 A 
ATOM     21  C   UNL     1      -7.797  -7.820   8.700  0.00  0.00    +0.000 A 
ATOM     22  C   UNL     1      -8.433  -8.241   9.016  0.00  0.00    +0.000 A 
ATOM     23  C   UNL     1      -8.308  -8.778   9.629  0.00  0.00    +0.000 A 
ATOM     24  C   UNL     1      -7.547  -8.895   9.927  0.00  0.00    +0.001 A 
BRANCH  22  25
ATOM     25  C   UNL     1      -9.193  -8.125   8.719  0.00  0.00    +0.000 A 
ATOM     26  C   UNL     1      -9.470  -7.360   8.582  0.00  0.00    +0.000 A 
ATOM     27  C   UNL     1     -10.231  -7.244   8.285  0.00  0.00    +0.000 A 
ATOM     28  C   UNL     1     -10.715  -7.893   8.124  0.00  0.00    +0.000 A 
ATOM     29  C   UNL     1     -10.437  -8.658   8.260  0.00  0.00    +0.000 A 
ATOM     30  C   UNL     1      -9.677  -8.774   8.557  0.00  0.00    +0.000 A 
ENDBRANCH  22  25
ENDBRANCH  15  19
TORSDOF 5
ENDMDL
