MODEL 1
REMARK VINA RESULT:     -10.7      0.000      0.000
REMARK  Name = 
REMARK  10 active torsions:
REMARK  status: ('A' for Active; 'I' for Inactive)
REMARK    1  A    between atoms: O_2  and  C_3
REMARK    2  A    between atoms: C_3  and  C_5
REMARK    3  A    between atoms: C_5  and  C_6
REMARK    4  A    between atoms: C_5  and  N_15
REMARK    5  A    between atoms: C_6  and  C_7
REMARK    6  A    between atoms: C_10  and  O_11
REMARK    7  A    between atoms: C_16  and  C_18
REMARK    8  A    between atoms: N_20  and  S_31
REMARK    9  A    between atoms: C_24  and  C_26
REMARK   10  A    between atoms: S_31  and  C_34
REMARK                            x       y       z     vdW  Elec       q    Type
REMARK                         _______ _______ _______ _____ _____    ______ ____
ROOT
ATOM     18  C   UNL     1      -3.017   1.526  24.747  0.00  0.00    +0.172 C 
ATOM     19  C   UNL     1      -3.037   0.708  24.644  0.00  0.00    +0.125 C 
ATOM     20  N   UNL     1      -3.744   0.296  24.748  0.00  0.00    -0.152 NA
ATOM     21  C   UNL     1      -4.431   0.702  24.954  0.00  0.00    +0.117 C 
ATOM     22  C   UNL     1      -4.413   1.521  25.057  0.00  0.00    +0.113 C 
ATOM     23  N   UNL     1      -3.705   1.932  24.953  0.00  0.00    -0.266 N 
ATOM     24  C   UNL     1      -3.685   2.751  25.056  0.00  0.00    +0.255 C 
ATOM     25  O   UNL     1      -2.978   3.163  24.952  0.00  0.00    -0.269 OA
ENDROOT
BRANCH  24  26
ATOM     26  C   UNL     1      -4.373   3.156  25.262  0.00  0.00    +0.083 A 
ATOM     27  C   UNL     1      -4.969   3.396  24.746  0.00  0.00    +0.012 A 
ATOM     28  C   UNL     1      -5.550   3.782  25.186  0.00  0.00    +0.008 A 
ATOM     29  C   UNL     1      -5.312   3.780  25.976  0.00  0.00    +0.036 A 
ATOM     30  S   UNL     1      -4.585   3.394  26.024  0.00  0.00    -0.082 S 
ENDBRANCH  24  26
BRANCH  18  16
ATOM     15  N   UNL     1      -1.602   1.618  24.922  0.00  0.00    -0.194 NA
ATOM     16  C   UNL     1      -2.310   1.938  24.643  0.00  0.00    +0.261 C 
ATOM     17  O   UNL     1      -2.311   2.668  24.260  0.00  0.00    -0.271 OA
BRANCH  15   5
ATOM      5  C   UNL     1      -0.895   2.030  24.819  0.00  0.00    +0.198 C 
BRANCH   5   3
ATOM      3  C   UNL     1      -0.536   2.402  25.462  0.00  0.00    +0.337 C 
ATOM      4  O   UNL     1      -0.284   3.185  25.397  0.00  0.00    -0.248 OA
BRANCH   3   2
ATOM      1  C   UNL     1      -0.069   2.364  26.812  0.00  0.00    +0.256 C 
ATOM      2  O   UNL     1      -0.428   1.992  26.169  0.00  0.00    -0.443 OA
ENDBRANCH   3   2
ENDBRANCH   5   3
BRANCH   5   6
ATOM      6  C   UNL     1      -0.546   2.070  24.072  0.00  0.00    +0.059 C 
BRANCH   6   7
ATOM      7  C   UNL     1      -0.011   1.489  23.834  0.00  0.00    -0.020 A 
ATOM      8  C   UNL     1      -0.283   0.739  23.628  0.00  0.00    -0.001 A 
ATOM      9  C   UNL     1       0.252   0.157  23.391  0.00  0.00    +0.037 A 
ATOM     10  C   UNL     1       1.059   0.327  23.359  0.00  0.00    +0.139 A 
ATOM     13  C   UNL     1       1.330   1.078  23.565  0.00  0.00    +0.037 A 
ATOM     14  C   UNL     1       0.795   1.659  23.803  0.00  0.00    -0.001 A 
BRANCH  10  11
ATOM     11  O   UNL     1       1.594  -0.254  23.121  0.00  0.00    -0.471 OA
ATOM     12  C   UNL     1       2.057  -0.138  22.449  0.00  0.00    +0.252 C 
ENDBRANCH  10  11
ENDBRANCH   6   7
ENDBRANCH   5   6
ENDBRANCH  15   5
ENDBRANCH  18  16
BRANCH  20  31
ATOM     31  S   UNL     1      -3.763  -0.523  24.645  0.00  0.00    +0.063 S 
ATOM     32  O   UNL     1      -3.837  -0.623  25.461  0.00  0.00    -0.153 OA
ATOM     33  O   UNL     1      -3.690  -0.423  23.830  0.00  0.00    -0.153 OA
BRANCH  31  34
ATOM     34  C   UNL     1      -3.782  -1.341  24.544  0.00  0.00    +0.122 A 
ATOM     35  C   UNL     1      -3.369  -1.831  25.064  0.00  0.00    +0.020 A 
ATOM     36  C   UNL     1      -3.388  -2.649  24.963  0.00  0.00    +0.001 A 
ATOM     37  C   UNL     1      -3.820  -2.978  24.342  0.00  0.00    +0.000 A 
ATOM     38  C   UNL     1      -4.233  -2.489  23.822  0.00  0.00    +0.001 A 
ATOM     39  C   UNL     1      -4.214  -1.670  23.922  0.00  0.00    +0.020 A 
ENDBRANCH  31  34
ENDBRANCH  20  31
TORSDOF 10
ENDMDL
MODEL 2
REMARK VINA RESULT:     -10.7      1.298      4.085
REMARK  Name = 
REMARK  10 active torsions:
REMARK  status: ('A' for Active; 'I' for Inactive)
REMARK    1  A    between atoms: O_2  and  C_3
REMARK    2  A    between atoms: C_3  and  C_5
REMARK    3  A    between atoms: C_5  and  C_6
REMARK    4  A    between atoms: C_5  and  N_15
REMARK    5  A    between atoms: C_6  and  C_7
REMARK    6  A    between atoms: C_10  and  O_11
REMARK    7  A    between atoms: C_16  and  C_18
REMARK    8  A    between atoms: N_20  and  S_31
REMARK    9  A    between atoms: C_24  and  C_26
REMARK   10  A    between atoms: S_31  and  C_34
REMARK                            x       y       z     vdW  Elec       q    Type
REMARK                         _______ _______ _______ _____ _____    ______ ____
ROOT
ATOM     18  C   UNL     1      -2.806   0.309  24.832  0.00  0.00    +0.172 C 
ATOM     19  C   UNL     1      -3.247   0.997  24.949  0.00  0.00    +0.125 C 
ATOM     20  N   UNL     1      -4.070   0.958  24.991  0.00  0.00    -0.152 NA
ATOM     21  C   UNL     1      -4.452   0.232  24.916  0.00  0.00    +0.117 C 
ATOM     22  C   UNL     1      -4.013  -0.457  24.800  0.00  0.00    +0.113 C 
ATOM     23  N   UNL     1      -3.190  -0.418  24.757  0.00  0.00    -0.266 N 
ATOM     24  C   UNL     1      -2.750  -1.106  24.641  0.00  0.00    +0.255 C 
ATOM     25  O   UNL     1      -1.927  -1.067  24.599  0.00  0.00    -0.269 OA
ENDROOT
BRANCH  24  26
ATOM     26  C   UNL     1      -3.133  -1.832  24.566  0.00  0.00    +0.083 A 
ATOM     27  C   UNL     1      -3.542  -2.100  23.902  0.00  0.00    +0.012 A 
ATOM     28  C   UNL     1      -3.837  -2.852  24.069  0.00  0.00    +0.008 A 
ATOM     29  C   UNL     1      -3.610  -3.049  24.837  0.00  0.00    +0.036 A 
ATOM     30  S   UNL     1      -3.175  -2.419  25.145  0.00  0.00    -0.082 S 
ENDBRANCH  24  26
BRANCH  18  16
ATOM     15  N   UNL     1      -1.621   0.939  24.342  0.00  0.00    -0.194 NA
ATOM     16  C   UNL     1      -1.983   0.348  24.790  0.00  0.00    +0.261 C 
ATOM     17  O   UNL     1      -1.524  -0.203  25.196  0.00  0.00    -0.271 OA
BRANCH  15   5
ATOM      5  C   UNL     1      -0.798   0.977  24.300  0.00  0.00    +0.198 C 
BRANCH   5   3
ATOM      3  C   UNL     1      -0.399   0.618  23.672  0.00  0.00    +0.337 C 
ATOM      4  O   UNL     1      -0.677   0.709  22.901  0.00  0.00    -0.248 OA
BRANCH   3   2
ATOM      1  C   UNL     1       0.734  -0.104  23.187  0.00  0.00    +0.256 C 
ATOM      2  O   UNL     1       0.277   0.167  23.817  0.00  0.00    -0.443 OA
ENDBRANCH   3   2
ENDBRANCH   5   3
BRANCH   5   6
ATOM      6  C   UNL     1      -0.373   1.375  24.884  0.00  0.00    +0.059 C 
BRANCH   6   7
ATOM      7  C   UNL     1      -0.444   2.194  24.961  0.00  0.00    -0.020 A 
ATOM      8  C   UNL     1      -0.409   2.675  24.293  0.00  0.00    -0.001 A 
ATOM      9  C   UNL     1      -0.480   3.494  24.370  0.00  0.00    +0.037 A 
ATOM     10  C   UNL     1      -0.585   3.830  25.116  0.00  0.00    +0.139 A 
ATOM     13  C   UNL     1      -0.620   3.348  25.784  0.00  0.00    +0.037 A 
ATOM     14  C   UNL     1      -0.549   2.530  25.706  0.00  0.00    -0.001 A 
BRANCH  10  11
ATOM     11  O   UNL     1      -0.656   4.649  25.193  0.00  0.00    -0.471 OA
ATOM     12  C   UNL     1      -1.394   5.007  25.116  0.00  0.00    +0.252 C 
ENDBRANCH  10  11
ENDBRANCH   6   7
ENDBRANCH   5   6
ENDBRANCH  15   5
ENDBRANCH  18  16
BRANCH  20  31
ATOM     31  S   UNL     1      -4.509   1.647  25.107  0.00  0.00    +0.063 S 
ATOM     32  O   UNL     1      -4.613   1.445  25.901  0.00  0.00    -0.153 OA
ATOM     33  O   UNL     1      -4.405   1.848  24.315  0.00  0.00    -0.153 OA
BRANCH  31  34
ATOM     34  C   UNL     1      -4.949   2.335  25.225  0.00  0.00    +0.122 A 
ATOM     35  C   UNL     1      -4.579   3.072  25.185  0.00  0.00    +0.020 A 
ATOM     36  C   UNL     1      -5.018   3.760  25.303  0.00  0.00    +0.001 A 
ATOM     37  C   UNL     1      -5.827   3.712  25.461  0.00  0.00    +0.000 A 
ATOM     38  C   UNL     1      -6.195   2.976  25.501  0.00  0.00    +0.001 A 
ATOM     39  C   UNL     1      -5.757   2.287  25.383  0.00  0.00    +0.020 A 
ENDBRANCH  31  34
ENDBRANCH  20  31
TORSDOF 10
ENDMDL
MODEL 3
REMARK VINA RESULT:      -9.5      1.633      4.449
REMARK  Name = 
REMARK  10 active torsions:
REMARK  status: ('A' for Active; 'I' for Inactive)
REMARK    1  A    between atoms: O_2  and  C_3
REMARK    2  A    between atoms: C_3  and  C_5
REMARK    3  A    between atoms: C_5  and  C_6
REMARK    4  A    between atoms: C_5  and  N_15
REMARK    5  A    between atoms: C_6  and  C_7
REMARK    6  A    between atoms: C_10  and  O_11
REMARK    7  A    between atoms: C_16  and  C_18
REMARK    8  A    between atoms: N_20  and  S_31
REMARK    9  A    between atoms: C_24  and  C_26
REMARK   10  A    between atoms: S_31  and  C_34
REMARK                            x       y       z     vdW  Elec       q    Type
REMARK                         _______ _______ _______ _____ _____    ______ ____
ROOT
ATOM     18  C   UNL     1      -0.428   0.656  24.242  0.00  0.00    +0.172 C 
ATOM     19  C   UNL     1      -1.059   0.195  24.507  0.00  0.00    +0.125 C 
ATOM     20  N   UNL     1      -1.089  -0.609  24.324  0.00  0.00    -0.152 NA
ATOM     21  C   UNL     1      -0.487  -0.952  23.876  0.00  0.00    +0.117 C 
ATOM     22  C   UNL     1       0.145  -0.492  23.611  0.00  0.00    +0.113 C 
ATOM     23  N   UNL     1       0.174   0.312  23.794  0.00  0.00    -0.266 N 
ATOM     24  C   UNL     1       0.805   0.772  23.529  0.00  0.00    +0.255 C 
ATOM     25  O   UNL     1       0.835   1.576  23.712  0.00  0.00    -0.269 OA
ENDROOT
BRANCH  24  26
ATOM     26  C   UNL     1       1.407   0.428  23.082  0.00  0.00    +0.083 A 
ATOM     27  C   UNL     1       1.317   0.062  22.348  0.00  0.00    +0.012 A 
ATOM     28  C   UNL     1       2.059  -0.203  22.102  0.00  0.00    +0.008 A 
ATOM     29  C   UNL     1       2.607   0.000  22.685  0.00  0.00    +0.036 A 
ATOM     30  S   UNL     1       2.204   0.390  23.290  0.00  0.00    -0.082 S 
ENDBRANCH  24  26
BRANCH  18  16
ATOM     15  N   UNL     1      -0.801   1.747  25.085  0.00  0.00    -0.194 NA
ATOM     16  C   UNL     1      -0.398   1.460  24.425  0.00  0.00    +0.261 C 
ATOM     17  O   UNL     1       0.034   1.975  23.948  0.00  0.00    -0.271 OA
BRANCH  15   5
ATOM      5  C   UNL     1      -0.771   2.551  25.268  0.00  0.00    +0.198 C 
BRANCH   5   3
ATOM      3  C   UNL     1      -0.271   2.820  25.868  0.00  0.00    +0.337 C 
ATOM      4  O   UNL     1       0.173   3.506  25.756  0.00  0.00    -0.248 OA
BRANCH   3   2
ATOM      1  C   UNL     1       0.382   2.582  27.115  0.00  0.00    +0.256 C 
ATOM      2  O   UNL     1      -0.217   2.403  26.577  0.00  0.00    -0.443 OA
ENDBRANCH   3   2
ENDBRANCH   5   3
BRANCH   5   6
ATOM      6  C   UNL     1      -1.241   3.087  24.852  0.00  0.00    +0.059 C 
BRANCH   6   7
ATOM      7  C   UNL     1      -2.007   3.251  25.110  0.00  0.00    -0.020 A 
ATOM      8  C   UNL     1      -2.633   2.769  24.874  0.00  0.00    -0.001 A 
ATOM      9  C   UNL     1      -3.400   2.933  25.131  0.00  0.00    +0.037 A 
ATOM     10  C   UNL     1      -3.540   3.579  25.625  0.00  0.00    +0.139 A 
ATOM     13  C   UNL     1      -2.914   4.060  25.861  0.00  0.00    +0.037 A 
ATOM     14  C   UNL     1      -2.147   3.896  25.603  0.00  0.00    -0.001 A 
BRANCH  10  11
ATOM     11  O   UNL     1      -4.307   3.743  25.882  0.00  0.00    -0.471 OA
ATOM     12  C   UNL     1      -4.935   3.272  25.631  0.00  0.00    +0.252 C 
ENDBRANCH  10  11
ENDBRANCH   6   7
ENDBRANCH   5   6
ENDBRANCH  15   5
ENDBRANCH  18  16
BRANCH  20  31
ATOM     31  S   UNL     1      -1.720  -1.068  24.589  0.00  0.00    +0.063 S 
ATOM     32  O   UNL     1      -2.221  -0.686  24.055  0.00  0.00    -0.153 OA
ATOM     33  O   UNL     1      -1.220  -1.450  25.121  0.00  0.00    -0.153 OA
BRANCH  31  34
ATOM     34  C   UNL     1      -2.353  -1.527  24.853  0.00  0.00    +0.122 A 
ATOM     35  C   UNL     1      -2.502  -2.262  24.507  0.00  0.00    +0.020 A 
ATOM     36  C   UNL     1      -3.134  -2.721  24.771  0.00  0.00    +0.001 A 
ATOM     37  C   UNL     1      -3.618  -2.446  25.381  0.00  0.00    +0.000 A 
ATOM     38  C   UNL     1      -3.469  -1.713  25.726  0.00  0.00    +0.001 A 
ATOM     39  C   UNL     1      -2.836  -1.253  25.462  0.00  0.00    +0.020 A 
ENDBRANCH  31  34
ENDBRANCH  20  31
TORSDOF 10
ENDMDL
MODEL 4
REMARK VINA RESULT:      -9.4      1.691      3.815
REMARK  Name = 
REMARK  10 active torsions:
REMARK  status: ('A' for Active; 'I' for Inactive)
REMARK    1  A    between atoms: O_2  and  C_3
REMARK    2  A    between atoms: C_3  and  C_5
REMARK    3  A    between atoms: C_5  and  C_6
REMARK    4  A    between atoms: C_5  and  N_15
REMARK    5  A    between atoms: C_6  and  C_7
REMARK    6  A    between atoms: C_10  and  O_11
REMARK    7  A    between atoms: C_16  and  C_18
REMARK    8  A    between atoms: N_20  and  S_31
REMARK    9  A    between atoms: C_24  and  C_26
REMARK   10  A    between atoms: S_31  and  C_34
REMARK                            x       y       z     vdW  Elec       q    Type
REMARK                         _______ _______ _______ _____ _____    ______ ____
ROOT
ATOM     18  C   UNL     1      -2.167   2.160  24.954  0.00  0.00    +0.172 C 
ATOM     19  C   UNL     1      -2.969   1.979  25.027  0.00  0.00    +0.125 C 
ATOM     20  N   UNL     1      -3.530   2.583  25.028  0.00  0.00    -0.152 NA
ATOM     21  C   UNL     1      -3.290   3.369  24.957  0.00  0.00    +0.117 C 
ATOM     22  C   UNL     1      -2.489   3.551  24.883  0.00  0.00    +0.113 C 
ATOM     23  N   UNL     1      -1.927   2.946  24.882  0.00  0.00    -0.266 N 
ATOM     24  C   UNL     1      -1.126   3.127  24.809  0.00  0.00    +0.255 C 
ATOM     25  O   UNL     1      -0.564   2.523  24.807  0.00  0.00    -0.269 OA
ENDROOT
BRANCH  24  26
ATOM     26  C   UNL     1      -0.886   3.913  24.737  0.00  0.00    +0.083 A 
ATOM     27  C   UNL     1      -0.979   4.503  25.306  0.00  0.00    +0.012 A 
ATOM     28  C   UNL     1      -0.662   5.203  25.003  0.00  0.00    +0.008 A 
ATOM     29  C   UNL     1      -0.373   5.044  24.247  0.00  0.00    +0.036 A 
ATOM     30  S   UNL     1      -0.512   4.248  24.082  0.00  0.00    -0.082 S 
ENDBRANCH  24  26
BRANCH  18  16
ATOM     15  N   UNL     1      -1.726   0.883  24.489  0.00  0.00    -0.194 NA
ATOM     16  C   UNL     1      -1.606   1.555  24.952  0.00  0.00    +0.261 C 
ATOM     17  O   UNL     1      -0.926   1.623  25.413  0.00  0.00    -0.271 OA
BRANCH  15   5
ATOM      5  C   UNL     1      -1.164   0.278  24.488  0.00  0.00    +0.198 C 
BRANCH   5   3
ATOM      3  C   UNL     1      -0.600   0.240  23.886  0.00  0.00    +0.337 C 
ATOM      4  O   UNL     1      -0.823   0.375  23.104  0.00  0.00    -0.248 OA
BRANCH   3   2
ATOM      1  C   UNL     1       0.743  -0.000  23.464  0.00  0.00    +0.256 C 
ATOM      2  O   UNL     1       0.186   0.067  24.068  0.00  0.00    -0.443 OA
ENDBRANCH   3   2
ENDBRANCH   5   3
BRANCH   5   6
ATOM      6  C   UNL     1      -1.166  -0.289  25.087  0.00  0.00    +0.059 C 
BRANCH   6   7
ATOM      7  C   UNL     1      -1.710  -0.909  25.068  0.00  0.00    -0.020 A 
ATOM      8  C   UNL     1      -2.407  -0.859  25.505  0.00  0.00    -0.001 A 
ATOM      9  C   UNL     1      -2.951  -1.479  25.486  0.00  0.00    +0.037 A 
ATOM     10  C   UNL     1      -2.798  -2.148  25.029  0.00  0.00    +0.139 A 
ATOM     13  C   UNL     1      -2.101  -2.197  24.591  0.00  0.00    +0.037 A 
ATOM     14  C   UNL     1      -1.557  -1.577  24.611  0.00  0.00    -0.001 A 
BRANCH  10  11
ATOM     11  O   UNL     1      -3.342  -2.768  25.009  0.00  0.00    -0.471 OA
ATOM     12  C   UNL     1      -3.819  -2.877  24.346  0.00  0.00    +0.252 C 
ENDBRANCH  10  11
ENDBRANCH   6   7
ENDBRANCH   5   6
ENDBRANCH  15   5
ENDBRANCH  18  16
BRANCH  20  31
ATOM     31  S   UNL     1      -4.332   2.401  25.102  0.00  0.00    +0.063 S 
ATOM     32  O   UNL     1      -4.396   2.357  24.280  0.00  0.00    -0.153 OA
ATOM     33  O   UNL     1      -4.267   2.445  25.922  0.00  0.00    -0.153 OA
BRANCH  31  34
ATOM     34  C   UNL     1      -5.133   2.219  25.174  0.00  0.00    +0.122 A 
ATOM     35  C   UNL     1      -5.592   2.598  25.746  0.00  0.00    +0.020 A 
ATOM     36  C   UNL     1      -6.393   2.415  25.818  0.00  0.00    +0.001 A 
ATOM     37  C   UNL     1      -6.736   1.855  25.319  0.00  0.00    +0.000 A 
ATOM     38  C   UNL     1      -6.277   1.477  24.747  0.00  0.00    +0.001 A 
ATOM     39  C   UNL     1      -5.475   1.659  24.674  0.00  0.00    +0.020 A 
ENDBRANCH  31  34
ENDBRANCH  20  31
TORSDOF 10
ENDMDL
MODEL 5
REMARK VINA RESULT:      -9.2      1.615      4.653
REMARK  Name = 
REMARK  10 active torsions:
REMARK  status: ('A' for Active; 'I' for Inactive)
REMARK    1  A    between atoms: O_2  and  C_3
REMARK    2  A    between atoms: C_3  and  C_5
REMARK    3  A    between atoms: C_5  and  C_6
REMARK    4  A    between atoms: C_5  and  N_15
REMARK    5  A    between atoms: C_6  and  C_7
REMARK    6  A    between atoms: C_10  and  O_11
REMARK    7  A    between atoms: C_16  and  C_18
REMARK    8  A    between atoms: N_20  and  S_31
REMARK    9  A    between atoms: C_24  and  C_26
REMARK   10  A    between atoms: S_31  and  C_34
REMARK                            x       y       z     vdW  Elec       q    Type
REMARK                         _______ _______ _______ _____ _____    ______ ____
ROOT
ATOM     18  C   UNL     1      -2.166   0.195  24.593  0.00  0.00    +0.172 C 
ATOM     19  C   UNL     1      -1.410   0.409  24.340  0.00  0.00    +0.125 C 
ATOM     20  N   UNL     1      -0.905  -0.159  24.020  0.00  0.00    -0.152 NA
ATOM     21  C   UNL     1      -1.156  -0.941  23.952  0.00  0.00    +0.117 C 
ATOM     22  C   UNL     1      -1.911  -1.157  24.204  0.00  0.00    +0.113 C 
ATOM     23  N   UNL     1      -2.416  -0.589  24.525  0.00  0.00    -0.266 N 
ATOM     24  C   UNL     1      -3.171  -0.803  24.778  0.00  0.00    +0.255 C 
ATOM     25  O   UNL     1      -3.676  -0.235  25.099  0.00  0.00    -0.269 OA
ENDROOT
BRANCH  24  26
ATOM     26  C   UNL     1      -3.421  -1.586  24.709  0.00  0.00    +0.083 A 
ATOM     27  C   UNL     1      -3.245  -2.200  25.231  0.00  0.00    +0.012 A 
ATOM     28  C   UNL     1      -3.607  -2.886  24.951  0.00  0.00    +0.008 A 
ATOM     29  C   UNL     1      -4.007  -2.696  24.255  0.00  0.00    +0.036 A 
ATOM     30  S   UNL     1      -3.893  -1.893  24.105  0.00  0.00    -0.082 S 
ENDBRANCH  24  26
BRANCH  18  16
ATOM     15  N   UNL     1      -2.727   1.509  24.565  0.00  0.00    -0.194 NA
ATOM     16  C   UNL     1      -2.670   0.763  24.914  0.00  0.00    +0.261 C 
ATOM     17  O   UNL     1      -3.118   0.586  25.583  0.00  0.00    -0.271 OA
BRANCH  15   5
ATOM      5  C   UNL     1      -3.231   2.077  24.886  0.00  0.00    +0.198 C 
BRANCH   5   3
ATOM      3  C   UNL     1      -3.960   2.230  24.529  0.00  0.00    +0.337 C 
ATOM      4  O   UNL     1      -4.000   2.374  23.718  0.00  0.00    -0.248 OA
BRANCH   3   2
ATOM      1  C   UNL     1      -5.380   2.353  24.622  0.00  0.00    +0.256 C 
ATOM      2  O   UNL     1      -4.648   2.239  24.984  0.00  0.00    -0.443 OA
ENDBRANCH   3   2
ENDBRANCH   5   3
BRANCH   5   6
ATOM      6  C   UNL     1      -3.009   2.492  25.562  0.00  0.00    +0.059 C 
BRANCH   6   7
ATOM      7  C   UNL     1      -2.584   3.197  25.494  0.00  0.00    -0.020 A 
ATOM      8  C   UNL     1      -2.905   3.900  25.779  0.00  0.00    -0.001 A 
ATOM      9  C   UNL     1      -2.481   4.605  25.711  0.00  0.00    +0.037 A 
ATOM     10  C   UNL     1      -1.736   4.605  25.357  0.00  0.00    +0.139 A 
ATOM     13  C   UNL     1      -1.416   3.901  25.071  0.00  0.00    +0.037 A 
ATOM     14  C   UNL     1      -1.840   3.196  25.140  0.00  0.00    -0.001 A 
BRANCH  10  11
ATOM     11  O   UNL     1      -1.312   5.309  25.288  0.00  0.00    -0.471 OA
ATOM     12  C   UNL     1      -0.796   5.420  24.654  0.00  0.00    +0.252 C 
ENDBRANCH  10  11
ENDBRANCH   6   7
ENDBRANCH   5   6
ENDBRANCH  15   5
ENDBRANCH  18  16
BRANCH  20  31
ATOM     31  S   UNL     1      -0.150   0.057  23.767  0.00  0.00    +0.063 S 
ATOM     32  O   UNL     1       0.181  -0.388  24.379  0.00  0.00    -0.153 OA
ATOM     33  O   UNL     1      -0.480   0.500  23.156  0.00  0.00    -0.153 OA
BRANCH  31  34
ATOM     34  C   UNL     1       0.606   0.271  23.516  0.00  0.00    +0.122 A 
ATOM     35  C   UNL     1       1.020  -0.215  22.992  0.00  0.00    +0.020 A 
ATOM     36  C   UNL     1       1.775   0.000  22.741  0.00  0.00    +0.001 A 
ATOM     37  C   UNL     1       2.117   0.700  23.012  0.00  0.00    +0.000 A 
ATOM     38  C   UNL     1       1.704   1.185  23.535  0.00  0.00    +0.001 A 
ATOM     39  C   UNL     1       0.948   0.971  23.787  0.00  0.00    +0.020 A 
ENDBRANCH  31  34
ENDBRANCH  20  31
TORSDOF 10
ENDMDL
MODEL 6
REMARK VINA RESULT:      -9.1      1.722      5.681
REMARK  Name = 
REMARK  10 active torsions:
REMARK  status: ('A' for Active; 'I' for Inactive)
REMARK    1  A    between atoms: O_2  and  C_3
REMARK    2  A    between atoms: C_3  and  C_5
REMARK    3  A    between atoms: C_5  and  C_6
REMARK    4  A    between atoms: C_5  and  N_15
REMARK    5  A    between atoms: C_6  and  C_7
REMARK    6  A    between atoms: C_10  and  O_11
REMARK    7  A    between atoms: C_16  and  C_18
REMARK    8  A    between atoms: N_20  and  S_31
REMARK    9  A    between atoms: C_24  and  C_26
REMARK   10  A    between atoms: S_31  and  C_34
REMARK                            x       y       z     vdW  Elec       q    Type
REMARK                         _______ _______ _______ _____ _____    ______ ____
ROOT
ATOM     18  C   UNL     1      -1.521   1.077  24.258  0.00  0.00    +0.172 C 
ATOM     19  C   UNL     1      -1.669   1.856  24.484  0.00  0.00    +0.125 C 
ATOM     20  N   UNL     1      -1.061   2.413  24.470  0.00  0.00    -0.152 NA
ATOM     21  C   UNL     1      -0.305   2.191  24.228  0.00  0.00    +0.117 C 
ATOM     22  C   UNL     1      -0.155   1.412  24.001  0.00  0.00    +0.113 C 
ATOM     23  N   UNL     1      -0.763   0.855  24.016  0.00  0.00    -0.266 N 
ATOM     24  C   UNL     1      -0.615   0.076  23.789  0.00  0.00    +0.255 C 
ATOM     25  O   UNL     1      -1.223  -0.482  23.803  0.00  0.00    -0.269 OA
ENDROOT
BRANCH  24  26
ATOM     26  C   UNL     1       0.142  -0.145  23.547  0.00  0.00    +0.083 A 
ATOM     27  C   UNL     1       0.481   0.008  22.812  0.00  0.00    +0.012 A 
ATOM     28  C   UNL     1       1.242  -0.311  22.809  0.00  0.00    +0.008 A 
ATOM     29  C   UNL     1       1.373  -0.662  23.545  0.00  0.00    +0.036 A 
ATOM     30  S   UNL     1       0.693  -0.559  24.001  0.00  0.00    -0.082 S 
ENDBRANCH  24  26
BRANCH  18  16
ATOM     15  N   UNL     1      -2.683   0.530  24.884  0.00  0.00    -0.194 NA
ATOM     16  C   UNL     1      -2.129   0.519  24.272  0.00  0.00    +0.261 C 
ATOM     17  O   UNL     1      -2.183  -0.047  23.676  0.00  0.00    -0.271 OA
BRANCH  15   5
ATOM      5  C   UNL     1      -3.291  -0.028  24.898  0.00  0.00    +0.198 C 
BRANCH   5   3
ATOM      3  C   UNL     1      -3.202  -0.725  25.332  0.00  0.00    +0.337 C 
ATOM      4  O   UNL     1      -2.858  -0.703  26.081  0.00  0.00    -0.248 OA
BRANCH   3   2
ATOM      1  C   UNL     1      -3.383  -2.136  25.455  0.00  0.00    +0.256 C 
ATOM      2  O   UNL     1      -3.457  -1.443  25.015  0.00  0.00    -0.443 OA
ENDBRANCH   3   2
ENDBRANCH   5   3
BRANCH   5   6
ATOM      6  C   UNL     1      -3.989   0.111  24.480  0.00  0.00    +0.059 C 
BRANCH   6   7
ATOM      7  C   UNL     1      -4.494   0.721  24.710  0.00  0.00    -0.020 A 
ATOM      8  C   UNL     1      -4.922   0.659  25.412  0.00  0.00    -0.001 A 
ATOM      9  C   UNL     1      -5.428   1.269  25.642  0.00  0.00    +0.037 A 
ATOM     10  C   UNL     1      -5.505   1.941  25.171  0.00  0.00    +0.139 A 
ATOM     13  C   UNL     1      -5.076   2.003  24.469  0.00  0.00    +0.037 A 
ATOM     14  C   UNL     1      -4.571   1.393  24.239  0.00  0.00    -0.001 A 
BRANCH  10  11
ATOM     11  O   UNL     1      -6.010   2.551  25.401  0.00  0.00    -0.471 OA
ATOM     12  C   UNL     1      -5.698   3.270  25.658  0.00  0.00    +0.252 C 
ENDBRANCH  10  11
ENDBRANCH   6   7
ENDBRANCH   5   6
ENDBRANCH  15   5
ENDBRANCH  18  16
BRANCH  20  31
ATOM     31  S   UNL     1      -1.211   3.192  24.697  0.00  0.00    +0.063 S 
ATOM     32  O   UNL     1      -1.541   3.344  23.956  0.00  0.00    -0.153 OA
ATOM     33  O   UNL     1      -0.881   3.040  25.437  0.00  0.00    -0.153 OA
BRANCH  31  34
ATOM     34  C   UNL     1      -1.361   3.971  24.923  0.00  0.00    +0.122 A 
ATOM     35  C   UNL     1      -0.821   4.566  24.733  0.00  0.00    +0.020 A 
ATOM     36  C   UNL     1      -0.971   5.345  24.959  0.00  0.00    +0.001 A 
ATOM     37  C   UNL     1      -1.660   5.530  25.374  0.00  0.00    +0.000 A 
ATOM     38  C   UNL     1      -2.199   4.935  25.564  0.00  0.00    +0.001 A 
ATOM     39  C   UNL     1      -2.050   4.155  25.338  0.00  0.00    +0.020 A 
ENDBRANCH  31  34
ENDBRANCH  20  31
TORSDOF 10
ENDMDL
MODEL 7
REMARK VINA RESULT:      -8.9      1.610      4.177
REMARK  Name = 
REMARK  10 active torsions:
REMARK  status: ('A' for Active; 'I' for Inactive)
REMARK    1  A    between atoms: O_2  and  C_3
REMARK    2  A    between atoms: C_3  and  C_5
REMARK    3  A    between atoms: C_5  and  C_6
REMARK    4  A    between atoms: C_5  and  N_15
REMARK    5  A    between atoms: C_6  and  C_7
REMARK    6  A    between atoms: C_10  and  O_11
REMARK    7  A    between atoms: C_16  and  C_18
REMARK    8  A    between atoms: N_20  and  S_31
REMARK    9  A    between atoms: C_24  and  C_26
REMARK   10  A    between atoms: S_31  and  C_34
REMARK                            x       y       z     vdW  Elec       q    Type
REMARK                         _______ _______ _______ _____ _____    ______ ____
ROOT
ATOM     18  C   UNL     1      -2.156   1.966  24.787  0.00  0.00    +0.172 C 
ATOM     19  C   UNL     1      -1.648   1.386  24.493  0.00  0.00    +0.125 C 
ATOM     20  N   UNL     1      -0.900   1.594  24.214  0.00  0.00    -0.152 NA
ATOM     21  C   UNL     1      -0.660   2.383  24.230  0.00  0.00    +0.117 C 
ATOM     22  C   UNL     1      -1.167   2.964  24.523  0.00  0.00    +0.113 C 
ATOM     23  N   UNL     1      -1.915   2.756  24.802  0.00  0.00    -0.266 N 
ATOM     24  C   UNL     1      -2.422   3.335  25.096  0.00  0.00    +0.255 C 
ATOM     25  O   UNL     1      -3.170   3.127  25.374  0.00  0.00    -0.269 OA
ENDROOT
BRANCH  24  26
ATOM     26  C   UNL     1      -2.181   4.124  25.111  0.00  0.00    +0.083 A 
ATOM     27  C   UNL     1      -1.604   4.446  25.604  0.00  0.00    +0.012 A 
ATOM     28  C   UNL     1      -1.541   5.251  25.433  0.00  0.00    +0.008 A 
ATOM     29  C   UNL     1      -2.080   5.426  24.833  0.00  0.00    +0.036 A 
ATOM     30  S   UNL     1      -2.476   4.730  24.634  0.00  0.00    -0.082 S 
ENDBRANCH  24  26
BRANCH  18  16
ATOM     15  N   UNL     1      -3.373   1.233  24.633  0.00  0.00    -0.194 NA
ATOM     16  C   UNL     1      -2.904   1.758  25.065  0.00  0.00    +0.261 C 
ATOM     17  O   UNL     1      -3.182   2.073  25.774  0.00  0.00    -0.271 OA
BRANCH  15   5
ATOM      5  C   UNL     1      -4.121   1.025  24.912  0.00  0.00    +0.198 C 
BRANCH   5   3
ATOM      3  C   UNL     1      -4.785   1.456  24.675  0.00  0.00    +0.337 C 
ATOM      4  O   UNL     1      -4.847   1.722  23.897  0.00  0.00    -0.248 OA
BRANCH   3   2
ATOM      1  C   UNL     1      -6.078   1.989  24.965  0.00  0.00    +0.256 C 
ATOM      2  O   UNL     1      -5.385   1.620  25.217  0.00  0.00    -0.443 OA
ENDBRANCH   3   2
ENDBRANCH   5   3
BRANCH   5   6
ATOM      6  C   UNL     1      -4.207   0.386  25.427  0.00  0.00    +0.059 C 
BRANCH   6   7
ATOM      7  C   UNL     1      -4.046  -0.379  25.165  0.00  0.00    -0.020 A 
ATOM      8  C   UNL     1      -3.614  -0.895  25.642  0.00  0.00    -0.001 A 
ATOM      9  C   UNL     1      -3.453  -1.661  25.381  0.00  0.00    +0.037 A 
ATOM     10  C   UNL     1      -3.724  -1.911  24.643  0.00  0.00    +0.139 A 
ATOM     13  C   UNL     1      -4.156  -1.394  24.166  0.00  0.00    +0.037 A 
ATOM     14  C   UNL     1      -4.317  -0.629  24.428  0.00  0.00    -0.001 A 
BRANCH  10  11
ATOM     11  O   UNL     1      -3.563  -2.677  24.381  0.00  0.00    -0.471 OA
ATOM     12  C   UNL     1      -2.782  -2.934  24.317  0.00  0.00    +0.252 C 
ENDBRANCH  10  11
ENDBRANCH   6   7
ENDBRANCH   5   6
ENDBRANCH  15   5
ENDBRANCH  18  16
BRANCH  20  31
ATOM     31  S   UNL     1      -0.393   1.013  23.921  0.00  0.00    +0.063 S 
ATOM     32  O   UNL     1      -0.022   0.966  24.657  0.00  0.00    -0.153 OA
ATOM     33  O   UNL     1      -0.764   1.061  23.186  0.00  0.00    -0.153 OA
BRANCH  31  34
ATOM     34  C   UNL     1       0.114   0.432  23.628  0.00  0.00    +0.122 A 
ATOM     35  C   UNL     1      -0.025  -0.362  23.803  0.00  0.00    +0.020 A 
ATOM     36  C   UNL     1       0.482  -0.943  23.511  0.00  0.00    +0.001 A 
ATOM     37  C   UNL     1       1.128  -0.731  23.044  0.00  0.00    +0.000 A 
ATOM     38  C   UNL     1       1.267   0.063  22.869  0.00  0.00    +0.001 A 
ATOM     39  C   UNL     1       0.760   0.645  23.161  0.00  0.00    +0.020 A 
ENDBRANCH  31  34
ENDBRANCH  20  31
TORSDOF 10
ENDMDL
MODEL 8
REMARK VINA RESULT:      -8.8      1.569      3.898
REMARK  Name = 
REMARK  10 active torsions:
REMARK  status: ('A' for Active; 'I' for Inactive)
REMARK    1  A    between atoms: O_2  and  C_3
REMARK    2  A    between atoms: C_3  and  C_5
REMARK    3  A    between atoms: C_5  and  C_6
REMARK    4  A    between atoms: C_5  and  N_15
REMARK    5  A    between atoms: C_6  and  C_7
REMARK    6  A    between atoms: C_10  and  O_11
REMARK    7  A    between atoms: C_16  and  C_18
REMARK    8  A    between atoms: N_20  and  S_31
REMARK    9  A    between atoms: C_24  and  C_26
REMARK   10  A    between atoms: S_31  and  C_34
REMARK                            x       y       z     vdW  Elec       q    Type
REMARK                         _______ _______ _______ _____ _____    ______ ____
ROOT
ATOM     18  C   UNL     1      -3.376   1.708  24.877  0.00  0.00    +0.172 C 
ATOM     19  C   UNL     1      -2.775   2.272  24.854  0.00  0.00    +0.125 C 
ATOM     20  N   UNL     1      -2.943   3.062  25.020  0.00  0.00    -0.152 NA
ATOM     21  C   UNL     1      -3.713   3.289  25.209  0.00  0.00    +0.117 C 
ATOM     22  C   UNL     1      -4.315   2.725  25.233  0.00  0.00    +0.113 C 
ATOM     23  N   UNL     1      -4.147   1.935  25.066  0.00  0.00    -0.266 N 
ATOM     24  C   UNL     1      -4.748   1.371  25.089  0.00  0.00    +0.255 C 
ATOM     25  O   UNL     1      -4.580   0.581  24.923  0.00  0.00    -0.269 OA
ENDROOT
BRANCH  24  26
ATOM     26  C   UNL     1      -5.518   1.598  25.279  0.00  0.00    +0.083 A 
ATOM     27  C   UNL     1      -6.099   1.840  24.746  0.00  0.00    +0.012 A 
ATOM     28  C   UNL     1      -6.783   2.015  25.173  0.00  0.00    +0.008 A 
ATOM     29  C   UNL     1      -6.624   1.880  25.972  0.00  0.00    +0.036 A 
ATOM     30  S   UNL     1      -5.843   1.623  26.037  0.00  0.00    -0.082 S 
ENDBRANCH  24  26
BRANCH  18  16
ATOM     15  N   UNL     1      -2.532   0.565  25.026  0.00  0.00    -0.194 NA
ATOM     16  C   UNL     1      -3.208   0.918  24.710  0.00  0.00    +0.261 C 
ATOM     17  O   UNL     1      -3.715   0.481  24.229  0.00  0.00    -0.271 OA
BRANCH  15   5
ATOM      5  C   UNL     1      -2.363  -0.225  24.860  0.00  0.00    +0.198 C 
BRANCH   5   3
ATOM      3  C   UNL     1      -2.507  -0.807  25.428  0.00  0.00    +0.337 C 
ATOM      4  O   UNL     1      -2.210  -0.717  26.193  0.00  0.00    -0.248 OA
BRANCH   3   2
ATOM      1  C   UNL     1      -3.157  -2.018  25.817  0.00  0.00    +0.256 C 
ATOM      2  O   UNL     1      -2.947  -1.476  25.231  0.00  0.00    -0.443 OA
ENDBRANCH   3   2
ENDBRANCH   5   3
BRANCH   5   6
ATOM      6  C   UNL     1      -2.052  -0.435  24.126  0.00  0.00    +0.059 C 
BRANCH   6   7
ATOM      7  C   UNL     1      -1.243  -0.353  23.981  0.00  0.00    -0.020 A 
ATOM      8  C   UNL     1      -0.947   0.360  23.694  0.00  0.00    -0.001 A 
ATOM      9  C   UNL     1      -0.139   0.442  23.549  0.00  0.00    +0.037 A 
ATOM     10  C   UNL     1       0.373  -0.189  23.692  0.00  0.00    +0.139 A 
ATOM     13  C   UNL     1       0.075  -0.902  23.980  0.00  0.00    +0.037 A 
ATOM     14  C   UNL     1      -0.733  -0.984  24.124  0.00  0.00    -0.001 A 
BRANCH  10  11
ATOM     11  O   UNL     1       1.181  -0.107  23.548  0.00  0.00    -0.471 OA
ATOM     12  C   UNL     1       1.468  -0.146  22.776  0.00  0.00    +0.252 C 
ENDBRANCH  10  11
ENDBRANCH   6   7
ENDBRANCH   5   6
ENDBRANCH  15   5
ENDBRANCH  18  16
BRANCH  20  31
ATOM     31  S   UNL     1      -2.340   3.626  24.997  0.00  0.00    +0.063 S 
ATOM     32  O   UNL     1      -2.479   3.740  24.191  0.00  0.00    -0.153 OA
ATOM     33  O   UNL     1      -2.202   3.512  25.801  0.00  0.00    -0.153 OA
BRANCH  31  34
ATOM     34  C   UNL     1      -1.738   4.189  24.972  0.00  0.00    +0.122 A 
ATOM     35  C   UNL     1      -1.914   4.986  25.099  0.00  0.00    +0.020 A 
ATOM     36  C   UNL     1      -1.312   5.549  25.075  0.00  0.00    +0.001 A 
ATOM     37  C   UNL     1      -0.535   5.317  24.923  0.00  0.00    +0.000 A 
ATOM     38  C   UNL     1      -0.360   4.521  24.796  0.00  0.00    +0.001 A 
ATOM     39  C   UNL     1      -0.961   3.957  24.820  0.00  0.00    +0.020 A 
ENDBRANCH  31  34
ENDBRANCH  20  31
TORSDOF 10
ENDMDL
