MODEL 1
REMARK VINA RESULT:      -8.2      0.000      0.000
REMARK  Name = 
REMARK  1 active torsions:
REMARK  status: ('A' for Active; 'I' for Inactive)
REMARK    1  A    between atoms: C_2  and  C_13
REMARK                            x       y       z     vdW  Elec       q    Type
REMARK                         _______ _______ _______ _____ _____    ______ ____
ROOT
ATOM      1  O   UNL     1      -2.547   0.616  23.949  0.00  0.00    -0.268 OA
ATOM      2  C   UNL     1      -3.258   0.426  24.322  0.00  0.00    +0.268 C 
ATOM      3  N   UNL     1      -3.757   1.026  24.591  0.00  0.00    -0.271 N 
ATOM      4  C   UNL     1      -4.467   0.836  24.965  0.00  0.00    +0.115 C 
ATOM      5  C   UNL     1      -4.965   1.435  25.234  0.00  0.00    +0.117 C 
ATOM      6  N   UNL     1      -4.753   2.226  25.129  0.00  0.00    -0.259 N 
ATOM      7  C   UNL     1      -4.043   2.416  24.755  0.00  0.00    +0.118 C 
ATOM      8  C   UNL     1      -3.980   3.238  24.729  0.00  0.00    +0.138 C 
ATOM      9  N   UNL     1      -4.652   3.556  25.087  0.00  0.00    -0.187 NA
ATOM     10  C   UNL     1      -5.129   2.930  25.334  0.00  0.00    +0.323 C 
ATOM     11  O   UNL     1      -5.856   2.998  25.719  0.00  0.00    -0.251 OA
ATOM     12  C   UNL     1      -3.544   1.816  24.486  0.00  0.00    +0.115 C 
ENDROOT
BRANCH   2  13
ATOM     13  C   UNL     1      -3.470  -0.364  24.428  0.00  0.00    +0.154 A 
ATOM     14  C   UNL     1      -3.215  -0.774  25.098  0.00  0.00    +0.123 A 
ATOM     15  N   UNL     1      -3.428  -1.564  25.203  0.00  0.00    -0.239 NA
ATOM     16  C   UNL     1      -3.895  -1.945  24.640  0.00  0.00    +0.120 A 
ATOM     17  C   UNL     1      -4.149  -1.536  23.971  0.00  0.00    +0.120 A 
ATOM     18  N   UNL     1      -3.937  -0.745  23.864  0.00  0.00    -0.236 NA
ENDBRANCH   2  13
TORSDOF 1
ENDMDL
MODEL 2
REMARK VINA RESULT:      -7.9      1.482      2.097
REMARK  Name = 
REMARK  1 active torsions:
REMARK  status: ('A' for Active; 'I' for Inactive)
REMARK    1  A    between atoms: C_2  and  C_13
REMARK                            x       y       z     vdW  Elec       q    Type
REMARK                         _______ _______ _______ _____ _____    ______ ____
ROOT
ATOM      1  O   UNL     1      -3.722  -1.127  25.808  0.00  0.00    -0.268 OA
ATOM      2  C   UNL     1      -3.198  -0.651  25.383  0.00  0.00    +0.268 C 
ATOM      3  N   UNL     1      -3.449   0.078  25.089  0.00  0.00    -0.271 N 
ATOM      4  C   UNL     1      -2.925   0.554  24.664  0.00  0.00    +0.115 C 
ATOM      5  C   UNL     1      -3.175   1.282  24.370  0.00  0.00    +0.117 C 
ATOM      6  N   UNL     1      -3.949   1.537  24.500  0.00  0.00    -0.259 N 
ATOM      7  C   UNL     1      -4.473   1.061  24.925  0.00  0.00    +0.118 C 
ATOM      8  C   UNL     1      -5.197   1.453  24.966  0.00  0.00    +0.138 C 
ATOM      9  N   UNL     1      -5.121   2.171  24.567  0.00  0.00    -0.187 NA
ATOM     10  C   UNL     1      -4.350   2.222  24.280  0.00  0.00    +0.323 C 
ATOM     11  O   UNL     1      -4.034   2.850  23.846  0.00  0.00    -0.251 OA
ATOM     12  C   UNL     1      -4.223   0.331  25.219  0.00  0.00    +0.115 C 
ENDROOT
BRANCH   2  13
ATOM     13  C   UNL     1      -2.424  -0.904  25.252  0.00  0.00    +0.154 A 
ATOM     14  C   UNL     1      -2.255  -1.402  24.616  0.00  0.00    +0.123 A 
ATOM     15  N   UNL     1      -1.481  -1.655  24.485  0.00  0.00    -0.239 NA
ATOM     16  C   UNL     1      -0.876  -1.411  24.990  0.00  0.00    +0.120 A 
ATOM     17  C   UNL     1      -1.045  -0.914  25.625  0.00  0.00    +0.120 A 
ATOM     18  N   UNL     1      -1.819  -0.660  25.757  0.00  0.00    -0.236 NA
ENDBRANCH   2  13
TORSDOF 1
ENDMDL
MODEL 3
REMARK VINA RESULT:      -7.9      2.368      3.446
REMARK  Name = 
REMARK  1 active torsions:
REMARK  status: ('A' for Active; 'I' for Inactive)
REMARK    1  A    between atoms: C_2  and  C_13
REMARK                            x       y       z     vdW  Elec       q    Type
REMARK                         _______ _______ _______ _____ _____    ______ ____
ROOT
ATOM      1  O   UNL     1      -1.985   4.365  25.679  0.00  0.00    -0.268 OA
ATOM      2  C   UNL     1      -2.036   3.583  25.421  0.00  0.00    +0.268 C 
ATOM      3  N   UNL     1      -2.775   3.229  25.318  0.00  0.00    -0.271 N 
ATOM      4  C   UNL     1      -2.826   2.447  25.060  0.00  0.00    +0.115 C 
ATOM      5  C   UNL     1      -3.564   2.095  24.957  0.00  0.00    +0.117 C 
ATOM      6  N   UNL     1      -4.252   2.523  25.112  0.00  0.00    -0.259 N 
ATOM      7  C   UNL     1      -4.201   3.305  25.369  0.00  0.00    +0.118 C 
ATOM      8  C   UNL     1      -4.968   3.589  25.477  0.00  0.00    +0.138 C 
ATOM      9  N   UNL     1      -5.493   2.982  25.286  0.00  0.00    -0.187 NA
ATOM     10  C   UNL     1      -5.050   2.324  25.060  0.00  0.00    +0.323 C 
ATOM     11  O   UNL     1      -5.353   1.594  24.824  0.00  0.00    -0.251 OA
ATOM     12  C   UNL     1      -3.462   3.659  25.473  0.00  0.00    +0.115 C 
ENDROOT
BRANCH   2  13
ATOM     13  C   UNL     1      -1.349   3.154  25.266  0.00  0.00    +0.154 A 
ATOM     14  C   UNL     1      -1.016   3.167  24.511  0.00  0.00    +0.123 A 
ATOM     15  N   UNL     1      -0.329   2.738  24.356  0.00  0.00    -0.239 NA
ATOM     16  C   UNL     1       0.026   2.295  24.955  0.00  0.00    +0.120 A 
ATOM     17  C   UNL     1      -0.307   2.281  25.709  0.00  0.00    +0.120 A 
ATOM     18  N   UNL     1      -0.995   2.711  25.866  0.00  0.00    -0.236 NA
ENDBRANCH   2  13
TORSDOF 1
ENDMDL
MODEL 4
REMARK VINA RESULT:      -7.9      1.020      3.921
REMARK  Name = 
REMARK  1 active torsions:
REMARK  status: ('A' for Active; 'I' for Inactive)
REMARK    1  A    between atoms: C_2  and  C_13
REMARK                            x       y       z     vdW  Elec       q    Type
REMARK                         _______ _______ _______ _____ _____    ______ ____
ROOT
ATOM      1  O   UNL     1      -5.336   1.356  24.786  0.00  0.00    -0.268 OA
ATOM      2  C   UNL     1      -4.524   1.491  24.738  0.00  0.00    +0.268 C 
ATOM      3  N   UNL     1      -4.000   0.853  24.725  0.00  0.00    -0.271 N 
ATOM      4  C   UNL     1      -3.187   0.988  24.676  0.00  0.00    +0.115 C 
ATOM      5  C   UNL     1      -2.664   0.351  24.664  0.00  0.00    +0.117 C 
ATOM      6  N   UNL     1      -2.952  -0.421  24.699  0.00  0.00    -0.259 N 
ATOM      7  C   UNL     1      -3.765  -0.556  24.748  0.00  0.00    +0.118 C 
ATOM      8  C   UNL     1      -3.887  -1.371  24.775  0.00  0.00    +0.138 C 
ATOM      9  N   UNL     1      -3.150  -1.740  24.744  0.00  0.00    -0.187 NA
ATOM     10  C   UNL     1      -2.573  -1.153  24.697  0.00  0.00    +0.323 C 
ATOM     11  O   UNL     1      -1.758  -1.276  24.655  0.00  0.00    -0.251 OA
ATOM     12  C   UNL     1      -4.289   0.082  24.760  0.00  0.00    +0.115 C 
ENDROOT
BRANCH   2  13
ATOM     13  C   UNL     1      -4.235   2.263  24.702  0.00  0.00    +0.154 A 
ATOM     14  C   UNL     1      -4.116   2.625  23.970  0.00  0.00    +0.123 A 
ATOM     15  N   UNL     1      -3.827   3.396  23.934  0.00  0.00    -0.239 NA
ATOM     16  C   UNL     1      -3.656   3.806  24.629  0.00  0.00    +0.120 A 
ATOM     17  C   UNL     1      -3.775   3.444  25.361  0.00  0.00    +0.120 A 
ATOM     18  N   UNL     1      -4.064   2.672  25.398  0.00  0.00    -0.236 NA
ENDBRANCH   2  13
TORSDOF 1
ENDMDL
MODEL 5
REMARK VINA RESULT:      -7.9      1.324      1.964
REMARK  Name = 
REMARK  1 active torsions:
REMARK  status: ('A' for Active; 'I' for Inactive)
REMARK    1  A    between atoms: C_2  and  C_13
REMARK                            x       y       z     vdW  Elec       q    Type
REMARK                         _______ _______ _______ _____ _____    ______ ____
ROOT
ATOM      1  O   UNL     1      -4.870   0.429  25.310  0.00  0.00    -0.268 OA
ATOM      2  C   UNL     1      -4.151   0.198  24.977  0.00  0.00    +0.268 C 
ATOM      3  N   UNL     1      -3.595   0.768  24.757  0.00  0.00    -0.271 N 
ATOM      4  C   UNL     1      -2.877   0.538  24.424  0.00  0.00    +0.115 C 
ATOM      5  C   UNL     1      -2.323   1.107  24.205  0.00  0.00    +0.117 C 
ATOM      6  N   UNL     1      -2.486   1.908  24.319  0.00  0.00    -0.259 N 
ATOM      7  C   UNL     1      -3.204   2.139  24.653  0.00  0.00    +0.118 C 
ATOM      8  C   UNL     1      -3.211   2.962  24.698  0.00  0.00    +0.138 C 
ATOM      9  N   UNL     1      -2.498   3.240  24.393  0.00  0.00    -0.187 NA
ATOM     10  C   UNL     1      -2.050   2.589  24.159  0.00  0.00    +0.323 C 
ATOM     11  O   UNL     1      -1.296   2.614  23.823  0.00  0.00    -0.251 OA
ATOM     12  C   UNL     1      -3.760   1.569  24.872  0.00  0.00    +0.115 C 
ENDROOT
BRANCH   2  13
ATOM     13  C   UNL     1      -3.987  -0.602  24.862  0.00  0.00    +0.154 A 
ATOM     14  C   UNL     1      -3.618  -1.037  25.459  0.00  0.00    +0.123 A 
ATOM     15  N   UNL     1      -3.454  -1.837  25.345  0.00  0.00    -0.239 NA
ATOM     16  C   UNL     1      -3.658  -2.203  24.634  0.00  0.00    +0.120 A 
ATOM     17  C   UNL     1      -4.027  -1.769  24.038  0.00  0.00    +0.120 A 
ATOM     18  N   UNL     1      -4.192  -0.968  24.152  0.00  0.00    -0.236 NA
ENDBRANCH   2  13
TORSDOF 1
ENDMDL
MODEL 6
REMARK VINA RESULT:      -7.8      2.122      2.472
REMARK  Name = 
REMARK  1 active torsions:
REMARK  status: ('A' for Active; 'I' for Inactive)
REMARK    1  A    between atoms: C_2  and  C_13
REMARK                            x       y       z     vdW  Elec       q    Type
REMARK                         _______ _______ _______ _____ _____    ______ ____
ROOT
ATOM      1  O   UNL     1      -0.426   1.687  25.702  0.00  0.00    -0.268 OA
ATOM      2  C   UNL     1      -1.031   1.270  25.327  0.00  0.00    +0.268 C 
ATOM      3  N   UNL     1      -1.717   1.663  25.088  0.00  0.00    -0.271 N 
ATOM      4  C   UNL     1      -2.322   1.246  24.713  0.00  0.00    +0.115 C 
ATOM      5  C   UNL     1      -3.007   1.638  24.475  0.00  0.00    +0.117 C 
ATOM      6  N   UNL     1      -3.088   2.448  24.613  0.00  0.00    -0.259 N 
ATOM      7  C   UNL     1      -2.483   2.865  24.988  0.00  0.00    +0.118 C 
ATOM      8  C   UNL     1      -2.717   3.653  25.050  0.00  0.00    +0.138 C 
ATOM      9  N   UNL     1      -3.466   3.724  24.712  0.00  0.00    -0.187 NA
ATOM     10  C   UNL     1      -3.695   2.979  24.442  0.00  0.00    +0.323 C 
ATOM     11  O   UNL     1      -4.407   2.797  24.067  0.00  0.00    -0.251 OA
ATOM     12  C   UNL     1      -1.797   2.472  25.227  0.00  0.00    +0.115 C 
ENDROOT
BRANCH   2  13
ATOM     13  C   UNL     1      -0.951   0.461  25.189  0.00  0.00    +0.154 A 
ATOM     14  C   UNL     1      -0.566   0.195  24.508  0.00  0.00    +0.123 A 
ATOM     15  N   UNL     1      -0.486  -0.615  24.370  0.00  0.00    -0.239 NA
ATOM     16  C   UNL     1      -0.790  -1.158  24.911  0.00  0.00    +0.120 A 
ATOM     17  C   UNL     1      -1.174  -0.892  25.590  0.00  0.00    +0.120 A 
ATOM     18  N   UNL     1      -1.255  -0.083  25.730  0.00  0.00    -0.236 NA
ENDBRANCH   2  13
TORSDOF 1
ENDMDL
MODEL 7
REMARK VINA RESULT:      -7.8      1.939      3.585
REMARK  Name = 
REMARK  1 active torsions:
REMARK  status: ('A' for Active; 'I' for Inactive)
REMARK    1  A    between atoms: C_2  and  C_13
REMARK                            x       y       z     vdW  Elec       q    Type
REMARK                         _______ _______ _______ _____ _____    ______ ____
ROOT
ATOM      1  O   UNL     1      -3.917   3.107  23.480  0.00  0.00    -0.268 OA
ATOM      2  C   UNL     1      -3.890   2.586  24.119  0.00  0.00    +0.268 C 
ATOM      3  N   UNL     1      -3.237   2.091  24.220  0.00  0.00    -0.271 N 
ATOM      4  C   UNL     1      -3.209   1.570  24.859  0.00  0.00    +0.115 C 
ATOM      5  C   UNL     1      -2.557   1.075  24.960  0.00  0.00    +0.117 C 
ATOM      6  N   UNL     1      -1.932   1.101  24.423  0.00  0.00    -0.259 N 
ATOM      7  C   UNL     1      -1.959   1.622  23.784  0.00  0.00    +0.118 C 
ATOM      8  C   UNL     1      -1.267   1.527  23.346  0.00  0.00    +0.138 C 
ATOM      9  N   UNL     1      -0.811   0.946  23.715  0.00  0.00    -0.187 NA
ATOM     10  C   UNL     1      -1.222   0.684  24.380  0.00  0.00    +0.323 C 
ATOM     11  O   UNL     1      -0.968   0.104  24.910  0.00  0.00    -0.251 OA
ATOM     12  C   UNL     1      -2.612   2.118  23.682  0.00  0.00    +0.115 C 
ENDROOT
BRANCH   2  13
ATOM     13  C   UNL     1      -4.514   2.559  24.657  0.00  0.00    +0.154 A 
ATOM     14  C   UNL     1      -4.529   3.080  25.298  0.00  0.00    +0.123 A 
ATOM     15  N   UNL     1      -5.153   3.053  25.836  0.00  0.00    -0.239 NA
ATOM     16  C   UNL     1      -5.763   2.506  25.735  0.00  0.00    +0.120 A 
ATOM     17  C   UNL     1      -5.748   1.986  25.095  0.00  0.00    +0.120 A 
ATOM     18  N   UNL     1      -5.124   2.012  24.556  0.00  0.00    -0.236 NA
ENDBRANCH   2  13
TORSDOF 1
ENDMDL
