REMARK  Name = 
REMARK  6 active torsions:
REMARK  status: ('A' for Active; 'I' for Inactive)
REMARK    1  A    between atoms: N_2  and  C_4
REMARK    2  A    between atoms: C_7  and  C_10
REMARK    3  A    between atoms: N_12  and  C_13
REMARK    4  A    between atoms: C_13  and  C_14
REMARK    5  A    between atoms: C_21  and  C_22
REMARK    6  A    between atoms: C_22  and  N_23
REMARK                            x       y       z     vdW  Elec       q    Type
REMARK                         _______ _______ _______ _____ _____    ______ ____
ROOT
ATOM     14  C   UNL     1       0.465  -5.199   0.000  0.00  0.00    +0.079 C 
ATOM     15  C   UNL     1       1.025  -4.658   0.000  0.00  0.00    +0.018 C 
ATOM     16  C   UNL     1       0.906  -3.857   0.000  0.00  0.00    +0.005 C 
ATOM     17  C   UNL     1       1.681  -3.405   0.000  0.00  0.00    +0.017 C 
ATOM     18  C   UNL     1       1.302  -3.938   0.000  0.00  0.00    +0.072 C 
ATOM     19  N   UNL     1       0.353  -4.381   0.000  0.00  0.00    -0.272 NA
ATOM     20  C   UNL     1      -0.402  -3.868   0.000  0.00  0.00    +0.073 C 
ATOM     21  C   UNL     1       0.176  -3.370   0.000  0.00  0.00    +0.032 C 
ENDROOT
BRANCH  14  13
ATOM     13  C   UNL     1       0.195  -5.978   0.000  0.00  0.00    +0.131 C 
BRANCH  13  12
ATOM     10  C   UNL     1       1.545  -6.446   0.000  0.00  0.00    +0.265 C 
ATOM     11  O   UNL     1       1.815  -5.667   0.000  0.00  0.00    -0.268 OA
ATOM     12  N   UNL     1       0.735  -6.602   0.000  0.00  0.00    -0.200 NA
BRANCH  10   7
ATOM      4  C   UNL     1       3.165  -8.317   0.000  0.00  0.00    +0.048 A 
ATOM      5  C   UNL     1       2.355  -8.473   0.000  0.00  0.00    +0.015 A 
ATOM      6  C   UNL     1       1.815  -7.849   0.000  0.00  0.00    +0.006 A 
ATOM      7  C   UNL     1       2.085  -7.070   0.000  0.00  0.00    +0.055 A 
ATOM      8  C   UNL     1       2.895  -6.914   0.000  0.00  0.00    +0.006 A 
ATOM      9  C   UNL     1       3.435  -7.538   0.000  0.00  0.00    +0.015 A 
BRANCH   4   2
ATOM      1  C   UNL     1       4.515  -8.785   0.000  0.00  0.00    +0.112 C 
ATOM      2  N   UNL     1       3.705  -8.941   0.000  0.00  0.00    -0.304 N 
ATOM      3  C   UNL     1       3.435  -9.720   0.000  0.00  0.00    +0.112 C 
ENDBRANCH   4   2
ENDBRANCH  10   7
ENDBRANCH  13  12
ENDBRANCH  14  13
BRANCH  21  22
ATOM     22  C   UNL     1       0.125  -2.547   0.000  0.00  0.00    +0.073 C 
BRANCH  22  23
ATOM     23  N   UNL     1       0.813  -2.091   0.000  0.00  0.00    -0.272 NA
ATOM     24  C   UNL     1       1.629  -1.912   0.000  0.00  0.00    +0.074 C 
ATOM     25  C   UNL     1       1.582  -0.925   0.000  0.00  0.00    +0.039 C 
ATOM     26  C   UNL     1       1.713  -0.121   0.000  0.00  0.00    +0.011 C 
ATOM     27  C   UNL     1       1.163  -0.557   0.000  0.00  0.00    +0.054 C 
ATOM     28  C   UNL     1       1.225  -1.510   0.000  0.00  0.00    +0.078 C 
ATOM     29  C   UNL     1       0.244  -0.558   0.000  0.00  0.00    +0.041 A 
ATOM     30  C   UNL     1      -0.397  -0.039   0.000  0.00  0.00    +0.013 A 
ATOM     31  C   UNL     1      -1.167  -0.335   0.000  0.00  0.00    +0.006 A 
ATOM     32  C   UNL     1      -1.296  -1.150   0.000  0.00  0.00    +0.061 A 
ATOM     33  C   UNL     1      -0.655  -1.669   0.000  0.00  0.00    +0.261 A 
ATOM     34  O   UNL     1      -0.784  -2.484   0.000  0.00  0.00    -0.267 OA
ATOM     35  N   UNL     1       0.115  -1.373   0.000  0.00  0.00    -0.299 N 
ATOM     36  C   UNL     1       0.622  -0.936   0.000  0.00  0.00    +0.110 C 
ENDBRANCH  22  23
ENDBRANCH  21  22
TORSDOF 6
