MODEL 1
REMARK VINA RESULT:     -10.5      0.000      0.000
REMARK  Name = 
REMARK  9 active torsions:
REMARK  status: ('A' for Active; 'I' for Inactive)
REMARK    1  A    between atoms: O_2  and  C_3
REMARK    2  A    between atoms: C_4  and  C_9
REMARK    3  A    between atoms: N_11  and  C_12
REMARK    4  A    between atoms: C_12  and  C_13
REMARK    5  A    between atoms: C_17  and  C_18
REMARK    6  A    between atoms: C_18  and  C_19
REMARK    7  A    between atoms: N_21  and  C_22
REMARK    8  A    between atoms: C_22  and  C_23
REMARK    9  A    between atoms: C_30  and  C_31
REMARK                            x       y       z     vdW  Elec       q    Type
REMARK                         _______ _______ _______ _____ _____    ______ ____
ROOT
ATOM     13  C   UNL     1      -4.385   0.934  24.589  0.00  0.00    +0.043 C 
ATOM     14  C   UNL     1      -3.792   1.026  24.024  0.00  0.00    -0.033 C 
ATOM     15  C   UNL     1      -3.647   1.769  23.694  0.00  0.00    -0.048 C 
ATOM     16  C   UNL     1      -3.053   1.861  23.128  0.00  0.00    +0.026 C 
ATOM     17  C   UNL     1      -4.096   2.419  23.931  0.00  0.00    +0.027 C 
ATOM     29  C   UNL     1      -4.689   2.327  24.497  0.00  0.00    +0.005 C 
ATOM     30  C   UNL     1      -4.834   1.584  24.826  0.00  0.00    +0.006 C 
ENDROOT
BRANCH  30  31
ATOM     31  C   UNL     1      -5.427   1.492  25.391  0.00  0.00    +0.000 C 
ATOM     32  C   UNL     1      -6.193   1.293  25.156  0.00  0.00    +0.000 C 
ATOM     33  C   UNL     1      -5.256   1.600  26.190  0.00  0.00    +0.000 C 
ENDBRANCH  30  31
BRANCH  13  12
ATOM     12  C   UNL     1      -4.529   0.192  24.918  0.00  0.00    +0.120 C 
BRANCH  12  11
ATOM      9  C   UNL     1      -3.935  -1.099  25.071  0.00  0.00    +0.268 C 
ATOM     10  O   UNL     1      -4.027  -1.044  25.890  0.00  0.00    -0.268 OA
ATOM     11  N   UNL     1      -4.186  -0.482  24.586  0.00  0.00    -0.201 NA
BRANCH   9   4
ATOM      3  C   UNL     1      -2.791  -1.927  24.854  0.00  0.00    +0.143 A 
ATOM      4  C   UNL     1      -3.592  -1.772  24.739  0.00  0.00    +0.089 A 
ATOM      5  C   UNL     1      -4.052  -2.290  24.291  0.00  0.00    +0.008 A 
ATOM      6  C   UNL     1      -3.710  -2.964  23.958  0.00  0.00    +0.000 A 
ATOM      7  C   UNL     1      -2.908  -3.119  24.074  0.00  0.00    +0.003 A 
ATOM      8  C   UNL     1      -2.448  -2.600  24.522  0.00  0.00    +0.037 A 
BRANCH   3   2
ATOM      1  C   UNL     1      -1.510  -1.498  25.323  0.00  0.00    +0.252 C 
ATOM      2  O   UNL     1      -2.330  -1.408  25.303  0.00  0.00    -0.471 OA
ENDBRANCH   3   2
ENDBRANCH   9   4
ENDBRANCH  12  11
ENDBRANCH  13  12
BRANCH  17  18
ATOM     18  C   UNL     1      -3.951   3.162  23.602  0.00  0.00    +0.091 C 
BRANCH  18  19
ATOM     19  C   UNL     1      -3.712   3.787  24.085  0.00  0.00    +0.242 C 
ATOM     20  O   UNL     1      -4.266   4.333  24.359  0.00  0.00    -0.273 OA
ATOM     21  N   UNL     1      -2.918   3.865  24.294  0.00  0.00    -0.199 NA
BRANCH  21  22
ATOM     22  C   UNL     1      -2.678   4.490  24.777  0.00  0.00    +0.160 C 
BRANCH  22  23
ATOM     23  C   UNL     1      -1.875   4.627  24.904  0.00  0.00    +0.081 A 
ATOM     24  N   UNL     1      -1.388   4.015  25.168  0.00  0.00    -0.246 NA
ATOM     25  C   UNL     1      -0.585   4.152  25.295  0.00  0.00    +0.099 A 
ATOM     26  C   UNL     1      -0.268   4.901  25.158  0.00  0.00    +0.021 A 
ATOM     27  C   UNL     1      -0.754   5.513  24.894  0.00  0.00    +0.003 A 
ATOM     28  C   UNL     1      -1.558   5.376  24.767  0.00  0.00    +0.017 A 
ENDBRANCH  22  23
ENDBRANCH  21  22
ENDBRANCH  18  19
ENDBRANCH  17  18
TORSDOF 9
ENDMDL
MODEL 2
REMARK VINA RESULT:     -10.3      3.517      5.355
REMARK  Name = 
REMARK  9 active torsions:
REMARK  status: ('A' for Active; 'I' for Inactive)
REMARK    1  A    between atoms: O_2  and  C_3
REMARK    2  A    between atoms: C_4  and  C_9
REMARK    3  A    between atoms: N_11  and  C_12
REMARK    4  A    between atoms: C_12  and  C_13
REMARK    5  A    between atoms: C_17  and  C_18
REMARK    6  A    between atoms: C_18  and  C_19
REMARK    7  A    between atoms: N_21  and  C_22
REMARK    8  A    between atoms: C_22  and  C_23
REMARK    9  A    between atoms: C_30  and  C_31
REMARK                            x       y       z     vdW  Elec       q    Type
REMARK                         _______ _______ _______ _____ _____    ______ ____
ROOT
ATOM     13  C   UNL     1      -1.186   1.190  24.644  0.00  0.00    +0.043 C 
ATOM     14  C   UNL     1      -1.417   0.415  24.484  0.00  0.00    -0.033 C 
ATOM     15  C   UNL     1      -0.872  -0.123  24.176  0.00  0.00    -0.048 C 
ATOM     16  C   UNL     1      -1.102  -0.899  24.015  0.00  0.00    +0.026 C 
ATOM     17  C   UNL     1      -0.096   0.115  24.028  0.00  0.00    +0.027 C 
ATOM     29  C   UNL     1       0.135   0.891  24.189  0.00  0.00    +0.005 C 
ATOM     30  C   UNL     1      -0.410   1.428  24.496  0.00  0.00    +0.006 C 
ENDROOT
BRANCH  30  31
ATOM     31  C   UNL     1      -0.178   2.204  24.656  0.00  0.00    +0.000 C 
ATOM     32  C   UNL     1      -0.263   2.787  24.078  0.00  0.00    +0.000 C 
ATOM     33  C   UNL     1       0.137   2.396  25.393  0.00  0.00    +0.000 C 
ENDBRANCH  30  31
BRANCH  13  12
ATOM     12  C   UNL     1      -1.730   1.727  24.952  0.00  0.00    +0.120 C 
BRANCH  12  11
ATOM      9  C   UNL     1      -3.089   2.101  25.188  0.00  0.00    +0.268 C 
ATOM     10  O   UNL     1      -2.839   2.654  25.749  0.00  0.00    -0.268 OA
ATOM     11  N   UNL     1      -2.535   1.639  24.790  0.00  0.00    -0.201 NA
BRANCH   9   4
ATOM      3  C   UNL     1      -4.308   2.617  24.649  0.00  0.00    +0.143 A 
ATOM      4  C   UNL     1      -3.893   2.013  25.027  0.00  0.00    +0.089 A 
ATOM      5  C   UNL     1      -4.283   1.319  25.244  0.00  0.00    +0.008 A 
ATOM      6  C   UNL     1      -5.088   1.230  25.083  0.00  0.00    +0.000 A 
ATOM      7  C   UNL     1      -5.502   1.835  24.704  0.00  0.00    +0.003 A 
ATOM      8  C   UNL     1      -5.112   2.529  24.487  0.00  0.00    +0.037 A 
BRANCH   3   2
ATOM      1  C   UNL     1      -4.317   3.892  24.002  0.00  0.00    +0.252 C 
ATOM      2  O   UNL     1      -3.917   3.312  24.431  0.00  0.00    -0.471 OA
ENDBRANCH   3   2
ENDBRANCH   9   4
ENDBRANCH  12  11
ENDBRANCH  13  12
BRANCH  17  18
ATOM     18  C   UNL     1       0.449  -0.423  23.720  0.00  0.00    +0.091 C 
BRANCH  18  19
ATOM     19  C   UNL     1       0.953  -0.193  23.108  0.00  0.00    +0.242 C 
ATOM     20  O   UNL     1       0.644  -0.013  22.365  0.00  0.00    -0.273 OA
ATOM     21  N   UNL     1       1.765  -0.145  23.240  0.00  0.00    -0.199 NA
BRANCH  21  22
ATOM     22  C   UNL     1       2.270   0.085  22.628  0.00  0.00    +0.160 C 
BRANCH  22  23
ATOM     23  C   UNL     1       3.072   0.205  22.778  0.00  0.00    +0.081 A 
ATOM     24  N   UNL     1       3.533  -0.413  23.073  0.00  0.00    -0.246 NA
ATOM     25  C   UNL     1       4.335  -0.293  23.224  0.00  0.00    +0.099 A 
ATOM     26  C   UNL     1       4.676   0.443  23.080  0.00  0.00    +0.021 A 
ATOM     27  C   UNL     1       4.216   1.061  22.785  0.00  0.00    +0.003 A 
ATOM     28  C   UNL     1       3.413   0.941  22.634  0.00  0.00    +0.017 A 
ENDBRANCH  22  23
ENDBRANCH  21  22
ENDBRANCH  18  19
ENDBRANCH  17  18
TORSDOF 9
ENDMDL
MODEL 3
REMARK VINA RESULT:      -9.6      1.119      5.431
REMARK  Name = 
REMARK  9 active torsions:
REMARK  status: ('A' for Active; 'I' for Inactive)
REMARK    1  A    between atoms: O_2  and  C_3
REMARK    2  A    between atoms: C_4  and  C_9
REMARK    3  A    between atoms: N_11  and  C_12
REMARK    4  A    between atoms: C_12  and  C_13
REMARK    5  A    between atoms: C_17  and  C_18
REMARK    6  A    between atoms: C_18  and  C_19
REMARK    7  A    between atoms: N_21  and  C_22
REMARK    8  A    between atoms: C_22  and  C_23
REMARK    9  A    between atoms: C_30  and  C_31
REMARK                            x       y       z     vdW  Elec       q    Type
REMARK                         _______ _______ _______ _____ _____    ______ ____
ROOT
ATOM     13  C   UNL     1      -3.903   2.720  24.882  0.00  0.00    +0.043 C 
ATOM     14  C   UNL     1      -3.404   2.357  24.336  0.00  0.00    -0.033 C 
ATOM     15  C   UNL     1      -3.620   1.637  23.994  0.00  0.00    -0.048 C 
ATOM     16  C   UNL     1      -3.121   1.272  23.447  0.00  0.00    +0.026 C 
ATOM     17  C   UNL     1      -4.335   1.281  24.200  0.00  0.00    +0.027 C 
ATOM     29  C   UNL     1      -4.835   1.646  24.748  0.00  0.00    +0.005 C 
ATOM     30  C   UNL     1      -4.618   2.365  25.088  0.00  0.00    +0.006 C 
ENDROOT
BRANCH  30  31
ATOM     31  C   UNL     1      -5.117   2.728  25.635  0.00  0.00    +0.000 C 
ATOM     32  C   UNL     1      -5.635   3.323  25.389  0.00  0.00    +0.000 C 
ATOM     33  C   UNL     1      -5.100   2.498  26.426  0.00  0.00    +0.000 C 
ENDBRANCH  30  31
BRANCH  13  12
ATOM     12  C   UNL     1      -3.687   3.439  25.223  0.00  0.00    +0.120 C 
BRANCH  12  11
ATOM      9  C   UNL     1      -2.535   4.232  25.519  0.00  0.00    +0.268 C 
ATOM     10  O   UNL     1      -2.755   4.254  26.315  0.00  0.00    -0.268 OA
ATOM     11  N   UNL     1      -3.001   3.825  24.974  0.00  0.00    -0.201 NA
BRANCH   9   4
ATOM      3  C   UNL     1      -1.117   4.249  25.348  0.00  0.00    +0.143 A 
ATOM      4  C   UNL     1      -1.850   4.618  25.270  0.00  0.00    +0.089 A 
ATOM      5  C   UNL     1      -1.898   5.374  24.943  0.00  0.00    +0.008 A 
ATOM      6  C   UNL     1      -1.214   5.761  24.694  0.00  0.00    +0.000 A 
ATOM      7  C   UNL     1      -0.479   5.391  24.772  0.00  0.00    +0.003 A 
ATOM      8  C   UNL     1      -0.431   4.635  25.099  0.00  0.00    +0.037 A 
BRANCH   3   2
ATOM      1  C   UNL     1      -0.336   3.116  25.735  0.00  0.00    +0.252 C 
ATOM      2  O   UNL     1      -1.068   3.492  25.675  0.00  0.00    -0.471 OA
ENDBRANCH   3   2
ENDBRANCH   9   4
ENDBRANCH  12  11
ENDBRANCH  13  12
BRANCH  17  18
ATOM     18  C   UNL     1      -4.552   0.561  23.859  0.00  0.00    +0.091 C 
BRANCH  18  19
ATOM     19  C   UNL     1      -4.583  -0.121  24.322  0.00  0.00    +0.242 C 
ATOM     20  O   UNL     1      -5.200  -0.227  24.859  0.00  0.00    -0.273 OA
ATOM     21  N   UNL     1      -3.997  -0.696  24.247  0.00  0.00    -0.199 NA
BRANCH  21  22
ATOM     22  C   UNL     1      -4.027  -1.379  24.710  0.00  0.00    +0.160 C 
BRANCH  22  23
ATOM     23  C   UNL     1      -3.437  -1.951  24.639  0.00  0.00    +0.081 A 
ATOM     24  N   UNL     1      -2.674  -1.792  24.911  0.00  0.00    -0.246 NA
ATOM     25  C   UNL     1      -2.084  -2.364  24.840  0.00  0.00    +0.099 A 
ATOM     26  C   UNL     1      -2.256  -3.094  24.499  0.00  0.00    +0.021 A 
ATOM     27  C   UNL     1      -3.019  -3.253  24.228  0.00  0.00    +0.003 A 
ATOM     28  C   UNL     1      -3.610  -2.681  24.298  0.00  0.00    +0.017 A 
ENDBRANCH  22  23
ENDBRANCH  21  22
ENDBRANCH  18  19
ENDBRANCH  17  18
TORSDOF 9
ENDMDL
MODEL 4
REMARK VINA RESULT:      -9.6      2.770      4.959
REMARK  Name = 
REMARK  9 active torsions:
REMARK  status: ('A' for Active; 'I' for Inactive)
REMARK    1  A    between atoms: O_2  and  C_3
REMARK    2  A    between atoms: C_4  and  C_9
REMARK    3  A    between atoms: N_11  and  C_12
REMARK    4  A    between atoms: C_12  and  C_13
REMARK    5  A    between atoms: C_17  and  C_18
REMARK    6  A    between atoms: C_18  and  C_19
REMARK    7  A    between atoms: N_21  and  C_22
REMARK    8  A    between atoms: C_22  and  C_23
REMARK    9  A    between atoms: C_30  and  C_31
REMARK                            x       y       z     vdW  Elec       q    Type
REMARK                         _______ _______ _______ _____ _____    ______ ____
ROOT
ATOM     13  C   UNL     1      -2.994   0.306  24.870  0.00  0.00    +0.043 C 
ATOM     14  C   UNL     1      -2.411   0.873  25.004  0.00  0.00    -0.033 C 
ATOM     15  C   UNL     1      -1.616   0.652  25.023  0.00  0.00    -0.048 C 
ATOM     16  C   UNL     1      -1.032   1.220  25.156  0.00  0.00    +0.026 C 
ATOM     17  C   UNL     1      -1.405  -0.137  24.908  0.00  0.00    +0.027 C 
ATOM     29  C   UNL     1      -1.989  -0.705  24.774  0.00  0.00    +0.005 C 
ATOM     30  C   UNL     1      -2.783  -0.483  24.755  0.00  0.00    +0.006 C 
ENDROOT
BRANCH  30  31
ATOM     31  C   UNL     1      -3.366  -1.051  24.622  0.00  0.00    +0.000 C 
ATOM     32  C   UNL     1      -3.659  -1.169  23.859  0.00  0.00    +0.000 C 
ATOM     33  C   UNL     1      -3.656  -1.500  25.249  0.00  0.00    +0.000 C 
ENDBRANCH  30  31
BRANCH  13  12
ATOM     12  C   UNL     1      -3.788   0.528  24.852  0.00  0.00    +0.120 C 
BRANCH  12  11
ATOM      9  C   UNL     1      -4.765   1.569  24.888  0.00  0.00    +0.268 C 
ATOM     10  O   UNL     1      -5.304   1.077  24.500  0.00  0.00    -0.268 OA
ATOM     11  N   UNL     1      -4.008   1.294  25.063  0.00  0.00    -0.201 NA
BRANCH   9   4
ATOM      3  C   UNL     1      -5.571   2.455  25.668  0.00  0.00    +0.143 A 
ATOM      4  C   UNL     1      -4.986   2.336  25.099  0.00  0.00    +0.089 A 
ATOM      5  C   UNL     1      -4.621   2.983  24.741  0.00  0.00    +0.008 A 
ATOM      6  C   UNL     1      -4.840   3.750  24.952  0.00  0.00    +0.000 A 
ATOM      7  C   UNL     1      -5.426   3.869  25.521  0.00  0.00    +0.003 A 
ATOM      8  C   UNL     1      -5.791   3.222  25.879  0.00  0.00    +0.037 A 
BRANCH   3   2
ATOM      1  C   UNL     1      -6.487   1.926  26.630  0.00  0.00    +0.252 C 
ATOM      2  O   UNL     1      -5.936   1.807  26.026  0.00  0.00    -0.471 OA
ENDBRANCH   3   2
ENDBRANCH   9   4
ENDBRANCH  12  11
ENDBRANCH  13  12
BRANCH  17  18
ATOM     18  C   UNL     1      -0.610  -0.359  24.926  0.00  0.00    +0.091 C 
BRANCH  18  19
ATOM     19  C   UNL     1      -0.256  -0.680  24.254  0.00  0.00    +0.242 C 
ATOM     20  O   UNL     1      -0.473  -1.432  23.992  0.00  0.00    -0.273 OA
ATOM     21  N   UNL     1       0.315  -0.249  23.844  0.00  0.00    -0.199 NA
BRANCH  21  22
ATOM     22  C   UNL     1       0.669  -0.570  23.171  0.00  0.00    +0.160 C 
BRANCH  22  23
ATOM     23  C   UNL     1       1.367  -0.243  22.877  0.00  0.00    +0.081 A 
ATOM     24  N   UNL     1       1.825   0.249  23.357  0.00  0.00    -0.246 NA
ATOM     25  C   UNL     1       2.524   0.576  23.063  0.00  0.00    +0.099 A 
ATOM     26  C   UNL     1       2.764   0.412  22.292  0.00  0.00    +0.021 A 
ATOM     27  C   UNL     1       2.307  -0.080  21.813  0.00  0.00    +0.003 A 
ATOM     28  C   UNL     1       1.608  -0.407  22.106  0.00  0.00    +0.017 A 
ENDBRANCH  22  23
ENDBRANCH  21  22
ENDBRANCH  18  19
ENDBRANCH  17  18
TORSDOF 9
ENDMDL
MODEL 5
REMARK VINA RESULT:      -9.2      1.833      3.411
REMARK  Name = 
REMARK  9 active torsions:
REMARK  status: ('A' for Active; 'I' for Inactive)
REMARK    1  A    between atoms: O_2  and  C_3
REMARK    2  A    between atoms: C_4  and  C_9
REMARK    3  A    between atoms: N_11  and  C_12
REMARK    4  A    between atoms: C_12  and  C_13
REMARK    5  A    between atoms: C_17  and  C_18
REMARK    6  A    between atoms: C_18  and  C_19
REMARK    7  A    between atoms: N_21  and  C_22
REMARK    8  A    between atoms: C_22  and  C_23
REMARK    9  A    between atoms: C_30  and  C_31
REMARK                            x       y       z     vdW  Elec       q    Type
REMARK                         _______ _______ _______ _____ _____    ______ ____
ROOT
ATOM     13  C   UNL     1      -0.545   0.925  25.059  0.00  0.00    +0.043 C 
ATOM     14  C   UNL     1      -0.542   1.207  25.834  0.00  0.00    -0.033 C 
ATOM     15  C   UNL     1      -0.484   2.017  25.979  0.00  0.00    -0.048 C 
ATOM     16  C   UNL     1      -0.480   2.299  26.754  0.00  0.00    +0.026 C 
ATOM     17  C   UNL     1      -0.429   2.546  25.348  0.00  0.00    +0.027 C 
ATOM     29  C   UNL     1      -0.432   2.264  24.572  0.00  0.00    +0.005 C 
ATOM     30  C   UNL     1      -0.490   1.454  24.428  0.00  0.00    +0.006 C 
ENDROOT
BRANCH  30  31
ATOM     31  C   UNL     1      -0.493   1.173  23.652  0.00  0.00    +0.000 C 
ATOM     32  C   UNL     1      -1.184   1.214  23.202  0.00  0.00    +0.000 C 
ATOM     33  C   UNL     1       0.192   0.852  23.327  0.00  0.00    +0.000 C 
ENDBRANCH  30  31
BRANCH  13  12
ATOM     12  C   UNL     1      -0.603   0.116  24.914  0.00  0.00    +0.120 C 
BRANCH  12  11
ATOM      9  C   UNL     1      -1.362  -1.057  25.214  0.00  0.00    +0.268 C 
ATOM     10  O   UNL     1      -0.663  -1.469  25.371  0.00  0.00    -0.268 OA
ATOM     11  N   UNL     1      -1.331  -0.266  24.987  0.00  0.00    -0.201 NA
BRANCH   9   4
ATOM      3  C   UNL     1      -2.269  -2.081  24.802  0.00  0.00    +0.143 A 
ATOM      4  C   UNL     1      -2.090  -1.439  25.287  0.00  0.00    +0.089 A 
ATOM      5  C   UNL     1      -2.639  -1.177  25.844  0.00  0.00    +0.008 A 
ATOM      6  C   UNL     1      -3.367  -1.558  25.917  0.00  0.00    +0.000 A 
ATOM      7  C   UNL     1      -3.546  -2.201  25.432  0.00  0.00    +0.003 A 
ATOM      8  C   UNL     1      -2.997  -2.463  24.874  0.00  0.00    +0.037 A 
BRANCH   3   2
ATOM      1  C   UNL     1      -1.890  -3.001  23.775  0.00  0.00    +0.252 C 
ATOM      2  O   UNL     1      -1.720  -2.344  24.244  0.00  0.00    -0.471 OA
ENDBRANCH   3   2
ENDBRANCH   9   4
ENDBRANCH  12  11
ENDBRANCH  13  12
BRANCH  17  18
ATOM     18  C   UNL     1      -0.371   3.357  25.492  0.00  0.00    +0.091 C 
BRANCH  18  19
ATOM     19  C   UNL     1      -0.945   3.870  25.196  0.00  0.00    +0.242 C 
ATOM     20  O   UNL     1      -0.737   4.447  24.645  0.00  0.00    -0.273 OA
ATOM     21  N   UNL     1      -1.726   3.805  25.452  0.00  0.00    -0.199 NA
BRANCH  21  22
ATOM     22  C   UNL     1      -2.301   4.318  25.156  0.00  0.00    +0.160 C 
BRANCH  22  23
ATOM     23  C   UNL     1      -3.098   4.108  25.191  0.00  0.00    +0.081 A 
ATOM     24  N   UNL     1      -3.482   4.066  25.920  0.00  0.00    -0.246 NA
ATOM     25  C   UNL     1      -4.279   3.855  25.954  0.00  0.00    +0.099 A 
ATOM     26  C   UNL     1      -4.691   3.687  25.261  0.00  0.00    +0.021 A 
ATOM     27  C   UNL     1      -4.308   3.729  24.532  0.00  0.00    +0.003 A 
ATOM     28  C   UNL     1      -3.510   3.940  24.497  0.00  0.00    +0.017 A 
ENDBRANCH  22  23
ENDBRANCH  21  22
ENDBRANCH  18  19
ENDBRANCH  17  18
TORSDOF 9
ENDMDL
MODEL 6
REMARK VINA RESULT:      -9.1      1.983      5.791
REMARK  Name = 
REMARK  9 active torsions:
REMARK  status: ('A' for Active; 'I' for Inactive)
REMARK    1  A    between atoms: O_2  and  C_3
REMARK    2  A    between atoms: C_4  and  C_9
REMARK    3  A    between atoms: N_11  and  C_12
REMARK    4  A    between atoms: C_12  and  C_13
REMARK    5  A    between atoms: C_17  and  C_18
REMARK    6  A    between atoms: C_18  and  C_19
REMARK    7  A    between atoms: N_21  and  C_22
REMARK    8  A    between atoms: C_22  and  C_23
REMARK    9  A    between atoms: C_30  and  C_31
REMARK                            x       y       z     vdW  Elec       q    Type
REMARK                         _______ _______ _______ _____ _____    ______ ____
ROOT
ATOM     13  C   UNL     1      -1.133   2.107  24.572  0.00  0.00    +0.043 C 
ATOM     14  C   UNL     1      -1.375   1.785  23.853  0.00  0.00    -0.033 C 
ATOM     15  C   UNL     1      -1.071   1.060  23.603  0.00  0.00    -0.048 C 
ATOM     16  C   UNL     1      -1.312   0.736  22.883  0.00  0.00    +0.026 C 
ATOM     17  C   UNL     1      -0.524   0.658  24.072  0.00  0.00    +0.027 C 
ATOM     29  C   UNL     1      -0.282   0.981  24.792  0.00  0.00    +0.005 C 
ATOM     30  C   UNL     1      -0.586   1.705  25.042  0.00  0.00    +0.006 C 
ENDROOT
BRANCH  30  31
ATOM     31  C   UNL     1      -0.344   2.027  25.761  0.00  0.00    +0.000 C 
ATOM     32  C   UNL     1       0.256   2.594  25.778  0.00  0.00    +0.000 C 
ATOM     33  C   UNL     1      -0.700   1.784  26.463  0.00  0.00    +0.000 C 
ENDBRANCH  30  31
BRANCH  13  12
ATOM     12  C   UNL     1      -1.437   2.832  24.823  0.00  0.00    +0.120 C 
BRANCH  12  11
ATOM      9  C   UNL     1      -2.581   3.683  24.909  0.00  0.00    +0.268 C 
ATOM     10  O   UNL     1      -2.096   4.345  24.808  0.00  0.00    -0.268 OA
ATOM     11  N   UNL     1      -2.251   2.928  24.916  0.00  0.00    -0.201 NA
BRANCH   9   4
ATOM      3  C   UNL     1      -3.705   3.989  25.737  0.00  0.00    +0.143 A 
ATOM      4  C   UNL     1      -3.395   3.780  25.002  0.00  0.00    +0.089 A 
ATOM      5  C   UNL     1      -3.900   3.667  24.359  0.00  0.00    +0.008 A 
ATOM      6  C   UNL     1      -4.714   3.763  24.451  0.00  0.00    +0.000 A 
ATOM      7  C   UNL     1      -5.023   3.972  25.188  0.00  0.00    +0.003 A 
ATOM      8  C   UNL     1      -4.519   4.085  25.830  0.00  0.00    +0.037 A 
BRANCH   3   2
ATOM      1  C   UNL     1      -3.513   4.250  27.129  0.00  0.00    +0.252 C 
ATOM      2  O   UNL     1      -3.199   4.102  26.381  0.00  0.00    -0.471 OA
ENDBRANCH   3   2
ENDBRANCH   9   4
ENDBRANCH  12  11
ENDBRANCH  13  12
BRANCH  17  18
ATOM     18  C   UNL     1      -0.219  -0.068  23.822  0.00  0.00    +0.091 C 
BRANCH  18  19
ATOM     19  C   UNL     1      -0.363  -0.749  24.264  0.00  0.00    +0.242 C 
ATOM     20  O   UNL     1       0.239  -1.080  24.720  0.00  0.00    -0.273 OA
ATOM     21  N   UNL     1      -1.110  -1.100  24.248  0.00  0.00    -0.199 NA
BRANCH  21  22
ATOM     22  C   UNL     1      -1.254  -1.782  24.690  0.00  0.00    +0.160 C 
BRANCH  22  23
ATOM     23  C   UNL     1      -2.019  -2.088  24.737  0.00  0.00    +0.081 A 
ATOM     24  N   UNL     1      -2.265  -2.666  24.202  0.00  0.00    -0.246 NA
ATOM     25  C   UNL     1      -3.029  -2.972  24.249  0.00  0.00    +0.099 A 
ATOM     26  C   UNL     1      -3.547  -2.701  24.830  0.00  0.00    +0.021 A 
ATOM     27  C   UNL     1      -3.302  -2.123  25.365  0.00  0.00    +0.003 A 
ATOM     28  C   UNL     1      -2.537  -1.816  25.318  0.00  0.00    +0.017 A 
ENDBRANCH  22  23
ENDBRANCH  21  22
ENDBRANCH  18  19
ENDBRANCH  17  18
TORSDOF 9
ENDMDL
MODEL 7
REMARK VINA RESULT:      -8.9      2.294      3.982
REMARK  Name = 
REMARK  9 active torsions:
REMARK  status: ('A' for Active; 'I' for Inactive)
REMARK    1  A    between atoms: O_2  and  C_3
REMARK    2  A    between atoms: C_4  and  C_9
REMARK    3  A    between atoms: N_11  and  C_12
REMARK    4  A    between atoms: C_12  and  C_13
REMARK    5  A    between atoms: C_17  and  C_18
REMARK    6  A    between atoms: C_18  and  C_19
REMARK    7  A    between atoms: N_21  and  C_22
REMARK    8  A    between atoms: C_22  and  C_23
REMARK    9  A    between atoms: C_30  and  C_31
REMARK                            x       y       z     vdW  Elec       q    Type
REMARK                         _______ _______ _______ _____ _____    ______ ____
ROOT
ATOM     13  C   UNL     1      -1.642   2.569  24.327  0.00  0.00    +0.043 C 
ATOM     14  C   UNL     1      -2.143   2.319  23.722  0.00  0.00    -0.033 C 
ATOM     15  C   UNL     1      -2.846   2.724  23.573  0.00  0.00    -0.048 C 
ATOM     16  C   UNL     1      -3.348   2.474  22.968  0.00  0.00    +0.026 C 
ATOM     17  C   UNL     1      -3.048   3.381  24.030  0.00  0.00    +0.027 C 
ATOM     29  C   UNL     1      -2.547   3.632  24.636  0.00  0.00    +0.005 C 
ATOM     30  C   UNL     1      -1.844   3.226  24.784  0.00  0.00    +0.006 C 
ENDROOT
BRANCH  30  31
ATOM     31  C   UNL     1      -1.343   3.477  25.390  0.00  0.00    +0.000 C 
ATOM     32  C   UNL     1      -1.435   3.174  26.152  0.00  0.00    +0.000 C 
ATOM     33  C   UNL     1      -0.753   4.030  25.234  0.00  0.00    +0.000 C 
ENDBRANCH  30  31
BRANCH  13  12
ATOM     12  C   UNL     1      -0.940   2.164  24.475  0.00  0.00    +0.120 C 
BRANCH  12  11
ATOM      9  C   UNL     1      -0.213   0.934  24.444  0.00  0.00    +0.268 C 
ATOM     10  O   UNL     1       0.497   1.355  24.413  0.00  0.00    -0.268 OA
ATOM     11  N   UNL     1      -0.931   1.339  24.475  0.00  0.00    -0.201 NA
BRANCH   9   4
ATOM      3  C   UNL     1       0.188  -0.299  23.844  0.00  0.00    +0.143 A 
ATOM      4  C   UNL     1      -0.204   0.109  24.443  0.00  0.00    +0.089 A 
ATOM      5  C   UNL     1      -0.588  -0.308  25.043  0.00  0.00    +0.008 A 
ATOM      6  C   UNL     1      -0.579  -1.133  25.043  0.00  0.00    +0.000 A 
ATOM      7  C   UNL     1      -0.186  -1.541  24.443  0.00  0.00    +0.003 A 
ATOM      8  C   UNL     1       0.198  -1.124  23.843  0.00  0.00    +0.037 A 
BRANCH   3   2
ATOM      1  C   UNL     1       1.031  -0.286  22.689  0.00  0.00    +0.252 C 
ATOM      2  O   UNL     1       0.573   0.118  23.243  0.00  0.00    -0.471 OA
ENDBRANCH   3   2
ENDBRANCH   9   4
ENDBRANCH  12  11
ENDBRANCH  13  12
BRANCH  17  18
ATOM     18  C   UNL     1      -3.752   3.787  23.882  0.00  0.00    +0.091 C 
BRANCH  18  19
ATOM     19  C   UNL     1      -4.298   3.899  24.490  0.00  0.00    +0.242 C 
ATOM     20  O   UNL     1      -4.328   4.620  24.890  0.00  0.00    -0.273 OA
ATOM     21  N   UNL     1      -4.814   3.290  24.697  0.00  0.00    -0.199 NA
BRANCH  21  22
ATOM     22  C   UNL     1      -5.361   3.402  25.305  0.00  0.00    +0.160 C 
BRANCH  22  23
ATOM     23  C   UNL     1      -5.744   2.753  25.640  0.00  0.00    +0.081 A 
ATOM     24  N   UNL     1      -5.823   2.698  26.460  0.00  0.00    -0.246 NA
ATOM     25  C   UNL     1      -6.206   2.049  26.794  0.00  0.00    +0.099 A 
ATOM     26  C   UNL     1      -6.509   1.454  26.310  0.00  0.00    +0.021 A 
ATOM     27  C   UNL     1      -6.430   1.508  25.491  0.00  0.00    +0.003 A 
ATOM     28  C   UNL     1      -6.047   2.158  25.156  0.00  0.00    +0.017 A 
ENDBRANCH  22  23
ENDBRANCH  21  22
ENDBRANCH  18  19
ENDBRANCH  17  18
TORSDOF 9
ENDMDL
