MODEL 1
REMARK VINA RESULT:      -9.6      0.000      0.000
REMARK  Name = 
REMARK  7 active torsions:
REMARK  status: ('A' for Active; 'I' for Inactive)
REMARK    1  A    between atoms: C_2  and  C_3
REMARK    2  A    between atoms: C_3  and  C_4
REMARK    3  A    between atoms: C_4  and  C_5
REMARK    4  A    between atoms: C_7  and  C_8
REMARK    5  A    between atoms: C_8  and  C_9
REMARK    6  A    between atoms: C_11  and  N_12
REMARK    7  A    between atoms: N_12  and  S_13
REMARK                            x       y       z     vdW  Elec       q    Type
REMARK                         _______ _______ _______ _____ _____    ______ ____
ROOT
ATOM      9  C   UNL     1      -4.435   2.296  25.043  0.00  0.00    +0.009 C 
ATOM     10  C   UNL     1      -3.649   2.548  25.057  0.00  0.00    +0.020 C 
ATOM     11  C   UNL     1      -3.891   3.286  25.339  0.00  0.00    +0.097 C 
ATOM     17  C   UNL     1      -4.677   3.032  25.324  0.00  0.00    +0.017 C 
ATOM     18  C   UNL     1      -5.095   3.689  25.595  0.00  0.00    +0.001 C 
ATOM     19  C   UNL     1      -5.496   2.959  25.375  0.00  0.00    +0.001 C 
ENDROOT
BRANCH   9   8
ATOM      8  C   UNL     1      -4.818   1.597  24.833  0.00  0.00    +0.049 C 
BRANCH   8   7
ATOM      5  C   UNL     1      -3.827  -0.292  24.766  0.00  0.00    +0.154 A 
ATOM      6  C   UNL     1      -4.321   0.250  25.145  0.00  0.00    +0.054 A 
ATOM      7  C   UNL     1      -4.380   0.919  24.667  0.00  0.00    +0.100 A 
ATOM     20  N   UNL     1      -3.921   0.791  23.992  0.00  0.00    -0.082 NA
ATOM     21  O   UNL     1      -3.580   0.043  24.053  0.00  0.00    -0.358 OA
BRANCH   5   4
ATOM      4  C   UNL     1      -3.617  -1.037  25.050  0.00  0.00    +0.067 C 
BRANCH   4   3
ATOM      3  C   UNL     1      -3.715  -1.704  24.574  0.00  0.00    +0.008 C 
BRANCH   3   2
ATOM      1  C   UNL     1      -3.526  -3.104  24.359  0.00  0.00    +0.000 C 
ATOM      2  C   UNL     1      -3.519  -2.451  24.863  0.00  0.00    +0.000 C 
ENDBRANCH   3   2
ENDBRANCH   4   3
ENDBRANCH   5   4
ENDBRANCH   8   7
ENDBRANCH   9   8
BRANCH  11  12
ATOM     12  N   UNL     1      -3.507   3.985  25.549  0.00  0.00    -0.083 NA
BRANCH  12  13
ATOM     13  S   UNL     1      -2.684   4.029  25.516  0.00  0.00    +0.059 S 
ATOM     14  C   UNL     1      -1.861   4.073  25.482  0.00  0.00    +0.197 C 
ATOM     15  O   UNL     1      -2.729   4.248  24.721  0.00  0.00    -0.156 OA
ATOM     16  O   UNL     1      -2.640   3.811  26.310  0.00  0.00    -0.156 OA
ENDBRANCH  12  13
ENDBRANCH  11  12
TORSDOF 7
ENDMDL
MODEL 2
REMARK VINA RESULT:      -9.2      2.004      4.643
REMARK  Name = 
REMARK  7 active torsions:
REMARK  status: ('A' for Active; 'I' for Inactive)
REMARK    1  A    between atoms: C_2  and  C_3
REMARK    2  A    between atoms: C_3  and  C_4
REMARK    3  A    between atoms: C_4  and  C_5
REMARK    4  A    between atoms: C_7  and  C_8
REMARK    5  A    between atoms: C_8  and  C_9
REMARK    6  A    between atoms: C_11  and  N_12
REMARK    7  A    between atoms: N_12  and  S_13
REMARK                            x       y       z     vdW  Elec       q    Type
REMARK                         _______ _______ _______ _____ _____    ______ ____
ROOT
ATOM      9  C   UNL     1      -3.555  -0.580  24.384  0.00  0.00    +0.009 C 
ATOM     10  C   UNL     1      -2.767  -0.510  24.618  0.00  0.00    +0.020 C 
ATOM     11  C   UNL     1      -2.692  -1.332  24.610  0.00  0.00    +0.097 C 
ATOM     17  C   UNL     1      -3.481  -1.401  24.376  0.00  0.00    +0.017 C 
ATOM     18  C   UNL     1      -3.593  -2.215  24.314  0.00  0.00    +0.001 C 
ATOM     19  C   UNL     1      -4.230  -1.659  24.147  0.00  0.00    +0.001 C 
ENDROOT
BRANCH   9   8
ATOM      8  C   UNL     1      -4.165  -0.047  24.225  0.00  0.00    +0.049 C 
BRANCH   8   7
ATOM      5  C   UNL     1      -3.974   2.051  24.566  0.00  0.00    +0.154 A 
ATOM      6  C   UNL     1      -4.237   1.304  24.798  0.00  0.00    +0.054 A 
ATOM      7  C   UNL     1      -4.014   0.764  24.217  0.00  0.00    +0.100 A 
ATOM     20  N   UNL     1      -3.612   1.176  23.625  0.00  0.00    -0.082 NA
ATOM     21  O   UNL     1      -3.587   1.972  23.840  0.00  0.00    -0.358 OA
BRANCH   5   4
ATOM      4  C   UNL     1      -4.077   2.754  24.984  0.00  0.00    +0.067 C 
BRANCH   4   3
ATOM      3  C   UNL     1      -3.423   3.161  25.278  0.00  0.00    +0.008 C 
BRANCH   3   2
ATOM      1  C   UNL     1      -2.876   4.199  26.093  0.00  0.00    +0.000 C 
ATOM      2  C   UNL     1      -3.529   3.819  25.764  0.00  0.00    +0.000 C 
ENDBRANCH   3   2
ENDBRANCH   4   3
ENDBRANCH   5   4
ENDBRANCH   8   7
ENDBRANCH   9   8
BRANCH  11  12
ATOM     12  N   UNL     1      -2.083  -1.865  24.770  0.00  0.00    -0.083 NA
BRANCH  12  13
ATOM     13  S   UNL     1      -1.322  -1.585  24.924  0.00  0.00    +0.059 S 
ATOM     14  C   UNL     1      -0.561  -1.306  25.079  0.00  0.00    +0.197 C 
ATOM     15  O   UNL     1      -1.524  -1.474  25.716  0.00  0.00    -0.156 OA
ATOM     16  O   UNL     1      -1.120  -1.696  24.132  0.00  0.00    -0.156 OA
ENDBRANCH  12  13
ENDBRANCH  11  12
TORSDOF 7
ENDMDL
