MODEL 1
REMARK VINA RESULT:     -11.6      0.000      0.000
REMARK  Name = 
REMARK  6 active torsions:
REMARK  status: ('A' for Active; 'I' for Inactive)
REMARK    1  A    between atoms: N_8  and  C_9
REMARK    2  A    between atoms: C_9  and  C_10
REMARK    3  A    between atoms: C_10  and  C_11
REMARK    4  A    between atoms: C_16  and  C_17
REMARK    5  A    between atoms: C_17  and  C_18
REMARK    6  A    between atoms: C_21  and  C_23
REMARK                            x       y       z     vdW  Elec       q    Type
REMARK                         _______ _______ _______ _____ _____    ______ ____
ROOT
ATOM     11  C   UNL     1      -3.522   1.137  24.777  0.00  0.00    +0.022 C 
ATOM     12  C   UNL     1      -3.071   0.457  24.655  0.00  0.00    +0.093 C 
ATOM     13  N   UNL     1      -3.438  -0.282  24.630  0.00  0.00    -0.280 N 
ATOM     14  C   UNL     1      -4.256  -0.340  24.728  0.00  0.00    +0.093 C 
ATOM     15  C   UNL     1      -4.706   0.341  24.850  0.00  0.00    +0.022 C 
ATOM     16  C   UNL     1      -4.339   1.079  24.874  0.00  0.00    +0.015 C 
ATOM     21  C   UNL     1      -2.988  -0.962  24.508  0.00  0.00    +0.225 C 
ATOM     22  O   UNL     1      -2.170  -0.904  24.411  0.00  0.00    -0.275 OA
ENDROOT
BRANCH  21  23
ATOM     23  C   UNL     1      -3.355  -1.701  24.484  0.00  0.00    +0.077 C 
ATOM     24  C   UNL     1      -3.346  -2.267  25.084  0.00  0.00    +0.009 C 
ATOM     25  C   UNL     1      -3.780  -2.919  24.826  0.00  0.00    +0.001 C 
ATOM     26  C   UNL     1      -4.058  -2.755  24.067  0.00  0.00    +0.001 C 
ATOM     27  C   UNL     1      -3.796  -2.003  23.856  0.00  0.00    +0.009 C 
ENDBRANCH  21  23
BRANCH  11  10
ATOM     10  C   UNL     1      -3.155   1.876  24.802  0.00  0.00    +0.019 C 
BRANCH  10   9
ATOM      9  C   UNL     1      -2.392   1.948  25.106  0.00  0.00    +0.072 C 
BRANCH   9   8
ATOM      1  C   UNL     1      -0.504   5.526  24.679  0.00  0.00    +0.095 C 
ATOM      2  C   UNL     1      -1.184   5.191  25.005  0.00  0.00    +0.226 C 
ATOM      3  O   UNL     1      -1.729   5.666  25.401  0.00  0.00    -0.275 OA
ATOM      4  N   UNL     1      -1.318   4.380  24.935  0.00  0.00    -0.278 N 
ATOM      5  C   UNL     1      -0.739   3.955  24.529  0.00  0.00    +0.095 C 
ATOM      6  C   UNL     1      -0.712   3.146  24.367  0.00  0.00    +0.039 C 
ATOM      7  C   UNL     1      -1.257   2.563  24.572  0.00  0.00    +0.074 C 
ATOM      8  N   UNL     1      -1.965   2.643  24.989  0.00  0.00    -0.271 NA
ATOM     28  C   UNL     1      -2.301   3.328  25.304  0.00  0.00    +0.094 C 
ATOM     29  C   UNL     1      -2.013   4.100  25.280  0.00  0.00    +0.111 C 
ENDBRANCH   9   8
ENDBRANCH  10   9
ENDBRANCH  11  10
BRANCH  16  17
ATOM     17  C   UNL     1      -4.790   1.759  24.996  0.00  0.00    +0.114 C 
BRANCH  17  18
ATOM     18  C   UNL     1      -5.587   1.696  25.198  0.00  0.00    +0.365 C 
ATOM     19  O   UNL     1      -6.162   1.685  24.606  0.00  0.00    -0.246 OA
ATOM     20  O   UNL     1      -5.810   1.643  25.991  0.00  0.00    -0.246 OA
ENDBRANCH  17  18
ENDBRANCH  16  17
TORSDOF 6
ENDMDL
MODEL 2
REMARK VINA RESULT:     -10.9      1.097      5.202
REMARK  Name = 
REMARK  6 active torsions:
REMARK  status: ('A' for Active; 'I' for Inactive)
REMARK    1  A    between atoms: N_8  and  C_9
REMARK    2  A    between atoms: C_9  and  C_10
REMARK    3  A    between atoms: C_10  and  C_11
REMARK    4  A    between atoms: C_16  and  C_17
REMARK    5  A    between atoms: C_17  and  C_18
REMARK    6  A    between atoms: C_21  and  C_23
REMARK                            x       y       z     vdW  Elec       q    Type
REMARK                         _______ _______ _______ _____ _____    ______ ____
ROOT
ATOM     11  C   UNL     1      -3.560   2.075  24.870  0.00  0.00    +0.022 C 
ATOM     12  C   UNL     1      -2.768   2.289  24.775  0.00  0.00    +0.093 C 
ATOM     13  N   UNL     1      -2.541   3.076  24.872  0.00  0.00    -0.280 N 
ATOM     14  C   UNL     1      -3.104   3.649  25.062  0.00  0.00    +0.093 C 
ATOM     15  C   UNL     1      -3.895   3.433  25.156  0.00  0.00    +0.022 C 
ATOM     16  C   UNL     1      -4.122   2.646  25.060  0.00  0.00    +0.015 C 
ATOM     21  C   UNL     1      -1.750   3.292  24.778  0.00  0.00    +0.225 C 
ATOM     22  O   UNL     1      -1.186   2.719  24.587  0.00  0.00    -0.275 OA
ENDROOT
BRANCH  21  23
ATOM     23  C   UNL     1      -1.522   4.079  24.874  0.00  0.00    +0.077 C 
ATOM     24  C   UNL     1      -1.660   4.546  25.541  0.00  0.00    +0.009 C 
ATOM     25  C   UNL     1      -1.340   5.292  25.399  0.00  0.00    +0.001 C 
ATOM     26  C   UNL     1      -1.004   5.287  24.646  0.00  0.00    +0.001 C 
ATOM     27  C   UNL     1      -1.117   4.538  24.321  0.00  0.00    +0.009 C 
ENDBRANCH  21  23
BRANCH  11  10
ATOM     10  C   UNL     1      -3.787   1.288  24.773  0.00  0.00    +0.019 C 
BRANCH  10   9
ATOM      9  C   UNL     1      -3.411   0.815  24.212  0.00  0.00    +0.072 C 
BRANCH   9   8
ATOM      1  C   UNL     1      -3.403  -3.242  24.527  0.00  0.00    +0.095 C 
ATOM      2  C   UNL     1      -2.909  -2.586  24.619  0.00  0.00    +0.226 C 
ATOM      3  O   UNL     1      -2.126  -2.691  24.853  0.00  0.00    -0.275 OA
ATOM      4  N   UNL     1      -3.200  -1.828  24.477  0.00  0.00    -0.278 N 
ATOM      5  C   UNL     1      -3.991  -1.785  24.246  0.00  0.00    +0.095 C 
ATOM      6  C   UNL     1      -4.439  -1.116  24.065  0.00  0.00    +0.039 C 
ATOM      7  C   UNL     1      -4.206  -0.325  24.071  0.00  0.00    +0.074 C 
ATOM      8  N   UNL     1      -3.469  -0.007  24.259  0.00  0.00    -0.271 NA
ATOM     28  C   UNL     1      -2.781  -0.402  24.487  0.00  0.00    +0.094 C 
ATOM     29  C   UNL     1      -2.662  -1.212  24.584  0.00  0.00    +0.111 C 
ENDBRANCH   9   8
ENDBRANCH  10   9
ENDBRANCH  11  10
BRANCH  16  17
ATOM     17  C   UNL     1      -4.914   2.432  25.154  0.00  0.00    +0.114 C 
BRANCH  17  18
ATOM     18  C   UNL     1      -5.421   2.908  25.597  0.00  0.00    +0.365 C 
ATOM     19  O   UNL     1      -5.794   3.553  25.243  0.00  0.00    -0.246 OA
ATOM     20  O   UNL     1      -5.555   2.740  26.393  0.00  0.00    -0.246 OA
ENDBRANCH  17  18
ENDBRANCH  16  17
TORSDOF 6
ENDMDL
MODEL 3
REMARK VINA RESULT:     -10.6      1.392      2.805
REMARK  Name = 
REMARK  6 active torsions:
REMARK  status: ('A' for Active; 'I' for Inactive)
REMARK    1  A    between atoms: N_8  and  C_9
REMARK    2  A    between atoms: C_9  and  C_10
REMARK    3  A    between atoms: C_10  and  C_11
REMARK    4  A    between atoms: C_16  and  C_17
REMARK    5  A    between atoms: C_17  and  C_18
REMARK    6  A    between atoms: C_21  and  C_23
REMARK                            x       y       z     vdW  Elec       q    Type
REMARK                         _______ _______ _______ _____ _____    ______ ____
ROOT
ATOM     11  C   UNL     1      -1.728   0.487  24.646  0.00  0.00    +0.022 C 
ATOM     12  C   UNL     1      -2.484   0.192  24.794  0.00  0.00    +0.093 C 
ATOM     13  N   UNL     1      -2.648  -0.606  24.667  0.00  0.00    -0.280 N 
ATOM     14  C   UNL     1      -2.054  -1.111  24.392  0.00  0.00    +0.093 C 
ATOM     15  C   UNL     1      -1.299  -0.815  24.245  0.00  0.00    +0.022 C 
ATOM     16  C   UNL     1      -1.135  -0.017  24.372  0.00  0.00    +0.015 C 
ATOM     21  C   UNL     1      -3.404  -0.902  24.815  0.00  0.00    +0.225 C 
ATOM     22  O   UNL     1      -3.997  -0.398  25.090  0.00  0.00    -0.275 OA
ENDROOT
BRANCH  21  23
ATOM     23  C   UNL     1      -3.567  -1.701  24.688  0.00  0.00    +0.077 C 
ATOM     24  C   UNL     1      -3.941  -2.020  24.025  0.00  0.00    +0.009 C 
ATOM     25  C   UNL     1      -3.990  -2.836  24.129  0.00  0.00    +0.001 C 
ATOM     26  C   UNL     1      -3.647  -3.022  24.856  0.00  0.00    +0.001 C 
ATOM     27  C   UNL     1      -3.385  -2.320  25.201  0.00  0.00    +0.009 C 
ENDBRANCH  21  23
BRANCH  11  10
ATOM     10  C   UNL     1      -1.564   1.285  24.773  0.00  0.00    +0.019 C 
BRANCH  10   9
ATOM      9  C   UNL     1      -2.036   1.727  25.286  0.00  0.00    +0.072 C 
BRANCH   9   8
ATOM      1  C   UNL     1      -1.705   5.775  25.055  0.00  0.00    +0.095 C 
ATOM      2  C   UNL     1      -1.247   5.089  25.038  0.00  0.00    +0.226 C 
ATOM      3  O   UNL     1      -0.429   5.141  24.946  0.00  0.00    -0.275 OA
ATOM      4  N   UNL     1      -1.608   4.351  25.113  0.00  0.00    -0.278 N 
ATOM      5  C   UNL     1      -2.428   4.361  25.202  0.00  0.00    +0.095 C 
ATOM      6  C   UNL     1      -2.944   3.722  25.289  0.00  0.00    +0.039 C 
ATOM      7  C   UNL     1      -2.767   2.917  25.309  0.00  0.00    +0.074 C 
ATOM      8  N   UNL     1      -2.030   2.551  25.246  0.00  0.00    -0.271 NA
ATOM     28  C   UNL     1      -1.288   2.899  25.147  0.00  0.00    +0.094 C 
ATOM     29  C   UNL     1      -1.101   3.700  25.089  0.00  0.00    +0.111 C 
ENDBRANCH   9   8
ENDBRANCH  10   9
ENDBRANCH  11  10
BRANCH  16  17
ATOM     17  C   UNL     1      -0.379   0.278  24.224  0.00  0.00    +0.114 C 
BRANCH  17  18
ATOM     18  C   UNL     1       0.163  -0.173  23.796  0.00  0.00    +0.365 C 
ATOM     19  O   UNL     1       0.560  -0.797  24.162  0.00  0.00    -0.246 OA
ATOM     20  O   UNL     1       0.310  -0.000  23.003  0.00  0.00    -0.246 OA
ENDBRANCH  17  18
ENDBRANCH  16  17
TORSDOF 6
ENDMDL
MODEL 4
REMARK VINA RESULT:      -9.8      2.093      3.916
REMARK  Name = 
REMARK  6 active torsions:
REMARK  status: ('A' for Active; 'I' for Inactive)
REMARK    1  A    between atoms: N_8  and  C_9
REMARK    2  A    between atoms: C_9  and  C_10
REMARK    3  A    between atoms: C_10  and  C_11
REMARK    4  A    between atoms: C_16  and  C_17
REMARK    5  A    between atoms: C_17  and  C_18
REMARK    6  A    between atoms: C_21  and  C_23
REMARK                            x       y       z     vdW  Elec       q    Type
REMARK                         _______ _______ _______ _____ _____    ______ ____
ROOT
ATOM     11  C   UNL     1      -2.848   0.126  24.588  0.00  0.00    +0.022 C 
ATOM     12  C   UNL     1      -3.149   0.891  24.665  0.00  0.00    +0.093 C 
ATOM     13  N   UNL     1      -3.944   1.004  24.854  0.00  0.00    -0.280 N 
ATOM     14  C   UNL     1      -4.438   0.352  24.967  0.00  0.00    +0.093 C 
ATOM     15  C   UNL     1      -4.137  -0.412  24.890  0.00  0.00    +0.022 C 
ATOM     16  C   UNL     1      -3.342  -0.525  24.701  0.00  0.00    +0.015 C 
ATOM     21  C   UNL     1      -4.246   1.768  24.931  0.00  0.00    +0.225 C 
ATOM     22  O   UNL     1      -3.751   2.419  24.818  0.00  0.00    -0.275 OA
ENDROOT
BRANCH  21  23
ATOM     23  C   UNL     1      -5.041   1.881  25.120  0.00  0.00    +0.077 C 
ATOM     24  C   UNL     1      -5.344   2.024  25.874  0.00  0.00    +0.009 C 
ATOM     25  C   UNL     1      -6.162   2.102  25.808  0.00  0.00    +0.001 C 
ATOM     26  C   UNL     1      -6.365   2.007  25.014  0.00  0.00    +0.001 C 
ATOM     27  C   UNL     1      -5.672   1.870  24.589  0.00  0.00    +0.009 C 
ENDBRANCH  21  23
BRANCH  11  10
ATOM     10  C   UNL     1      -2.053   0.013  24.399  0.00  0.00    +0.019 C 
BRANCH  10   9
ATOM      9  C   UNL     1      -1.472   0.461  24.776  0.00  0.00    +0.072 C 
BRANCH   9   8
ATOM      1  C   UNL     1       2.129   0.696  22.896  0.00  0.00    +0.095 C 
ATOM      2  C   UNL     1       1.490   0.185  23.004  0.00  0.00    +0.226 C 
ATOM      3  O   UNL     1       1.492  -0.558  22.647  0.00  0.00    -0.275 OA
ATOM      4  N   UNL     1       0.850   0.418  23.470  0.00  0.00    -0.278 N 
ATOM      5  C   UNL     1       0.904   1.171  23.802  0.00  0.00    +0.095 C 
ATOM      6  C   UNL     1       0.362   1.559  24.288  0.00  0.00    +0.039 C 
ATOM      7  C   UNL     1      -0.367   1.289  24.562  0.00  0.00    +0.074 C 
ATOM      8  N   UNL     1      -0.735   0.565  24.418  0.00  0.00    -0.271 NA
ATOM     28  C   UNL     1      -0.464  -0.069  23.964  0.00  0.00    +0.094 C 
ATOM     29  C   UNL     1       0.241  -0.134  23.543  0.00  0.00    +0.111 C 
ENDBRANCH   9   8
ENDBRANCH  10   9
ENDBRANCH  11  10
BRANCH  16  17
ATOM     17  C   UNL     1      -3.041  -1.289  24.624  0.00  0.00    +0.114 C 
BRANCH  17  18
ATOM     18  C   UNL     1      -3.545  -1.939  24.683  0.00  0.00    +0.365 C 
ATOM     19  O   UNL     1      -3.974  -2.189  24.024  0.00  0.00    -0.246 OA
ATOM     20  O   UNL     1      -3.621  -2.340  25.400  0.00  0.00    -0.246 OA
ENDBRANCH  17  18
ENDBRANCH  16  17
TORSDOF 6
ENDMDL
MODEL 5
REMARK VINA RESULT:      -9.1      1.537      5.847
REMARK  Name = 
REMARK  6 active torsions:
REMARK  status: ('A' for Active; 'I' for Inactive)
REMARK    1  A    between atoms: N_8  and  C_9
REMARK    2  A    between atoms: C_9  and  C_10
REMARK    3  A    between atoms: C_10  and  C_11
REMARK    4  A    between atoms: C_16  and  C_17
REMARK    5  A    between atoms: C_17  and  C_18
REMARK    6  A    between atoms: C_21  and  C_23
REMARK                            x       y       z     vdW  Elec       q    Type
REMARK                         _______ _______ _______ _____ _____    ______ ____
ROOT
ATOM     11  C   UNL     1      -1.593   1.332  24.783  0.00  0.00    +0.022 C 
ATOM     12  C   UNL     1      -2.067   1.981  24.970  0.00  0.00    +0.093 C 
ATOM     13  N   UNL     1      -1.761   2.745  24.910  0.00  0.00    -0.280 N 
ATOM     14  C   UNL     1      -0.982   2.859  24.662  0.00  0.00    +0.093 C 
ATOM     15  C   UNL     1      -0.510   2.209  24.475  0.00  0.00    +0.022 C 
ATOM     16  C   UNL     1      -0.815   1.446  24.536  0.00  0.00    +0.015 C 
ATOM     21  C   UNL     1      -2.234   3.395  25.097  0.00  0.00    +0.225 C 
ATOM     22  O   UNL     1      -3.013   3.280  25.344  0.00  0.00    -0.275 OA
ENDROOT
BRANCH  21  23
ATOM     23  C   UNL     1      -1.928   4.159  25.036  0.00  0.00    +0.077 C 
ATOM     24  C   UNL     1      -1.456   4.538  25.597  0.00  0.00    +0.009 C 
ATOM     25  C   UNL     1      -1.277   5.291  25.312  0.00  0.00    +0.001 C 
ATOM     26  C   UNL     1      -1.638   5.376  24.575  0.00  0.00    +0.001 C 
ATOM     27  C   UNL     1      -2.040   4.677  24.404  0.00  0.00    +0.009 C 
ENDBRANCH  21  23
BRANCH  11  10
ATOM     10  C   UNL     1      -1.899   0.568  24.844  0.00  0.00    +0.019 C 
BRANCH  10   9
ATOM      9  C   UNL     1      -2.707   0.455  24.968  0.00  0.00    +0.072 C 
BRANCH   9   8
ATOM      1  C   UNL     1      -4.300  -3.164  24.010  0.00  0.00    +0.095 C 
ATOM      2  C   UNL     1      -3.736  -2.818  24.503  0.00  0.00    +0.226 C 
ATOM      3  O   UNL     1      -3.291  -3.288  25.014  0.00  0.00    -0.275 OA
ATOM      4  N   UNL     1      -3.617  -2.002  24.484  0.00  0.00    -0.278 N 
ATOM      5  C   UNL     1      -4.090  -1.583  23.954  0.00  0.00    +0.095 C 
ATOM      6  C   UNL     1      -4.104  -0.771  23.806  0.00  0.00    +0.039 C 
ATOM      7  C   UNL     1      -3.648  -0.178  24.153  0.00  0.00    +0.074 C 
ATOM      8  N   UNL     1      -3.066  -0.250  24.733  0.00  0.00    -0.271 NA
ATOM     28  C   UNL     1      -2.796  -0.933  25.110  0.00  0.00    +0.094 C 
ATOM     29  C   UNL     1      -3.041  -1.712  24.999  0.00  0.00    +0.111 C 
ENDBRANCH   9   8
ENDBRANCH  10   9
ENDBRANCH  11  10
BRANCH  16  17
ATOM     17  C   UNL     1      -0.342   0.796  24.349  0.00  0.00    +0.114 C 
BRANCH  17  18
ATOM     18  C   UNL     1       0.283   0.880  23.818  0.00  0.00    +0.365 C 
ATOM     19  O   UNL     1       0.982   1.246  24.058  0.00  0.00    -0.246 OA
ATOM     20  O   UNL     1       0.210   0.599  23.045  0.00  0.00    -0.246 OA
ENDBRANCH  17  18
ENDBRANCH  16  17
TORSDOF 6
ENDMDL
MODEL 6
REMARK VINA RESULT:      -9.0      2.000      3.172
REMARK  Name = 
REMARK  6 active torsions:
REMARK  status: ('A' for Active; 'I' for Inactive)
REMARK    1  A    between atoms: N_8  and  C_9
REMARK    2  A    between atoms: C_9  and  C_10
REMARK    3  A    between atoms: C_10  and  C_11
REMARK    4  A    between atoms: C_16  and  C_17
REMARK    5  A    between atoms: C_17  and  C_18
REMARK    6  A    between atoms: C_21  and  C_23
REMARK                            x       y       z     vdW  Elec       q    Type
REMARK                         _______ _______ _______ _____ _____    ______ ____
ROOT
ATOM     11  C   UNL     1      -2.780   0.599  24.465  0.00  0.00    +0.022 C 
ATOM     12  C   UNL     1      -3.393   0.047  24.466  0.00  0.00    +0.093 C 
ATOM     13  N   UNL     1      -3.221  -0.759  24.485  0.00  0.00    -0.280 N 
ATOM     14  C   UNL     1      -2.435  -1.014  24.502  0.00  0.00    +0.093 C 
ATOM     15  C   UNL     1      -1.823  -0.461  24.501  0.00  0.00    +0.022 C 
ATOM     16  C   UNL     1      -1.996   0.346  24.482  0.00  0.00    +0.015 C 
ATOM     21  C   UNL     1      -3.833  -1.313  24.486  0.00  0.00    +0.225 C 
ATOM     22  O   UNL     1      -4.618  -1.058  24.468  0.00  0.00    -0.275 OA
ENDROOT
BRANCH  21  23
ATOM     23  C   UNL     1      -3.660  -2.119  24.504  0.00  0.00    +0.077 C 
ATOM     24  C   UNL     1      -3.700  -2.639  23.864  0.00  0.00    +0.009 C 
ATOM     25  C   UNL     1      -3.482  -3.388  24.130  0.00  0.00    +0.001 C 
ATOM     26  C   UNL     1      -3.308  -3.332  24.935  0.00  0.00    +0.001 C 
ATOM     27  C   UNL     1      -3.418  -2.548  25.166  0.00  0.00    +0.009 C 
ENDBRANCH  21  23
BRANCH  11  10
ATOM     10  C   UNL     1      -2.952   1.406  24.446  0.00  0.00    +0.019 C 
BRANCH  10   9
ATOM      9  C   UNL     1      -3.654   1.671  24.103  0.00  0.00    +0.072 C 
BRANCH   9   8
ATOM      1  C   UNL     1      -5.612   4.924  25.564  0.00  0.00    +0.095 C 
ATOM      2  C   UNL     1      -5.646   4.099  25.558  0.00  0.00    +0.226 C 
ATOM      3  O   UNL     1      -6.251   3.710  25.960  0.00  0.00    -0.275 OA
ATOM      4  N   UNL     1      -5.075   3.666  25.150  0.00  0.00    -0.278 N 
ATOM      5  C   UNL     1      -4.495   4.110  24.767  0.00  0.00    +0.095 C 
ATOM      6  C   UNL     1      -3.856   3.843  24.318  0.00  0.00    +0.039 C 
ATOM      7  C   UNL     1      -3.640   3.067  24.142  0.00  0.00    +0.074 C 
ATOM      8  N   UNL     1      -4.009   2.366  24.371  0.00  0.00    -0.271 NA
ATOM     28  C   UNL     1      -4.686   2.267  24.833  0.00  0.00    +0.094 C 
ATOM     29  C   UNL     1      -5.160   2.846  25.179  0.00  0.00    +0.111 C 
ENDBRANCH   9   8
ENDBRANCH  10   9
ENDBRANCH  11  10
BRANCH  16  17
ATOM     17  C   UNL     1      -1.383   0.898  24.481  0.00  0.00    +0.114 C 
BRANCH  17  18
ATOM     18  C   UNL     1      -0.604   0.652  24.596  0.00  0.00    +0.365 C 
ATOM     19  O   UNL     1      -0.296   0.603  25.360  0.00  0.00    -0.246 OA
ATOM     20  O   UNL     1      -0.133   0.454  23.948  0.00  0.00    -0.246 OA
ENDBRANCH  17  18
ENDBRANCH  16  17
TORSDOF 6
ENDMDL
MODEL 7
REMARK VINA RESULT:      -8.9      2.218      4.025
REMARK  Name = 
REMARK  6 active torsions:
REMARK  status: ('A' for Active; 'I' for Inactive)
REMARK    1  A    between atoms: N_8  and  C_9
REMARK    2  A    between atoms: C_9  and  C_10
REMARK    3  A    between atoms: C_10  and  C_11
REMARK    4  A    between atoms: C_16  and  C_17
REMARK    5  A    between atoms: C_17  and  C_18
REMARK    6  A    between atoms: C_21  and  C_23
REMARK                            x       y       z     vdW  Elec       q    Type
REMARK                         _______ _______ _______ _____ _____    ______ ____
ROOT
ATOM     11  C   UNL     1      -2.129   2.258  24.750  0.00  0.00    +0.022 C 
ATOM     12  C   UNL     1      -2.752   1.724  24.658  0.00  0.00    +0.093 C 
ATOM     13  N   UNL     1      -3.516   1.942  24.879  0.00  0.00    -0.280 N 
ATOM     14  C   UNL     1      -3.658   2.694  25.191  0.00  0.00    +0.093 C 
ATOM     15  C   UNL     1      -3.034   3.226  25.281  0.00  0.00    +0.022 C 
ATOM     16  C   UNL     1      -2.270   3.008  25.061  0.00  0.00    +0.015 C 
ATOM     21  C   UNL     1      -4.140   1.410  24.788  0.00  0.00    +0.225 C 
ATOM     22  O   UNL     1      -3.998   0.659  24.476  0.00  0.00    -0.275 OA
ENDROOT
BRANCH  21  23
ATOM     23  C   UNL     1      -4.904   1.628  25.008  0.00  0.00    +0.077 C 
ATOM     24  C   UNL     1      -5.261   1.475  25.737  0.00  0.00    +0.009 C 
ATOM     25  C   UNL     1      -6.023   1.789  25.718  0.00  0.00    +0.001 C 
ATOM     26  C   UNL     1      -6.137   2.137  24.978  0.00  0.00    +0.001 C 
ATOM     27  C   UNL     1      -5.446   2.037  24.540  0.00  0.00    +0.009 C 
ENDBRANCH  21  23
BRANCH  11  10
ATOM     10  C   UNL     1      -1.364   2.040  24.529  0.00  0.00    +0.019 C 
BRANCH  10   9
ATOM      9  C   UNL     1      -1.084   1.284  24.702  0.00  0.00    +0.072 C 
BRANCH   9   8
ATOM      1  C   UNL     1       2.211   0.001  22.690  0.00  0.00    +0.095 C 
ATOM      2  C   UNL     1       1.936   0.637  23.139  0.00  0.00    +0.226 C 
ATOM      3  O   UNL     1       2.428   1.283  23.282  0.00  0.00    -0.275 OA
ATOM      4  N   UNL     1       1.170   0.626  23.443  0.00  0.00    -0.278 N 
ATOM      5  C   UNL     1       0.724  -0.046  23.267  0.00  0.00    +0.095 C 
ATOM      6  C   UNL     1      -0.052  -0.221  23.487  0.00  0.00    +0.039 C 
ATOM      7  C   UNL     1      -0.573   0.232  23.938  0.00  0.00    +0.074 C 
ATOM      8  N   UNL     1      -0.448   0.972  24.280  0.00  0.00    -0.271 NA
ATOM     28  C   UNL     1       0.230   1.443  24.255  0.00  0.00    +0.094 C 
ATOM     29  C   UNL     1       0.949   1.288  23.883  0.00  0.00    +0.111 C 
ENDBRANCH   9   8
ENDBRANCH  10   9
ENDBRANCH  11  10
BRANCH  16  17
ATOM     17  C   UNL     1      -1.647   3.542  25.152  0.00  0.00    +0.114 C 
BRANCH  17  18
ATOM     18  C   UNL     1      -1.802   4.331  25.331  0.00  0.00    +0.365 C 
ATOM     19  O   UNL     1      -2.046   4.542  26.091  0.00  0.00    -0.246 OA
ATOM     20  O   UNL     1      -1.714   4.911  24.751  0.00  0.00    -0.246 OA
ENDBRANCH  17  18
ENDBRANCH  16  17
TORSDOF 6
ENDMDL
