MODEL 1
REMARK VINA RESULT:      -9.5      0.000      0.000
REMARK  Name = 
REMARK  2 active torsions:
REMARK  status: ('A' for Active; 'I' for Inactive)
REMARK    1  A    between atoms: C_7  and  C_8
REMARK    2  A    between atoms: C_8  and  N_9
REMARK                            x       y       z     vdW  Elec       q    Type
REMARK                         _______ _______ _______ _____ _____    ______ ____
ROOT
ATOM      9  N   UNL     1      -4.154   0.751  24.491  0.00  0.00    -0.265 NA
ATOM     10  C   UNL     1      -3.553   1.317  24.492  0.00  0.00    +0.094 C 
ATOM     11  C   UNL     1      -3.694   2.068  24.799  0.00  0.00    +0.112 C 
ATOM     12  N   UNL     1      -4.437   2.256  25.106  0.00  0.00    -0.260 N 
ATOM     13  C   UNL     1      -5.038   1.691  25.106  0.00  0.00    +0.115 C 
ATOM     14  C   UNL     1      -5.708   2.032  25.443  0.00  0.00    +0.138 C 
ATOM     15  N   UNL     1      -5.523   2.808  25.652  0.00  0.00    -0.187 NA
ATOM     16  C   UNL     1      -4.737   2.946  25.444  0.00  0.00    +0.323 C 
ATOM     17  O   UNL     1      -4.323   3.651  25.553  0.00  0.00    -0.251 OA
ATOM     18  C   UNL     1      -4.896   0.938  24.798  0.00  0.00    +0.094 C 
ENDROOT
BRANCH   9   8
ATOM      8  C   UNL     1      -4.012  -0.002  24.184  0.00  0.00    +0.118 C 
BRANCH   8   7
ATOM      1  C   UNL     1      -4.271  -1.576  23.761  0.00  0.00    +0.032 C 
ATOM      2  C   UNL     1      -3.888  -1.396  24.469  0.00  0.00    -0.007 A 
ATOM      3  C   UNL     1      -3.634  -2.004  24.965  0.00  0.00    -0.001 A 
ATOM      4  C   UNL     1      -3.250  -1.825  25.674  0.00  0.00    +0.020 A 
ATOM      5  C   UNL     1      -3.121  -1.038  25.885  0.00  0.00    +0.098 A 
ATOM      6  N   UNL     1      -3.375  -0.430  25.388  0.00  0.00    -0.247 NA
ATOM      7  C   UNL     1      -3.758  -0.609  24.681  0.00  0.00    +0.071 A 
ENDBRANCH   8   7
ENDBRANCH   9   8
TORSDOF 2
ENDMDL
MODEL 2
REMARK VINA RESULT:      -8.9      1.752      3.836
REMARK  Name = 
REMARK  2 active torsions:
REMARK  status: ('A' for Active; 'I' for Inactive)
REMARK    1  A    between atoms: C_7  and  C_8
REMARK    2  A    between atoms: C_8  and  N_9
REMARK                            x       y       z     vdW  Elec       q    Type
REMARK                         _______ _______ _______ _____ _____    ______ ____
ROOT
ATOM      9  N   UNL     1      -3.704   0.173  24.459  0.00  0.00    -0.265 NA
ATOM     10  C   UNL     1      -3.362  -0.053  25.175  0.00  0.00    +0.094 C 
ATOM     11  C   UNL     1      -3.319  -0.851  25.377  0.00  0.00    +0.112 C 
ATOM     12  N   UNL     1      -3.616  -1.424  24.864  0.00  0.00    -0.260 N 
ATOM     13  C   UNL     1      -3.958  -1.198  24.148  0.00  0.00    +0.115 C 
ATOM     14  C   UNL     1      -4.203  -1.881  23.756  0.00  0.00    +0.138 C 
ATOM     15  N   UNL     1      -4.013  -2.529  24.229  0.00  0.00    -0.187 NA
ATOM     16  C   UNL     1      -3.651  -2.246  24.914  0.00  0.00    +0.323 C 
ATOM     17  O   UNL     1      -3.371  -2.705  25.540  0.00  0.00    -0.251 OA
ATOM     18  C   UNL     1      -4.002  -0.399  23.945  0.00  0.00    +0.094 C 
ENDROOT
BRANCH   9   8
ATOM      8  C   UNL     1      -3.748   0.972  24.256  0.00  0.00    +0.118 C 
BRANCH   8   7
ATOM      1  C   UNL     1      -3.735   2.599  23.980  0.00  0.00    +0.032 C 
ATOM      2  C   UNL     1      -4.322   2.265  24.453  0.00  0.00    -0.007 A 
ATOM      3  C   UNL     1      -4.903   2.745  24.789  0.00  0.00    -0.001 A 
ATOM      4  C   UNL     1      -5.491   2.412  25.263  0.00  0.00    +0.020 A 
ATOM      5  C   UNL     1      -5.496   1.598  25.401  0.00  0.00    +0.098 A 
ATOM      6  N   UNL     1      -4.915   1.119  25.065  0.00  0.00    -0.247 NA
ATOM      7  C   UNL     1      -4.329   1.452  24.591  0.00  0.00    +0.071 A 
ENDBRANCH   8   7
ENDBRANCH   9   8
TORSDOF 2
ENDMDL
MODEL 3
REMARK VINA RESULT:      -8.9      2.738      3.769
REMARK  Name = 
REMARK  2 active torsions:
REMARK  status: ('A' for Active; 'I' for Inactive)
REMARK    1  A    between atoms: C_7  and  C_8
REMARK    2  A    between atoms: C_8  and  N_9
REMARK                            x       y       z     vdW  Elec       q    Type
REMARK                         _______ _______ _______ _____ _____    ______ ____
ROOT
ATOM      9  N   UNL     1      -3.454   3.427  24.761  0.00  0.00    -0.265 NA
ATOM     10  C   UNL     1      -3.651   2.878  24.178  0.00  0.00    +0.094 C 
ATOM     11  C   UNL     1      -4.353   2.449  24.236  0.00  0.00    +0.112 C 
ATOM     12  N   UNL     1      -4.859   2.569  24.876  0.00  0.00    -0.260 N 
ATOM     13  C   UNL     1      -4.662   3.118  25.460  0.00  0.00    +0.115 C 
ATOM     14  C   UNL     1      -5.263   3.118  26.023  0.00  0.00    +0.138 C 
ATOM     15  N   UNL     1      -5.832   2.569  25.789  0.00  0.00    -0.187 NA
ATOM     16  C   UNL     1      -5.582   2.230  25.080  0.00  0.00    +0.323 C 
ATOM     17  O   UNL     1      -5.984   1.652  24.650  0.00  0.00    -0.251 OA
ATOM     18  C   UNL     1      -3.959   3.548  25.402  0.00  0.00    +0.094 C 
ENDROOT
BRANCH   9   8
ATOM      8  C   UNL     1      -2.751   3.857  24.703  0.00  0.00    +0.118 C 
BRANCH   8   7
ATOM      1  C   UNL     1      -1.519   4.868  25.129  0.00  0.00    +0.032 C 
ATOM      2  C   UNL     1      -1.436   4.053  25.225  0.00  0.00    -0.007 A 
ATOM      3  C   UNL     1      -0.736   3.744  25.534  0.00  0.00    -0.001 A 
ATOM      4  C   UNL     1      -0.653   2.928  25.630  0.00  0.00    +0.020 A 
ATOM      5  C   UNL     1      -1.269   2.423  25.417  0.00  0.00    +0.098 A 
ATOM      6  N   UNL     1      -1.969   2.733  25.108  0.00  0.00    -0.247 NA
ATOM      7  C   UNL     1      -2.052   3.547  25.012  0.00  0.00    +0.071 A 
ENDBRANCH   8   7
ENDBRANCH   9   8
TORSDOF 2
ENDMDL
MODEL 4
REMARK VINA RESULT:      -8.7      2.511      3.549
REMARK  Name = 
REMARK  2 active torsions:
REMARK  status: ('A' for Active; 'I' for Inactive)
REMARK    1  A    between atoms: C_7  and  C_8
REMARK    2  A    between atoms: C_8  and  N_9
REMARK                            x       y       z     vdW  Elec       q    Type
REMARK                         _______ _______ _______ _____ _____    ______ ____
ROOT
ATOM      9  N   UNL     1      -1.542  -0.545  25.028  0.00  0.00    -0.265 NA
ATOM     10  C   UNL     1      -1.560   0.032  25.617  0.00  0.00    +0.094 C 
ATOM     11  C   UNL     1      -1.084   0.702  25.553  0.00  0.00    +0.112 C 
ATOM     12  N   UNL     1      -0.589   0.796  24.899  0.00  0.00    -0.260 N 
ATOM     13  C   UNL     1      -0.571   0.219  24.310  0.00  0.00    +0.115 C 
ATOM     14  C   UNL     1      -0.033   0.460  23.733  0.00  0.00    +0.138 C 
ATOM     15  N   UNL     1       0.282   1.186  23.966  0.00  0.00    -0.187 NA
ATOM     16  C   UNL     1      -0.062   1.393  24.686  0.00  0.00    +0.323 C 
ATOM     17  O   UNL     1       0.094   2.078  25.119  0.00  0.00    -0.251 OA
ATOM     18  C   UNL     1      -1.048  -0.452  24.374  0.00  0.00    +0.094 C 
ENDROOT
BRANCH   9   8
ATOM      8  C   UNL     1      -2.018  -1.216  25.092  0.00  0.00    +0.118 C 
BRANCH   8   7
ATOM      1  C   UNL     1      -2.714  -2.642  24.639  0.00  0.00    +0.032 C 
ATOM      2  C   UNL     1      -3.121  -1.933  24.534  0.00  0.00    -0.007 A 
ATOM      3  C   UNL     1      -3.876  -1.936  24.202  0.00  0.00    -0.001 A 
ATOM      4  C   UNL     1      -4.284  -1.226  24.096  0.00  0.00    +0.020 A 
ATOM      5  C   UNL     1      -3.935  -0.513  24.323  0.00  0.00    +0.098 A 
ATOM      6  N   UNL     1      -3.180  -0.510  24.655  0.00  0.00    -0.247 NA
ATOM      7  C   UNL     1      -2.773  -1.219  24.760  0.00  0.00    +0.071 A 
ENDBRANCH   8   7
ENDBRANCH   9   8
TORSDOF 2
ENDMDL
MODEL 5
REMARK VINA RESULT:      -8.3      2.177      3.844
REMARK  Name = 
REMARK  2 active torsions:
REMARK  status: ('A' for Active; 'I' for Inactive)
REMARK    1  A    between atoms: C_7  and  C_8
REMARK    2  A    between atoms: C_8  and  N_9
REMARK                            x       y       z     vdW  Elec       q    Type
REMARK                         _______ _______ _______ _____ _____    ______ ____
ROOT
ATOM      9  N   UNL     1      -3.167   1.352  24.212  0.00  0.00    -0.265 NA
ATOM     10  C   UNL     1      -2.713   1.610  23.573  0.00  0.00    +0.094 C 
ATOM     11  C   UNL     1      -1.911   1.425  23.536  0.00  0.00    +0.112 C 
ATOM     12  N   UNL     1      -1.560   0.981  24.137  0.00  0.00    -0.260 N 
ATOM     13  C   UNL     1      -2.014   0.723  24.776  0.00  0.00    +0.115 C 
ATOM     14  C   UNL     1      -1.522   0.298  25.283  0.00  0.00    +0.138 C 
ATOM     15  N   UNL     1      -0.764   0.294  24.958  0.00  0.00    -0.187 NA
ATOM     16  C   UNL     1      -0.789   0.716  24.250  0.00  0.00    +0.323 C 
ATOM     17  O   UNL     1      -0.151   0.849  23.743  0.00  0.00    -0.251 OA
ATOM     18  C   UNL     1      -2.818   0.909  24.813  0.00  0.00    +0.094 C 
ENDROOT
BRANCH   9   8
ATOM      8  C   UNL     1      -3.970   1.538  24.249  0.00  0.00    +0.118 C 
BRANCH   8   7
ATOM      1  C   UNL     1      -5.439   1.591  24.999  0.00  0.00    +0.032 C 
ATOM      2  C   UNL     1      -4.952   2.256  24.999  0.00  0.00    -0.007 A 
ATOM      3  C   UNL     1      -5.198   2.948  25.374  0.00  0.00    -0.001 A 
ATOM      4  C   UNL     1      -4.710   3.614  25.374  0.00  0.00    +0.020 A 
ATOM      5  C   UNL     1      -3.976   3.587  25.000  0.00  0.00    +0.098 A 
ATOM      6  N   UNL     1      -3.729   2.895  24.625  0.00  0.00    -0.247 NA
ATOM      7  C   UNL     1      -4.217   2.230  24.624  0.00  0.00    +0.071 A 
ENDBRANCH   8   7
ENDBRANCH   9   8
TORSDOF 2
ENDMDL
