MODEL 1
REMARK VINA RESULT:     -13.4      0.000      0.000
REMARK  Name = 
REMARK  6 active torsions:
REMARK  status: ('A' for Active; 'I' for Inactive)
REMARK    1  A    between atoms: C_2  and  C_3
REMARK    2  A    between atoms: C_2  and  C_25
REMARK    3  A    between atoms: C_10  and  N_11
REMARK    4  A    between atoms: C_12  and  C_14
REMARK    5  A    between atoms: N_27  and  C_29
REMARK    6  A    between atoms: C_29  and  C_30
REMARK                            x       y       z     vdW  Elec       q    Type
REMARK                         _______ _______ _______ _____ _____    ______ ____
ROOT
ATOM      3  C   UNL     1      -4.512   2.894  24.881  0.00  0.00    +0.039 C 
ATOM      4  C   UNL     1      -5.190   2.850  25.351  0.00  0.00    +0.003 C 
ATOM      5  C   UNL     1      -5.514   2.116  25.538  0.00  0.00    +0.000 C 
ATOM      6  C   UNL     1      -5.162   1.426  25.257  0.00  0.00    +0.002 C 
ATOM      7  C   UNL     1      -5.839   1.382  25.725  0.00  0.00    +0.000 C 
ATOM      8  C   UNL     1      -5.486   0.690  25.444  0.00  0.00    +0.002 C 
ATOM      9  C   UNL     1      -5.134  -0.000  25.164  0.00  0.00    +0.022 C 
ATOM     10  C   UNL     1      -4.455   0.044  24.694  0.00  0.00    +0.095 C 
ATOM     20  C   UNL     1      -4.131   0.778  24.507  0.00  0.00    +0.022 C 
ATOM     21  C   UNL     1      -3.454   0.823  24.039  0.00  0.00    +0.002 C 
ATOM     22  C   UNL     1      -4.483   1.470  24.788  0.00  0.00    +0.032 C 
ATOM     23  C   UNL     1      -4.159   2.204  24.601  0.00  0.00    +0.152 C 
ATOM     24  O   UNL     1      -3.482   2.248  24.132  0.00  0.00    -0.223 OA
ENDROOT
BRANCH  10  11
ATOM     11  N   UNL     1      -4.103  -0.647  24.414  0.00  0.00    -0.207 NA
ATOM     12  C   UNL     1      -3.836  -1.219  24.944  0.00  0.00    +0.241 C 
ATOM     13  O   UNL     1      -3.921  -1.101  25.757  0.00  0.00    -0.273 OA
BRANCH  12  14
ATOM     14  C   UNL     1      -3.484  -1.911  24.663  0.00  0.00    +0.078 C 
ATOM     15  C   UNL     1      -3.935  -2.470  24.260  0.00  0.00    +0.009 C 
ATOM     16  C   UNL     1      -3.583  -3.161  23.979  0.00  0.00    +0.000 C 
ATOM     17  C   UNL     1      -2.778  -3.293  24.102  0.00  0.00    +0.000 C 
ATOM     18  C   UNL     1      -2.325  -2.732  24.505  0.00  0.00    +0.000 C 
ATOM     19  C   UNL     1      -2.678  -2.042  24.786  0.00  0.00    +0.009 C 
ENDBRANCH  12  14
ENDBRANCH  10  11
BRANCH   3   2
ATOM      1  C   UNL     1      -4.407   4.014  23.997  0.00  0.00    +0.010 C 
ATOM      2  C   UNL     1      -4.187   3.630  24.694  0.00  0.00    +0.079 C 
BRANCH   2  25
ATOM     25  C   UNL     1      -3.643   3.982  25.204  0.00  0.00    +0.226 C 
ATOM     26  O   UNL     1      -3.746   3.925  26.022  0.00  0.00    -0.275 OA
ATOM     27  N   UNL     1      -2.994   4.391  24.898  0.00  0.00    -0.274 N 
ATOM     28  C   UNL     1      -2.892   4.448  24.081  0.00  0.00    +0.115 C 
BRANCH  27  29
ATOM     29  C   UNL     1      -2.451   4.743  25.407  0.00  0.00    +0.120 C 
BRANCH  29  30
ATOM     30  C   UNL     1      -1.648   4.748  25.215  0.00  0.00    -0.002 A 
ATOM     31  C   UNL     1      -1.310   5.419  24.875  0.00  0.00    -0.003 A 
ATOM     32  C   UNL     1      -0.508   5.424  24.683  0.00  0.00    -0.000 A 
ATOM     33  C   UNL     1      -0.044   4.758  24.832  0.00  0.00    -0.000 A 
ATOM     34  C   UNL     1      -0.382   4.087  25.172  0.00  0.00    -0.000 A 
ATOM     35  C   UNL     1      -1.185   4.082  25.364  0.00  0.00    -0.003 A 
ENDBRANCH  29  30
ENDBRANCH  27  29
ENDBRANCH   2  25
ENDBRANCH   3   2
TORSDOF 6
ENDMDL
MODEL 2
REMARK VINA RESULT:     -13.4      0.732      5.464
REMARK  Name = 
REMARK  6 active torsions:
REMARK  status: ('A' for Active; 'I' for Inactive)
REMARK    1  A    between atoms: C_2  and  C_3
REMARK    2  A    between atoms: C_2  and  C_25
REMARK    3  A    between atoms: C_10  and  N_11
REMARK    4  A    between atoms: C_12  and  C_14
REMARK    5  A    between atoms: N_27  and  C_29
REMARK    6  A    between atoms: C_29  and  C_30
REMARK                            x       y       z     vdW  Elec       q    Type
REMARK                         _______ _______ _______ _____ _____    ______ ____
ROOT
ATOM      3  C   UNL     1      -4.672   0.715  24.843  0.00  0.00    +0.039 C 
ATOM      4  C   UNL     1      -5.318   0.984  25.282  0.00  0.00    +0.003 C 
ATOM      5  C   UNL     1      -5.351   1.771  25.527  0.00  0.00    +0.000 C 
ATOM      6  C   UNL     1      -4.740   2.289  25.334  0.00  0.00    +0.002 C 
ATOM      7  C   UNL     1      -5.384   2.557  25.772  0.00  0.00    +0.000 C 
ATOM      8  C   UNL     1      -4.772   3.076  25.578  0.00  0.00    +0.002 C 
ATOM      9  C   UNL     1      -4.161   3.595  25.385  0.00  0.00    +0.022 C 
ATOM     10  C   UNL     1      -3.515   3.326  24.946  0.00  0.00    +0.095 C 
ATOM     20  C   UNL     1      -3.482   2.539  24.701  0.00  0.00    +0.022 C 
ATOM     21  C   UNL     1      -2.837   2.271  24.263  0.00  0.00    +0.002 C 
ATOM     22  C   UNL     1      -4.094   2.020  24.894  0.00  0.00    +0.032 C 
ATOM     23  C   UNL     1      -4.061   1.234  24.650  0.00  0.00    +0.152 C 
ATOM     24  O   UNL     1      -3.415   0.965  24.211  0.00  0.00    -0.223 OA
ENDROOT
BRANCH  10  11
ATOM     11  N   UNL     1      -2.903   3.845  24.753  0.00  0.00    -0.207 NA
ATOM     12  C   UNL     1      -2.443   4.181  25.349  0.00  0.00    +0.241 C 
ATOM     13  O   UNL     1      -2.594   3.998  26.140  0.00  0.00    -0.273 OA
BRANCH  12  14
ATOM     14  C   UNL     1      -1.832   4.700  25.155  0.00  0.00    +0.078 C 
ATOM     15  C   UNL     1      -1.982   5.508  25.086  0.00  0.00    +0.009 C 
ATOM     16  C   UNL     1      -1.370   6.027  24.893  0.00  0.00    +0.000 C 
ATOM     17  C   UNL     1      -0.608   5.737  24.769  0.00  0.00    +0.000 C 
ATOM     18  C   UNL     1      -0.457   4.928  24.838  0.00  0.00    +0.000 C 
ATOM     19  C   UNL     1      -1.069   4.410  25.032  0.00  0.00    +0.009 C 
ENDBRANCH  12  14
ENDBRANCH  10  11
BRANCH   3   2
ATOM      1  C   UNL     1      -5.000  -0.301  23.892  0.00  0.00    +0.010 C 
ATOM      2  C   UNL     1      -4.639  -0.072  24.598  0.00  0.00    +0.079 C 
BRANCH   2  25
ATOM     25  C   UNL     1      -4.245  -0.631  25.060  0.00  0.00    +0.226 C 
ATOM     26  O   UNL     1      -4.163  -0.511  25.873  0.00  0.00    -0.275 OA
ATOM     27  N   UNL     1      -3.933  -1.310  24.710  0.00  0.00    -0.274 N 
ATOM     28  C   UNL     1      -4.016  -1.430  23.898  0.00  0.00    +0.115 C 
BRANCH  27  29
ATOM     29  C   UNL     1      -3.540  -1.869  25.171  0.00  0.00    +0.120 C 
BRANCH  29  30
ATOM     30  C   UNL     1      -2.800  -2.150  24.938  0.00  0.00    -0.002 A 
ATOM     31  C   UNL     1      -2.746  -2.786  24.415  0.00  0.00    -0.003 A 
ATOM     32  C   UNL     1      -2.007  -3.066  24.183  0.00  0.00    -0.000 A 
ATOM     33  C   UNL     1      -1.320  -2.711  24.472  0.00  0.00    -0.000 A 
ATOM     34  C   UNL     1      -1.375  -2.075  24.995  0.00  0.00    -0.000 A 
ATOM     35  C   UNL     1      -2.115  -1.794  25.228  0.00  0.00    -0.003 A 
ENDBRANCH  29  30
ENDBRANCH  27  29
ENDBRANCH   2  25
ENDBRANCH   3   2
TORSDOF 6
ENDMDL
MODEL 3
REMARK VINA RESULT:     -11.6      3.352      4.998
REMARK  Name = 
REMARK  6 active torsions:
REMARK  status: ('A' for Active; 'I' for Inactive)
REMARK    1  A    between atoms: C_2  and  C_3
REMARK    2  A    between atoms: C_2  and  C_25
REMARK    3  A    between atoms: C_10  and  N_11
REMARK    4  A    between atoms: C_12  and  C_14
REMARK    5  A    between atoms: N_27  and  C_29
REMARK    6  A    between atoms: C_29  and  C_30
REMARK                            x       y       z     vdW  Elec       q    Type
REMARK                         _______ _______ _______ _____ _____    ______ ____
ROOT
ATOM      3  C   UNL     1      -1.792   2.142  24.872  0.00  0.00    +0.039 C 
ATOM      4  C   UNL     1      -2.124   1.404  25.033  0.00  0.00    +0.003 C 
ATOM      5  C   UNL     1      -1.697   0.716  24.875  0.00  0.00    +0.000 C 
ATOM      6  C   UNL     1      -0.939   0.766  24.557  0.00  0.00    +0.002 C 
ATOM      7  C   UNL     1      -1.270   0.029  24.718  0.00  0.00    +0.000 C 
ATOM      8  C   UNL     1      -0.511   0.078  24.399  0.00  0.00    +0.002 C 
ATOM      9  C   UNL     1       0.248   0.128  24.080  0.00  0.00    +0.022 C 
ATOM     10  C   UNL     1       0.580   0.866  23.919  0.00  0.00    +0.095 C 
ATOM     20  C   UNL     1       0.153   1.554  24.076  0.00  0.00    +0.022 C 
ATOM     21  C   UNL     1       0.485   2.292  23.915  0.00  0.00    +0.002 C 
ATOM     22  C   UNL     1      -0.606   1.505  24.395  0.00  0.00    +0.032 C 
ATOM     23  C   UNL     1      -1.033   2.192  24.553  0.00  0.00    +0.152 C 
ATOM     24  O   UNL     1      -0.701   2.930  24.392  0.00  0.00    -0.223 OA
ENDROOT
BRANCH  10  11
ATOM     11  N   UNL     1       1.340   0.916  23.599  0.00  0.00    -0.207 NA
ATOM     12  C   UNL     1       1.611   0.330  23.087  0.00  0.00    +0.241 C 
ATOM     13  O   UNL     1       1.122  -0.307  22.892  0.00  0.00    -0.273 OA
BRANCH  12  14
ATOM     14  C   UNL     1       2.370   0.379  22.768  0.00  0.00    +0.078 C 
ATOM     15  C   UNL     1       2.977   0.734  23.199  0.00  0.00    +0.009 C 
ATOM     16  C   UNL     1       3.737   0.783  22.880  0.00  0.00    +0.000 C 
ATOM     17  C   UNL     1       3.888   0.477  22.129  0.00  0.00    +0.000 C 
ATOM     18  C   UNL     1       3.281   0.121  21.697  0.00  0.00    +0.000 C 
ATOM     19  C   UNL     1       2.522   0.073  22.017  0.00  0.00    +0.009 C 
ENDBRANCH  12  14
ENDBRANCH  10  11
BRANCH   3   2
ATOM      1  C   UNL     1      -1.914   3.398  25.546  0.00  0.00    +0.010 C 
ATOM      2  C   UNL     1      -2.219   2.830  25.030  0.00  0.00    +0.079 C 
BRANCH   2  25
ATOM     25  C   UNL     1      -2.953   2.950  24.672  0.00  0.00    +0.226 C 
ATOM     26  O   UNL     1      -3.028   2.888  23.852  0.00  0.00    -0.275 OA
ATOM     27  N   UNL     1      -3.613   3.133  25.134  0.00  0.00    -0.274 N 
ATOM     28  C   UNL     1      -3.538   3.194  25.953  0.00  0.00    +0.115 C 
BRANCH  27  29
ATOM     29  C   UNL     1      -4.345   3.253  24.777  0.00  0.00    +0.120 C 
BRANCH  29  30
ATOM     30  C   UNL     1      -5.012   2.857  25.059  0.00  0.00    -0.002 A 
ATOM     31  C   UNL     1      -5.383   3.113  25.750  0.00  0.00    -0.003 A 
ATOM     32  C   UNL     1      -6.049   2.718  26.031  0.00  0.00    -0.000 A 
ATOM     33  C   UNL     1      -6.346   2.066  25.622  0.00  0.00    -0.000 A 
ATOM     34  C   UNL     1      -5.976   1.810  24.930  0.00  0.00    -0.000 A 
ATOM     35  C   UNL     1      -5.308   2.206  24.649  0.00  0.00    -0.003 A 
ENDBRANCH  29  30
ENDBRANCH  27  29
ENDBRANCH   2  25
ENDBRANCH   3   2
TORSDOF 6
ENDMDL
MODEL 4
REMARK VINA RESULT:     -11.5      3.624      5.170
REMARK  Name = 
REMARK  6 active torsions:
REMARK  status: ('A' for Active; 'I' for Inactive)
REMARK    1  A    between atoms: C_2  and  C_3
REMARK    2  A    between atoms: C_2  and  C_25
REMARK    3  A    between atoms: C_10  and  N_11
REMARK    4  A    between atoms: C_12  and  C_14
REMARK    5  A    between atoms: N_27  and  C_29
REMARK    6  A    between atoms: C_29  and  C_30
REMARK                            x       y       z     vdW  Elec       q    Type
REMARK                         _______ _______ _______ _____ _____    ______ ____
ROOT
ATOM      3  C   UNL     1      -0.174   0.448  23.935  0.00  0.00    +0.039 C 
ATOM      4  C   UNL     1      -0.171  -0.340  24.183  0.00  0.00    +0.003 C 
ATOM      5  C   UNL     1      -0.868  -0.692  24.446  0.00  0.00    +0.000 C 
ATOM      6  C   UNL     1      -1.568  -0.258  24.462  0.00  0.00    +0.002 C 
ATOM      7  C   UNL     1      -1.565  -1.044  24.710  0.00  0.00    +0.000 C 
ATOM      8  C   UNL     1      -2.267  -0.610  24.726  0.00  0.00    +0.002 C 
ATOM      9  C   UNL     1      -2.967  -0.175  24.742  0.00  0.00    +0.022 C 
ATOM     10  C   UNL     1      -2.971   0.612  24.494  0.00  0.00    +0.095 C 
ATOM     20  C   UNL     1      -2.273   0.964  24.231  0.00  0.00    +0.022 C 
ATOM     21  C   UNL     1      -2.276   1.751  23.983  0.00  0.00    +0.002 C 
ATOM     22  C   UNL     1      -1.572   0.530  24.214  0.00  0.00    +0.032 C 
ATOM     23  C   UNL     1      -0.874   0.882  23.951  0.00  0.00    +0.152 C 
ATOM     24  O   UNL     1      -0.877   1.669  23.703  0.00  0.00    -0.223 OA
ENDROOT
BRANCH  10  11
ATOM     11  N   UNL     1      -3.672   1.047  24.510  0.00  0.00    -0.207 NA
ATOM     12  C   UNL     1      -4.231   0.907  25.100  0.00  0.00    +0.241 C 
ATOM     13  O   UNL     1      -4.089   0.331  25.675  0.00  0.00    -0.273 OA
BRANCH  12  14
ATOM     14  C   UNL     1      -4.932   1.341  25.116  0.00  0.00    +0.078 C 
ATOM     15  C   UNL     1      -5.617   1.032  24.777  0.00  0.00    +0.009 C 
ATOM     16  C   UNL     1      -6.319   1.466  24.793  0.00  0.00    +0.000 C 
ATOM     17  C   UNL     1      -6.335   2.210  25.149  0.00  0.00    +0.000 C 
ATOM     18  C   UNL     1      -5.649   2.520  25.490  0.00  0.00    +0.000 C 
ATOM     19  C   UNL     1      -4.948   2.085  25.473  0.00  0.00    +0.009 C 
ENDBRANCH  12  14
ENDBRANCH  10  11
BRANCH   3   2
ATOM      1  C   UNL     1       0.712   1.570  23.901  0.00  0.00    +0.010 C 
ATOM      2  C   UNL     1       0.525   0.800  23.671  0.00  0.00    +0.079 C 
BRANCH   2  25
ATOM     25  C   UNL     1       1.036   0.381  23.178  0.00  0.00    +0.226 C 
ATOM     26  O   UNL     1       0.743  -0.222  22.696  0.00  0.00    -0.275 OA
ATOM     27  N   UNL     1       1.841   0.564  23.167  0.00  0.00    -0.274 N 
ATOM     28  C   UNL     1       2.133   1.166  23.649  0.00  0.00    +0.115 C 
BRANCH  27  29
ATOM     29  C   UNL     1       2.352   0.145  22.674  0.00  0.00    +0.120 C 
BRANCH  29  30
ATOM     30  C   UNL     1       3.166   0.164  22.811  0.00  0.00    -0.002 A 
ATOM     31  C   UNL     1       3.618   0.793  22.528  0.00  0.00    -0.003 A 
ATOM     32  C   UNL     1       4.431   0.811  22.666  0.00  0.00    -0.000 A 
ATOM     33  C   UNL     1       4.792   0.199  23.086  0.00  0.00    -0.000 A 
ATOM     34  C   UNL     1       4.340  -0.430  23.369  0.00  0.00    -0.000 A 
ATOM     35  C   UNL     1       3.526  -0.448  23.231  0.00  0.00    -0.003 A 
ENDBRANCH  29  30
ENDBRANCH  27  29
ENDBRANCH   2  25
ENDBRANCH   3   2
TORSDOF 6
ENDMDL
MODEL 5
REMARK VINA RESULT:     -11.2      2.306      6.555
REMARK  Name = 
REMARK  6 active torsions:
REMARK  status: ('A' for Active; 'I' for Inactive)
REMARK    1  A    between atoms: C_2  and  C_3
REMARK    2  A    between atoms: C_2  and  C_25
REMARK    3  A    between atoms: C_10  and  N_11
REMARK    4  A    between atoms: C_12  and  C_14
REMARK    5  A    between atoms: N_27  and  C_29
REMARK    6  A    between atoms: C_29  and  C_30
REMARK                            x       y       z     vdW  Elec       q    Type
REMARK                         _______ _______ _______ _____ _____    ______ ____
ROOT
ATOM      3  C   UNL     1      -0.485  -0.648  24.762  0.00  0.00    +0.039 C 
ATOM      4  C   UNL     1       0.079  -0.677  24.160  0.00  0.00    +0.003 C 
ATOM      5  C   UNL     1       0.383   0.021  23.846  0.00  0.00    +0.000 C 
ATOM      6  C   UNL     1       0.126   0.750  24.134  0.00  0.00    +0.002 C 
ATOM      7  C   UNL     1       0.688   0.720  23.532  0.00  0.00    +0.000 C 
ATOM      8  C   UNL     1       0.430   1.449  23.820  0.00  0.00    +0.002 C 
ATOM      9  C   UNL     1       0.172   2.178  24.107  0.00  0.00    +0.022 C 
ATOM     10  C   UNL     1      -0.392   2.207  24.710  0.00  0.00    +0.095 C 
ATOM     20  C   UNL     1      -0.696   1.508  25.024  0.00  0.00    +0.022 C 
ATOM     21  C   UNL     1      -1.259   1.538  25.626  0.00  0.00    +0.002 C 
ATOM     22  C   UNL     1      -0.438   0.779  24.736  0.00  0.00    +0.032 C 
ATOM     23  C   UNL     1      -0.743   0.080  25.050  0.00  0.00    +0.152 C 
ATOM     24  O   UNL     1      -1.306   0.110  25.652  0.00  0.00    -0.223 OA
ENDROOT
BRANCH  10  11
ATOM     11  N   UNL     1      -0.649   2.936  24.998  0.00  0.00    -0.207 NA
ATOM     12  C   UNL     1      -0.982   3.488  24.484  0.00  0.00    +0.241 C 
ATOM     13  O   UNL     1      -1.058   3.312  23.681  0.00  0.00    -0.273 OA
BRANCH  12  14
ATOM     14  C   UNL     1      -1.240   4.218  24.772  0.00  0.00    +0.078 C 
ATOM     15  C   UNL     1      -0.765   4.886  24.688  0.00  0.00    +0.009 C 
ATOM     16  C   UNL     1      -1.022   5.615  24.976  0.00  0.00    +0.000 C 
ATOM     17  C   UNL     1      -1.757   5.675  25.347  0.00  0.00    +0.000 C 
ATOM     18  C   UNL     1      -2.233   5.006  25.431  0.00  0.00    +0.000 C 
ATOM     19  C   UNL     1      -1.974   4.278  25.143  0.00  0.00    +0.009 C 
ENDBRANCH  12  14
ENDBRANCH  10  11
BRANCH   3   2
ATOM      1  C   UNL     1      -0.674  -1.529  25.873  0.00  0.00    +0.010 C 
ATOM      2  C   UNL     1      -0.790  -1.348  25.076  0.00  0.00    +0.079 C 
BRANCH   2  25
ATOM     25  C   UNL     1      -1.211  -1.867  24.593  0.00  0.00    +0.226 C 
ATOM     26  O   UNL     1      -0.879  -2.134  23.886  0.00  0.00    -0.275 OA
ATOM     27  N   UNL     1      -1.965  -2.119  24.816  0.00  0.00    -0.274 N 
ATOM     28  C   UNL     1      -2.297  -1.851  25.522  0.00  0.00    +0.115 C 
BRANCH  27  29
ATOM     29  C   UNL     1      -2.386  -2.637  24.333  0.00  0.00    +0.120 C 
BRANCH  29  30
ATOM     30  C   UNL     1      -3.182  -2.495  24.169  0.00  0.00    -0.002 A 
ATOM     31  C   UNL     1      -3.421  -1.757  23.889  0.00  0.00    -0.003 A 
ATOM     32  C   UNL     1      -4.216  -1.616  23.726  0.00  0.00    -0.000 A 
ATOM     33  C   UNL     1      -4.774  -2.212  23.843  0.00  0.00    -0.000 A 
ATOM     34  C   UNL     1      -4.536  -2.951  24.123  0.00  0.00    -0.000 A 
ATOM     35  C   UNL     1      -3.739  -3.092  24.287  0.00  0.00    -0.003 A 
ENDBRANCH  29  30
ENDBRANCH  27  29
ENDBRANCH   2  25
ENDBRANCH   3   2
TORSDOF 6
ENDMDL
MODEL 6
REMARK VINA RESULT:     -10.6      2.077      3.567
REMARK  Name = 
REMARK  6 active torsions:
REMARK  status: ('A' for Active; 'I' for Inactive)
REMARK    1  A    between atoms: C_2  and  C_3
REMARK    2  A    between atoms: C_2  and  C_25
REMARK    3  A    between atoms: C_10  and  N_11
REMARK    4  A    between atoms: C_12  and  C_14
REMARK    5  A    between atoms: N_27  and  C_29
REMARK    6  A    between atoms: C_29  and  C_30
REMARK                            x       y       z     vdW  Elec       q    Type
REMARK                         _______ _______ _______ _____ _____    ______ ____
ROOT
ATOM      3  C   UNL     1      -0.178   1.924  25.050  0.00  0.00    +0.039 C 
ATOM      4  C   UNL     1       0.385   1.837  24.453  0.00  0.00    +0.003 C 
ATOM      5  C   UNL     1       0.425   1.136  24.022  0.00  0.00    +0.000 C 
ATOM      6  C   UNL     1      -0.097   0.520  24.187  0.00  0.00    +0.002 C 
ATOM      7  C   UNL     1       0.465   0.434  23.591  0.00  0.00    +0.000 C 
ATOM      8  C   UNL     1      -0.057  -0.183  23.757  0.00  0.00    +0.002 C 
ATOM      9  C   UNL     1      -0.580  -0.799  23.922  0.00  0.00    +0.022 C 
ATOM     10  C   UNL     1      -1.144  -0.713  24.519  0.00  0.00    +0.095 C 
ATOM     20  C   UNL     1      -1.184  -0.011  24.950  0.00  0.00    +0.022 C 
ATOM     21  C   UNL     1      -1.747   0.075  25.547  0.00  0.00    +0.002 C 
ATOM     22  C   UNL     1      -0.661   0.606  24.785  0.00  0.00    +0.032 C 
ATOM     23  C   UNL     1      -0.701   1.308  25.215  0.00  0.00    +0.152 C 
ATOM     24  O   UNL     1      -1.264   1.394  25.812  0.00  0.00    -0.223 OA
ENDROOT
BRANCH  10  11
ATOM     11  N   UNL     1      -1.667  -1.329  24.685  0.00  0.00    -0.207 NA
ATOM     12  C   UNL     1      -2.266  -1.517  24.150  0.00  0.00    +0.241 C 
ATOM     13  O   UNL     1      -2.343  -1.088  23.449  0.00  0.00    -0.273 OA
BRANCH  12  14
ATOM     14  C   UNL     1      -2.789  -2.134  24.316  0.00  0.00    +0.078 C 
ATOM     15  C   UNL     1      -2.520  -2.810  24.703  0.00  0.00    +0.009 C 
ATOM     16  C   UNL     1      -3.043  -3.426  24.869  0.00  0.00    +0.000 C 
ATOM     17  C   UNL     1      -3.835  -3.366  24.645  0.00  0.00    +0.000 C 
ATOM     18  C   UNL     1      -4.104  -2.689  24.257  0.00  0.00    +0.000 C 
ATOM     19  C   UNL     1      -3.580  -2.073  24.092  0.00  0.00    +0.009 C 
ENDBRANCH  12  14
ENDBRANCH  10  11
BRANCH   3   2
ATOM      1  C   UNL     1       0.185   2.695  26.198  0.00  0.00    +0.010 C 
ATOM      2  C   UNL     1      -0.218   2.626  25.481  0.00  0.00    +0.079 C 
BRANCH   2  25
ATOM     25  C   UNL     1      -0.661   3.261  25.194  0.00  0.00    +0.226 C 
ATOM     26  O   UNL     1      -0.547   3.528  24.422  0.00  0.00    -0.275 OA
ATOM     27  N   UNL     1      -1.218   3.628  25.680  0.00  0.00    -0.274 N 
ATOM     28  C   UNL     1      -1.332   3.360  26.452  0.00  0.00    +0.115 C 
BRANCH  27  29
ATOM     29  C   UNL     1      -1.661   4.261  25.394  0.00  0.00    +0.120 C 
BRANCH  29  30
ATOM     30  C   UNL     1      -2.485   4.221  25.389  0.00  0.00    -0.002 A 
ATOM     31  C   UNL     1      -2.905   4.271  26.097  0.00  0.00    -0.003 A 
ATOM     32  C   UNL     1      -3.729   4.230  26.091  0.00  0.00    -0.000 A 
ATOM     33  C   UNL     1      -4.133   4.140  25.378  0.00  0.00    -0.000 A 
ATOM     34  C   UNL     1      -3.712   4.090  24.669  0.00  0.00    -0.000 A 
ATOM     35  C   UNL     1      -2.888   4.130  24.675  0.00  0.00    -0.003 A 
ENDBRANCH  29  30
ENDBRANCH  27  29
ENDBRANCH   2  25
ENDBRANCH   3   2
TORSDOF 6
ENDMDL
MODEL 7
REMARK VINA RESULT:     -10.4      1.825      5.786
REMARK  Name = 
REMARK  6 active torsions:
REMARK  status: ('A' for Active; 'I' for Inactive)
REMARK    1  A    between atoms: C_2  and  C_3
REMARK    2  A    between atoms: C_2  and  C_25
REMARK    3  A    between atoms: C_10  and  N_11
REMARK    4  A    between atoms: C_12  and  C_14
REMARK    5  A    between atoms: N_27  and  C_29
REMARK    6  A    between atoms: C_29  and  C_30
REMARK                            x       y       z     vdW  Elec       q    Type
REMARK                         _______ _______ _______ _____ _____    ______ ____
ROOT
ATOM      3  C   UNL     1      -0.750   0.959  24.846  0.00  0.00    +0.039 C 
ATOM      4  C   UNL     1      -0.192   1.399  25.267  0.00  0.00    +0.003 C 
ATOM      5  C   UNL     1      -0.393   2.139  25.568  0.00  0.00    +0.000 C 
ATOM      6  C   UNL     1      -1.150   2.441  25.449  0.00  0.00    +0.002 C 
ATOM      7  C   UNL     1      -0.594   2.880  25.869  0.00  0.00    +0.000 C 
ATOM      8  C   UNL     1      -1.352   3.183  25.751  0.00  0.00    +0.002 C 
ATOM      9  C   UNL     1      -2.110   3.485  25.632  0.00  0.00    +0.022 C 
ATOM     10  C   UNL     1      -2.668   3.045  25.211  0.00  0.00    +0.095 C 
ATOM     20  C   UNL     1      -2.467   2.304  24.909  0.00  0.00    +0.022 C 
ATOM     21  C   UNL     1      -3.025   1.865  24.489  0.00  0.00    +0.002 C 
ATOM     22  C   UNL     1      -1.709   2.002  25.028  0.00  0.00    +0.032 C 
ATOM     23  C   UNL     1      -1.508   1.261  24.727  0.00  0.00    +0.152 C 
ATOM     24  O   UNL     1      -2.065   0.822  24.306  0.00  0.00    -0.223 OA
ENDROOT
BRANCH  10  11
ATOM     11  N   UNL     1      -3.427   3.348  25.092  0.00  0.00    -0.207 NA
ATOM     12  C   UNL     1      -3.894   3.556  25.738  0.00  0.00    +0.241 C 
ATOM     13  O   UNL     1      -3.603   3.462  26.506  0.00  0.00    -0.273 OA
BRANCH  12  14
ATOM     14  C   UNL     1      -4.652   3.859  25.620  0.00  0.00    +0.078 C 
ATOM     15  C   UNL     1      -4.753   4.647  25.400  0.00  0.00    +0.009 C 
ATOM     16  C   UNL     1      -5.511   4.949  25.281  0.00  0.00    +0.000 C 
ATOM     17  C   UNL     1      -6.169   4.463  25.383  0.00  0.00    +0.000 C 
ATOM     18  C   UNL     1      -6.069   3.673  25.603  0.00  0.00    +0.000 C 
ATOM     19  C   UNL     1      -5.311   3.372  25.721  0.00  0.00    +0.009 C 
ENDBRANCH  12  14
ENDBRANCH  10  11
BRANCH   3   2
ATOM      1  C   UNL     1      -0.153   0.158  23.822  0.00  0.00    +0.010 C 
ATOM      2  C   UNL     1      -0.548   0.218  24.544  0.00  0.00    +0.079 C 
BRANCH   2  25
ATOM     25  C   UNL     1      -0.742  -0.464  24.965  0.00  0.00    +0.226 C 
ATOM     26  O   UNL     1      -0.677  -0.474  25.788  0.00  0.00    -0.275 OA
ATOM     27  N   UNL     1      -1.000  -1.138  24.564  0.00  0.00    -0.274 N 
ATOM     28  C   UNL     1      -1.064  -1.128  23.742  0.00  0.00    +0.115 C 
BRANCH  27  29
ATOM     29  C   UNL     1      -1.193  -1.820  24.985  0.00  0.00    +0.120 C 
BRANCH  29  30
ATOM     30  C   UNL     1      -1.922  -2.187  24.864  0.00  0.00    -0.002 A 
ATOM     31  C   UNL     1      -2.020  -2.716  24.239  0.00  0.00    -0.003 A 
ATOM     32  C   UNL     1      -2.749  -3.082  24.120  0.00  0.00    -0.000 A 
ATOM     33  C   UNL     1      -3.381  -2.920  24.625  0.00  0.00    -0.000 A 
ATOM     34  C   UNL     1      -3.283  -2.391  25.250  0.00  0.00    -0.000 A 
ATOM     35  C   UNL     1      -2.553  -2.024  25.370  0.00  0.00    -0.003 A 
ENDBRANCH  29  30
ENDBRANCH  27  29
ENDBRANCH   2  25
ENDBRANCH   3   2
TORSDOF 6
ENDMDL
MODEL 8
REMARK VINA RESULT:     -10.3      2.901      4.637
REMARK  Name = 
REMARK  6 active torsions:
REMARK  status: ('A' for Active; 'I' for Inactive)
REMARK    1  A    between atoms: C_2  and  C_3
REMARK    2  A    between atoms: C_2  and  C_25
REMARK    3  A    between atoms: C_10  and  N_11
REMARK    4  A    between atoms: C_12  and  C_14
REMARK    5  A    between atoms: N_27  and  C_29
REMARK    6  A    between atoms: C_29  and  C_30
REMARK                            x       y       z     vdW  Elec       q    Type
REMARK                         _______ _______ _______ _____ _____    ______ ____
ROOT
ATOM      3  C   UNL     1      -3.114  -0.134  24.545  0.00  0.00    +0.039 C 
ATOM      4  C   UNL     1      -3.033  -0.777  25.057  0.00  0.00    +0.003 C 
ATOM      5  C   UNL     1      -2.286  -1.094  25.205  0.00  0.00    +0.000 C 
ATOM      6  C   UNL     1      -1.621  -0.769  24.843  0.00  0.00    +0.002 C 
ATOM      7  C   UNL     1      -1.540  -1.411  25.354  0.00  0.00    +0.000 C 
ATOM      8  C   UNL     1      -0.874  -1.086  24.991  0.00  0.00    +0.002 C 
ATOM      9  C   UNL     1      -0.208  -0.761  24.628  0.00  0.00    +0.022 C 
ATOM     10  C   UNL     1      -0.289  -0.118  24.116  0.00  0.00    +0.095 C 
ATOM     20  C   UNL     1      -1.036   0.198  23.968  0.00  0.00    +0.022 C 
ATOM     21  C   UNL     1      -1.117   0.840  23.456  0.00  0.00    +0.002 C 
ATOM     22  C   UNL     1      -1.702  -0.126  24.330  0.00  0.00    +0.032 C 
ATOM     23  C   UNL     1      -2.449   0.190  24.182  0.00  0.00    +0.152 C 
ATOM     24  O   UNL     1      -2.530   0.833  23.671  0.00  0.00    -0.223 OA
ENDROOT
BRANCH  10  11
ATOM     11  N   UNL     1       0.377   0.206  23.754  0.00  0.00    -0.207 NA
ATOM     12  C   UNL     1       0.961  -0.287  23.445  0.00  0.00    +0.241 C 
ATOM     13  O   UNL     1       0.879  -1.107  23.498  0.00  0.00    -0.273 OA
BRANCH  12  14
ATOM     14  C   UNL     1       1.627   0.037  23.082  0.00  0.00    +0.078 C 
ATOM     15  C   UNL     1       1.880  -0.249  22.352  0.00  0.00    +0.009 C 
ATOM     16  C   UNL     1       2.547   0.076  21.989  0.00  0.00    +0.000 C 
ATOM     17  C   UNL     1       2.960   0.687  22.358  0.00  0.00    +0.000 C 
ATOM     18  C   UNL     1       2.706   0.974  23.090  0.00  0.00    +0.000 C 
ATOM     19  C   UNL     1       2.040   0.649  23.451  0.00  0.00    +0.009 C 
ENDBRANCH  12  14
ENDBRANCH  10  11
BRANCH   3   2
ATOM      1  C   UNL     1      -4.185   0.143  23.638  0.00  0.00    +0.010 C 
ATOM      2  C   UNL     1      -3.862   0.183  24.396  0.00  0.00    +0.079 C 
BRANCH   2  25
ATOM     25  C   UNL     1      -4.286   0.539  25.007  0.00  0.00    +0.226 C 
ATOM     26  O   UNL     1      -4.358   0.159  25.737  0.00  0.00    -0.275 OA
ATOM     27  N   UNL     1      -4.641   1.275  24.889  0.00  0.00    -0.274 N 
ATOM     28  C   UNL     1      -4.569   1.654  24.160  0.00  0.00    +0.115 C 
BRANCH  27  29
ATOM     29  C   UNL     1      -5.065   1.631  25.499  0.00  0.00    +0.120 C 
BRANCH  29  30
ATOM     30  C   UNL     1      -5.098   2.454  25.554  0.00  0.00    -0.002 A 
ATOM     31  C   UNL     1      -4.423   2.882  25.755  0.00  0.00    -0.003 A 
ATOM     32  C   UNL     1      -4.457   3.704  25.809  0.00  0.00    -0.000 A 
ATOM     33  C   UNL     1      -5.167   4.099  25.663  0.00  0.00    -0.000 A 
ATOM     34  C   UNL     1      -5.843   3.670  25.462  0.00  0.00    -0.000 A 
ATOM     35  C   UNL     1      -5.809   2.847  25.407  0.00  0.00    -0.003 A 
ENDBRANCH  29  30
ENDBRANCH  27  29
ENDBRANCH   2  25
ENDBRANCH   3   2
TORSDOF 6
ENDMDL
