MODEL 1
REMARK VINA RESULT:     -10.7      0.000      0.000
REMARK  Name = 
REMARK  9 active torsions:
REMARK  status: ('A' for Active; 'I' for Inactive)
REMARK    1  A    between atoms: S_2  and  C_3
REMARK    2  A    between atoms: C_3  and  C_4
REMARK    3  A    between atoms: C_8  and  N_28
REMARK    4  A    between atoms: C_10  and  C_11
REMARK    5  A    between atoms: N_13  and  C_14
REMARK    6  A    between atoms: C_14  and  C_15
REMARK    7  A    between atoms: C_14  and  C_25
REMARK    8  A    between atoms: C_15  and  C_16
REMARK    9  A    between atoms: N_31  and  C_32
REMARK                            x       y       z     vdW  Elec       q    Type
REMARK                         _______ _______ _______ _____ _____    ______ ____
ROOT
ATOM      4  C   UNL     1       0.319   0.062  23.718  0.00  0.00    +0.237 C 
ATOM      5  O   UNL     1       0.552  -0.541  23.205  0.00  0.00    -0.274 OA
ATOM      6  N   UNL     1      -0.386  -0.006  24.140  0.00  0.00    -0.270 N 
ATOM      7  C   UNL     1      -0.913  -0.640  24.106  0.00  0.00    +0.116 C 
ATOM      8  C   UNL     1      -1.541  -0.478  24.616  0.00  0.00    +0.119 C 
ATOM      9  C   UNL     1      -1.402   0.257  24.965  0.00  0.00    +0.053 C 
ATOM     10  C   UNL     1      -0.689   0.548  24.671  0.00  0.00    +0.155 C 
ENDROOT
BRANCH   8  28
ATOM     28  N   UNL     1      -2.193  -0.965  24.753  0.00  0.00    -0.187 NA
ATOM     29  C   UNL     1      -2.386  -1.188  25.523  0.00  0.00    +0.344 C 
ATOM     30  O   UNL     1      -1.928  -0.925  26.157  0.00  0.00    -0.249 OA
ATOM     31  N   UNL     1      -3.039  -1.675  25.660  0.00  0.00    -0.159 NA
BRANCH  31  32
ATOM     32  C   UNL     1      -3.497  -1.938  25.027  0.00  0.00    +0.102 A 
ATOM     33  C   UNL     1      -3.502  -2.738  24.826  0.00  0.00    +0.158 A 
ATOM     34  F   UNL     1      -3.050  -3.275  25.258  0.00  0.00    -0.203 F 
ATOM     35  C   UNL     1      -3.961  -3.002  24.192  0.00  0.00    +0.061 A 
ATOM     36  C   UNL     1      -4.414  -2.464  23.760  0.00  0.00    +0.142 A 
ATOM     37  F   UNL     1      -4.872  -2.727  23.127  0.00  0.00    -0.204 F 
ATOM     38  C   UNL     1      -4.408  -1.665  23.961  0.00  0.00    +0.031 A 
ATOM     39  C   UNL     1      -3.949  -1.401  24.595  0.00  0.00    +0.021 A 
ENDBRANCH  31  32
ENDBRANCH   8  28
BRANCH  10  11
ATOM     11  C   UNL     1      -0.339   1.268  24.872  0.00  0.00    +0.260 C 
ATOM     12  O   UNL     1       0.290   1.560  24.426  0.00  0.00    -0.272 OA
ATOM     13  N   UNL     1      -0.619   1.696  25.520  0.00  0.00    -0.196 NA
BRANCH  13  14
ATOM     14  C   UNL     1      -0.269   2.415  25.721  0.00  0.00    +0.179 C 
BRANCH  14  25
ATOM     25  C   UNL     1       0.242   2.458  26.367  0.00  0.00    +0.281 C 
ATOM     26  N   UNL     1       0.014   2.148  27.096  0.00  0.00    -0.086 NA
ATOM     27  O   UNL     1       0.983   2.813  26.283  0.00  0.00    -0.270 OA
ENDBRANCH  14  25
BRANCH  14  15
ATOM     15  C   UNL     1      -0.430   3.091  25.276  0.00  0.00    +0.059 C 
BRANCH  15  16
ATOM     16  C   UNL     1      -1.096   3.547  25.444  0.00  0.00    +0.001 A 
ATOM     17  C   UNL     1      -1.760   3.298  25.866  0.00  0.00    +0.095 A 
ATOM     18  N   UNL     1      -2.290   3.929  25.903  0.00  0.00    -0.244 NA
ATOM     19  C   UNL     1      -1.954   4.568  25.504  0.00  0.00    +0.081 A 
ATOM     20  C   UNL     1      -1.216   4.331  25.220  0.00  0.00    +0.015 A 
ATOM     21  C   UNL     1      -0.749   4.862  24.794  0.00  0.00    +0.001 A 
ATOM     22  C   UNL     1      -1.019   5.628  24.652  0.00  0.00    +0.000 A 
ATOM     23  C   UNL     1      -1.757   5.864  24.936  0.00  0.00    +0.002 A 
ATOM     24  C   UNL     1      -2.225   5.335  25.361  0.00  0.00    +0.019 A 
ENDBRANCH  15  16
ENDBRANCH  14  15
ENDBRANCH  13  14
ENDBRANCH  10  11
BRANCH   4   3
ATOM      3  C   UNL     1       0.792   0.731  23.809  0.00  0.00    +0.143 C 
BRANCH   3   2
ATOM      1  C   UNL     1       2.171   0.871  23.461  0.00  0.00    +0.070 C 
ATOM      2  S   UNL     1       1.374   0.904  23.251  0.00  0.00    -0.130 S 
ENDBRANCH   3   2
ENDBRANCH   4   3
TORSDOF 9
ENDMDL
MODEL 2
REMARK VINA RESULT:     -10.1      2.485      5.472
REMARK  Name = 
REMARK  9 active torsions:
REMARK  status: ('A' for Active; 'I' for Inactive)
REMARK    1  A    between atoms: S_2  and  C_3
REMARK    2  A    between atoms: C_3  and  C_4
REMARK    3  A    between atoms: C_8  and  N_28
REMARK    4  A    between atoms: C_10  and  C_11
REMARK    5  A    between atoms: N_13  and  C_14
REMARK    6  A    between atoms: C_14  and  C_15
REMARK    7  A    between atoms: C_14  and  C_25
REMARK    8  A    between atoms: C_15  and  C_16
REMARK    9  A    between atoms: N_31  and  C_32
REMARK                            x       y       z     vdW  Elec       q    Type
REMARK                         _______ _______ _______ _____ _____    ______ ____
ROOT
ATOM      4  C   UNL     1      -0.651   2.759  25.004  0.00  0.00    +0.237 C 
ATOM      5  O   UNL     1      -0.052   3.306  25.160  0.00  0.00    -0.274 OA
ATOM      6  N   UNL     1      -0.481   2.071  24.584  0.00  0.00    -0.270 N 
ATOM      7  C   UNL     1       0.257   1.854  24.286  0.00  0.00    +0.116 C 
ATOM      8  C   UNL     1       0.175   1.126  23.905  0.00  0.00    +0.119 C 
ATOM      9  C   UNL     1      -0.614   0.893  23.968  0.00  0.00    +0.053 C 
ATOM     10  C   UNL     1      -1.019   1.477  24.388  0.00  0.00    +0.155 C 
ENDROOT
BRANCH   8  28
ATOM     28  N   UNL     1       0.776   0.705  23.528  0.00  0.00    -0.187 NA
ATOM     29  C   UNL     1       0.698  -0.107  23.407  0.00  0.00    +0.344 C 
ATOM     30  O   UNL     1       0.019  -0.499  23.664  0.00  0.00    -0.249 OA
ATOM     31  N   UNL     1       1.299  -0.528  23.030  0.00  0.00    -0.159 NA
BRANCH  31  32
ATOM     32  C   UNL     1       1.978  -0.136  22.774  0.00  0.00    +0.102 A 
ATOM     33  C   UNL     1       2.143  -0.082  21.967  0.00  0.00    +0.158 A 
ATOM     34  F   UNL     1       1.630  -0.419  21.417  0.00  0.00    -0.203 F 
ATOM     35  C   UNL     1       2.823   0.309  21.710  0.00  0.00    +0.061 A 
ATOM     36  C   UNL     1       3.337   0.647  22.261  0.00  0.00    +0.142 A 
ATOM     37  F   UNL     1       4.016   1.039  22.004  0.00  0.00    -0.204 F 
ATOM     38  C   UNL     1       3.172   0.593  23.066  0.00  0.00    +0.031 A 
ATOM     39  C   UNL     1       2.492   0.201  23.323  0.00  0.00    +0.021 A 
ENDBRANCH  31  32
ENDBRANCH   8  28
BRANCH  10  11
ATOM     11  C   UNL     1      -1.823   1.469  24.578  0.00  0.00    +0.260 C 
ATOM     12  O   UNL     1      -2.081   1.796  25.289  0.00  0.00    -0.272 OA
ATOM     13  N   UNL     1      -2.366   1.133  24.056  0.00  0.00    -0.196 NA
BRANCH  13  14
ATOM     14  C   UNL     1      -3.168   1.125  24.246  0.00  0.00    +0.179 C 
BRANCH  14  25
ATOM     25  C   UNL     1      -3.667   1.716  23.955  0.00  0.00    +0.281 C 
ATOM     26  N   UNL     1      -4.279   2.007  24.424  0.00  0.00    -0.086 NA
ATOM     27  O   UNL     1      -3.551   2.014  23.194  0.00  0.00    -0.270 OA
ENDBRANCH  14  25
BRANCH  14  15
ATOM     15  C   UNL     1      -3.473   0.527  24.726  0.00  0.00    +0.059 C 
BRANCH  15  16
ATOM     16  C   UNL     1      -3.647  -0.212  24.404  0.00  0.00    +0.001 A 
ATOM     17  C   UNL     1      -3.927  -0.356  23.641  0.00  0.00    +0.095 A 
ATOM     18  N   UNL     1      -4.024  -1.170  23.555  0.00  0.00    -0.244 NA
ATOM     19  C   UNL     1      -3.803  -1.530  24.263  0.00  0.00    +0.081 A 
ATOM     20  C   UNL     1      -3.570  -0.938  24.788  0.00  0.00    +0.015 A 
ATOM     21  C   UNL     1      -3.318  -1.137  25.548  0.00  0.00    +0.001 A 
ATOM     22  C   UNL     1      -3.298  -1.927  25.783  0.00  0.00    +0.000 A 
ATOM     23  C   UNL     1      -3.532  -2.519  25.258  0.00  0.00    +0.002 A 
ATOM     24  C   UNL     1      -3.784  -2.321  24.498  0.00  0.00    +0.019 A 
ENDBRANCH  15  16
ENDBRANCH  14  15
ENDBRANCH  13  14
ENDBRANCH  10  11
BRANCH   4   3
ATOM      3  C   UNL     1      -1.418   2.902  25.269  0.00  0.00    +0.143 C 
BRANCH   3   2
ATOM      1  C   UNL     1      -1.884   4.229  25.529  0.00  0.00    +0.070 C 
ATOM      2  S   UNL     1      -1.564   3.517  25.799  0.00  0.00    -0.130 S 
ENDBRANCH   3   2
ENDBRANCH   4   3
TORSDOF 9
ENDMDL
MODEL 3
REMARK VINA RESULT:      -9.9      2.625      4.832
REMARK  Name = 
REMARK  9 active torsions:
REMARK  status: ('A' for Active; 'I' for Inactive)
REMARK    1  A    between atoms: S_2  and  C_3
REMARK    2  A    between atoms: C_3  and  C_4
REMARK    3  A    between atoms: C_8  and  N_28
REMARK    4  A    between atoms: C_10  and  C_11
REMARK    5  A    between atoms: N_13  and  C_14
REMARK    6  A    between atoms: C_14  and  C_15
REMARK    7  A    between atoms: C_14  and  C_25
REMARK    8  A    between atoms: C_15  and  C_16
REMARK    9  A    between atoms: N_31  and  C_32
REMARK                            x       y       z     vdW  Elec       q    Type
REMARK                         _______ _______ _______ _____ _____    ______ ____
ROOT
ATOM      4  C   UNL     1      -0.657  -0.719  24.791  0.00  0.00    +0.237 C 
ATOM      5  O   UNL     1      -0.351  -1.363  25.207  0.00  0.00    -0.274 OA
ATOM      6  N   UNL     1      -0.185  -0.319  24.247  0.00  0.00    -0.270 N 
ATOM      7  C   UNL     1       0.599  -0.497  24.060  0.00  0.00    +0.116 C 
ATOM      8  C   UNL     1       0.855   0.042  23.490  0.00  0.00    +0.119 C 
ATOM      9  C   UNL     1       0.229   0.554  23.325  0.00  0.00    +0.053 C 
ATOM     10  C   UNL     1      -0.413   0.331  23.792  0.00  0.00    +0.155 C 
ENDROOT
BRANCH   8  28
ATOM     28  N   UNL     1       1.605   0.066  23.147  0.00  0.00    -0.187 NA
ATOM     29  C   UNL     1       1.714  -0.208  22.376  0.00  0.00    +0.344 C 
ATOM     30  O   UNL     1       1.073  -0.506  21.949  0.00  0.00    -0.249 OA
ATOM     31  N   UNL     1       2.464  -0.185  22.032  0.00  0.00    -0.159 NA
BRANCH  31  32
ATOM     32  C   UNL     1       3.104   0.112  22.459  0.00  0.00    +0.102 A 
ATOM     33  C   UNL     1       3.626  -0.406  22.833  0.00  0.00    +0.158 A 
ATOM     34  F   UNL     1       3.509  -1.220  22.780  0.00  0.00    -0.203 F 
ATOM     35  C   UNL     1       4.267  -0.109  23.260  0.00  0.00    +0.061 A 
ATOM     36  C   UNL     1       4.385   0.707  23.313  0.00  0.00    +0.142 A 
ATOM     37  F   UNL     1       5.025   1.004  23.740  0.00  0.00    -0.204 F 
ATOM     38  C   UNL     1       3.863   1.223  22.939  0.00  0.00    +0.031 A 
ATOM     39  C   UNL     1       3.222   0.926  22.512  0.00  0.00    +0.021 A 
ENDBRANCH  31  32
ENDBRANCH   8  28
BRANCH  10  11
ATOM     11  C   UNL     1      -1.154   0.694  23.803  0.00  0.00    +0.260 C 
ATOM     12  O   UNL     1      -1.833   0.242  23.928  0.00  0.00    -0.272 OA
ATOM     13  N   UNL     1      -1.216   1.509  23.689  0.00  0.00    -0.196 NA
BRANCH  13  14
ATOM     14  C   UNL     1      -1.957   1.871  23.700  0.00  0.00    +0.179 C 
BRANCH  14  25
ATOM     25  C   UNL     1      -2.417   1.889  23.015  0.00  0.00    +0.281 C 
ATOM     26  N   UNL     1      -3.201   1.637  23.037  0.00  0.00    -0.086 NA
ATOM     27  O   UNL     1      -2.090   2.161  22.307  0.00  0.00    -0.270 OA
ENDBRANCH  14  25
BRANCH  14  15
ATOM     15  C   UNL     1      -2.238   2.215  24.395  0.00  0.00    +0.059 C 
BRANCH  15  16
ATOM     16  C   UNL     1      -1.966   2.958  24.628  0.00  0.00    +0.001 A 
ATOM     17  C   UNL     1      -1.279   3.329  24.359  0.00  0.00    +0.095 A 
ATOM     18  N   UNL     1      -1.222   4.061  24.734  0.00  0.00    -0.244 NA
ATOM     19  C   UNL     1      -1.871   4.143  25.235  0.00  0.00    +0.081 A 
ATOM     20  C   UNL     1      -2.331   3.461  25.169  0.00  0.00    +0.015 A 
ATOM     21  C   UNL     1      -3.024   3.387  25.612  0.00  0.00    +0.001 A 
ATOM     22  C   UNL     1      -3.257   3.993  26.119  0.00  0.00    +0.000 A 
ATOM     23  C   UNL     1      -2.797   4.675  26.185  0.00  0.00    +0.002 A 
ATOM     24  C   UNL     1      -2.104   4.750  25.744  0.00  0.00    +0.019 A 
ENDBRANCH  15  16
ENDBRANCH  14  15
ENDBRANCH  13  14
ENDBRANCH  10  11
BRANCH   4   3
ATOM      3  C   UNL     1      -1.434  -0.477  24.921  0.00  0.00    +0.143 C 
BRANCH   3   2
ATOM      1  C   UNL     1      -2.569  -1.165  25.451  0.00  0.00    +0.070 C 
ATOM      2  S   UNL     1      -1.855  -0.767  25.567  0.00  0.00    -0.130 S 
ENDBRANCH   3   2
ENDBRANCH   4   3
TORSDOF 9
ENDMDL
MODEL 4
REMARK VINA RESULT:      -9.9      2.439      5.902
REMARK  Name = 
REMARK  9 active torsions:
REMARK  status: ('A' for Active; 'I' for Inactive)
REMARK    1  A    between atoms: S_2  and  C_3
REMARK    2  A    between atoms: C_3  and  C_4
REMARK    3  A    between atoms: C_8  and  N_28
REMARK    4  A    between atoms: C_10  and  C_11
REMARK    5  A    between atoms: N_13  and  C_14
REMARK    6  A    between atoms: C_14  and  C_15
REMARK    7  A    between atoms: C_14  and  C_25
REMARK    8  A    between atoms: C_15  and  C_16
REMARK    9  A    between atoms: N_31  and  C_32
REMARK                            x       y       z     vdW  Elec       q    Type
REMARK                         _______ _______ _______ _____ _____    ______ ____
ROOT
ATOM      4  C   UNL     1      -0.304   2.297  24.377  0.00  0.00    +0.237 C 
ATOM      5  O   UNL     1       0.004   3.055  24.266  0.00  0.00    -0.274 OA
ATOM      6  N   UNL     1       0.131   1.637  24.141  0.00  0.00    -0.270 N 
ATOM      7  C   UNL     1       0.877   1.648  23.790  0.00  0.00    +0.116 C 
ATOM      8  C   UNL     1       1.103   0.867  23.647  0.00  0.00    +0.119 C 
ATOM      9  C   UNL     1       0.496   0.374  23.911  0.00  0.00    +0.053 C 
ATOM     10  C   UNL     1      -0.105   0.850  24.216  0.00  0.00    +0.155 C 
ENDROOT
BRANCH   8  28
ATOM     28  N   UNL     1       1.812   0.623  23.302  0.00  0.00    -0.187 NA
ATOM     29  C   UNL     1       1.799   0.146  22.629  0.00  0.00    +0.344 C 
ATOM     30  O   UNL     1       1.079  -0.087  22.302  0.00  0.00    -0.249 OA
ATOM     31  N   UNL     1       2.508  -0.099  22.284  0.00  0.00    -0.159 NA
BRANCH  31  32
ATOM     32  C   UNL     1       3.228   0.134  22.612  0.00  0.00    +0.102 A 
ATOM     33  C   UNL     1       3.684  -0.409  23.034  0.00  0.00    +0.158 A 
ATOM     34  F   UNL     1       3.420  -1.184  23.129  0.00  0.00    -0.203 F 
ATOM     35  C   UNL     1       4.405  -0.177  23.362  0.00  0.00    +0.061 A 
ATOM     36  C   UNL     1       4.669   0.600  23.267  0.00  0.00    +0.142 A 
ATOM     37  F   UNL     1       5.389   0.832  23.595  0.00  0.00    -0.204 F 
ATOM     38  C   UNL     1       4.214   1.141  22.845  0.00  0.00    +0.031 A 
ATOM     39  C   UNL     1       3.493   0.909  22.517  0.00  0.00    +0.021 A 
ENDBRANCH  31  32
ENDBRANCH   8  28
BRANCH  10  11
ATOM     11  C   UNL     1      -0.816   0.585  24.539  0.00  0.00    +0.260 C 
ATOM     12  O   UNL     1      -1.491   1.057  24.493  0.00  0.00    -0.272 OA
ATOM     13  N   UNL     1      -0.853  -0.152  24.908  0.00  0.00    -0.196 NA
BRANCH  13  14
ATOM     14  C   UNL     1      -1.564  -0.417  25.231  0.00  0.00    +0.179 C 
BRANCH  14  25
ATOM     25  C   UNL     1      -1.646  -0.479  26.050  0.00  0.00    +0.281 C 
ATOM     26  N   UNL     1      -1.031  -0.785  26.505  0.00  0.00    -0.086 NA
ATOM     27  O   UNL     1      -2.347  -0.235  26.413  0.00  0.00    -0.270 OA
ENDBRANCH  14  25
BRANCH  14  15
ATOM     15  C   UNL     1      -2.192  -0.619  24.736  0.00  0.00    +0.059 C 
BRANCH  15  16
ATOM     16  C   UNL     1      -2.347  -1.411  24.567  0.00  0.00    +0.001 A 
ATOM     17  C   UNL     1      -1.810  -2.035  24.633  0.00  0.00    +0.095 A 
ATOM     18  N   UNL     1      -2.197  -2.728  24.409  0.00  0.00    -0.244 NA
ATOM     19  C   UNL     1      -2.972  -2.533  24.206  0.00  0.00    +0.081 A 
ATOM     20  C   UNL     1      -3.064  -1.719  24.303  0.00  0.00    +0.015 A 
ATOM     21  C   UNL     1      -3.791  -1.365  24.138  0.00  0.00    +0.001 A 
ATOM     22  C   UNL     1      -4.424  -1.823  23.877  0.00  0.00    +0.000 A 
ATOM     23  C   UNL     1      -4.332  -2.637  23.779  0.00  0.00    +0.002 A 
ATOM     24  C   UNL     1      -3.606  -2.992  23.943  0.00  0.00    +0.019 A 
ENDBRANCH  15  16
ENDBRANCH  14  15
ENDBRANCH  13  14
ENDBRANCH  10  11
BRANCH   4   3
ATOM      3  C   UNL     1      -1.046   2.201  24.722  0.00  0.00    +0.143 C 
BRANCH   3   2
ATOM      1  C   UNL     1      -1.635   3.157  25.606  0.00  0.00    +0.070 C 
ATOM      2  S   UNL     1      -1.533   2.855  24.845  0.00  0.00    -0.130 S 
ENDBRANCH   3   2
ENDBRANCH   4   3
TORSDOF 9
ENDMDL
MODEL 5
REMARK VINA RESULT:      -9.4      2.058      5.182
REMARK  Name = 
REMARK  9 active torsions:
REMARK  status: ('A' for Active; 'I' for Inactive)
REMARK    1  A    between atoms: S_2  and  C_3
REMARK    2  A    between atoms: C_3  and  C_4
REMARK    3  A    between atoms: C_8  and  N_28
REMARK    4  A    between atoms: C_10  and  C_11
REMARK    5  A    between atoms: N_13  and  C_14
REMARK    6  A    between atoms: C_14  and  C_15
REMARK    7  A    between atoms: C_14  and  C_25
REMARK    8  A    between atoms: C_15  and  C_16
REMARK    9  A    between atoms: N_31  and  C_32
REMARK                            x       y       z     vdW  Elec       q    Type
REMARK                         _______ _______ _______ _____ _____    ______ ____
ROOT
ATOM      4  C   UNL     1       0.378   1.252  23.825  0.00  0.00    +0.237 C 
ATOM      5  O   UNL     1       0.873   1.835  23.515  0.00  0.00    -0.274 OA
ATOM      6  N   UNL     1      -0.311   1.466  24.223  0.00  0.00    -0.270 N 
ATOM      7  C   UNL     1      -0.576   2.236  24.355  0.00  0.00    +0.116 C 
ATOM      8  C   UNL     1      -1.286   2.194  24.773  0.00  0.00    +0.119 C 
ATOM      9  C   UNL     1      -1.460   1.397  24.901  0.00  0.00    +0.053 C 
ATOM     10  C   UNL     1      -0.857   0.947  24.561  0.00  0.00    +0.155 C 
ENDROOT
BRANCH   8  28
ATOM     28  N   UNL     1      -1.743   2.835  25.021  0.00  0.00    -0.187 NA
ATOM     29  C   UNL     1      -1.383   3.478  25.393  0.00  0.00    +0.344 C 
ATOM     30  O   UNL     1      -0.567   3.479  25.517  0.00  0.00    -0.249 OA
ATOM     31  N   UNL     1      -1.839   4.119  25.641  0.00  0.00    -0.159 NA
BRANCH  31  32
ATOM     32  C   UNL     1      -2.655   4.118  25.516  0.00  0.00    +0.102 A 
ATOM     33  C   UNL     1      -3.170   4.078  26.160  0.00  0.00    +0.158 A 
ATOM     34  F   UNL     1      -2.870   4.040  26.927  0.00  0.00    -0.203 F 
ATOM     35  C   UNL     1      -3.986   4.077  26.036  0.00  0.00    +0.061 A 
ATOM     36  C   UNL     1      -4.285   4.115  25.268  0.00  0.00    +0.142 A 
ATOM     37  F   UNL     1      -5.101   4.114  25.143  0.00  0.00    -0.204 F 
ATOM     38  C   UNL     1      -3.771   4.155  24.626  0.00  0.00    +0.031 A 
ATOM     39  C   UNL     1      -2.954   4.156  24.749  0.00  0.00    +0.021 A 
ENDBRANCH  31  32
ENDBRANCH   8  28
BRANCH  10  11
ATOM     11  C   UNL     1      -0.809   0.123  24.559  0.00  0.00    +0.260 C 
ATOM     12  O   UNL     1      -0.420  -0.265  23.944  0.00  0.00    -0.272 OA
ATOM     13  N   UNL     1      -1.150  -0.311  25.172  0.00  0.00    -0.196 NA
BRANCH  13  14
ATOM     14  C   UNL     1      -1.101  -1.134  25.169  0.00  0.00    +0.179 C 
BRANCH  14  25
ATOM     25  C   UNL     1      -0.534  -1.515  25.633  0.00  0.00    +0.281 C 
ATOM     26  N   UNL     1      -0.111  -2.153  25.327  0.00  0.00    -0.086 NA
ATOM     27  O   UNL     1      -0.391  -1.255  26.403  0.00  0.00    -0.270 OA
ENDBRANCH  14  25
BRANCH  14  15
ATOM     15  C   UNL     1      -1.620  -1.577  24.705  0.00  0.00    +0.059 C 
BRANCH  15  16
ATOM     16  C   UNL     1      -2.400  -1.689  24.947  0.00  0.00    +0.001 A 
ATOM     17  C   UNL     1      -2.720  -1.456  25.672  0.00  0.00    +0.095 A 
ATOM     18  N   UNL     1      -3.515  -1.676  25.681  0.00  0.00    -0.244 NA
ATOM     19  C   UNL     1      -3.686  -2.045  24.963  0.00  0.00    +0.081 A 
ATOM     20  C   UNL     1      -2.996  -2.052  24.510  0.00  0.00    +0.015 A 
ATOM     21  C   UNL     1      -3.002  -2.390  23.757  0.00  0.00    +0.001 A 
ATOM     22  C   UNL     1      -3.696  -2.719  23.457  0.00  0.00    +0.000 A 
ATOM     23  C   UNL     1      -4.385  -2.711  23.911  0.00  0.00    +0.002 A 
ATOM     24  C   UNL     1      -4.381  -2.374  24.664  0.00  0.00    +0.019 A 
ENDBRANCH  15  16
ENDBRANCH  14  15
ENDBRANCH  13  14
ENDBRANCH  10  11
BRANCH   4   3
ATOM      3  C   UNL     1       0.573   0.455  23.736  0.00  0.00    +0.143 C 
BRANCH   3   2
ATOM      1  C   UNL     1       1.357  -0.180  22.724  0.00  0.00    +0.070 C 
ATOM      2  S   UNL     1       1.309   0.242  23.432  0.00  0.00    -0.130 S 
ENDBRANCH   3   2
ENDBRANCH   4   3
TORSDOF 9
ENDMDL
MODEL 6
REMARK VINA RESULT:      -9.3      2.769      3.851
REMARK  Name = 
REMARK  9 active torsions:
REMARK  status: ('A' for Active; 'I' for Inactive)
REMARK    1  A    between atoms: S_2  and  C_3
REMARK    2  A    between atoms: C_3  and  C_4
REMARK    3  A    between atoms: C_8  and  N_28
REMARK    4  A    between atoms: C_10  and  C_11
REMARK    5  A    between atoms: N_13  and  C_14
REMARK    6  A    between atoms: C_14  and  C_15
REMARK    7  A    between atoms: C_14  and  C_25
REMARK    8  A    between atoms: C_15  and  C_16
REMARK    9  A    between atoms: N_31  and  C_32
REMARK                            x       y       z     vdW  Elec       q    Type
REMARK                         _______ _______ _______ _____ _____    ______ ____
ROOT
ATOM      4  C   UNL     1      -5.155   1.343  25.352  0.00  0.00    +0.237 C 
ATOM      5  O   UNL     1      -5.648   1.034  25.937  0.00  0.00    -0.274 OA
ATOM      6  N   UNL     1      -4.619   0.850  24.963  0.00  0.00    -0.270 N 
ATOM      7  C   UNL     1      -4.516   0.043  25.099  0.00  0.00    +0.116 C 
ATOM      8  C   UNL     1      -3.926  -0.227  24.589  0.00  0.00    +0.119 C 
ATOM      9  C   UNL     1      -3.665   0.413  24.138  0.00  0.00    +0.053 C 
ATOM     10  C   UNL     1      -4.093   1.079  24.370  0.00  0.00    +0.155 C 
ENDROOT
BRANCH   8  28
ATOM     28  N   UNL     1      -3.646  -1.002  24.539  0.00  0.00    -0.187 NA
ATOM     29  C   UNL     1      -4.119  -1.591  24.207  0.00  0.00    +0.344 C 
ATOM     30  O   UNL     1      -4.872  -1.405  23.925  0.00  0.00    -0.249 OA
ATOM     31  N   UNL     1      -3.839  -2.366  24.157  0.00  0.00    -0.159 NA
BRANCH  31  32
ATOM     32  C   UNL     1      -3.087  -2.551  24.439  0.00  0.00    +0.102 A 
ATOM     33  C   UNL     1      -3.003  -2.971  25.144  0.00  0.00    +0.158 A 
ATOM     34  F   UNL     1      -3.670  -3.205  25.567  0.00  0.00    -0.203 F 
ATOM     35  C   UNL     1      -2.250  -3.157  25.427  0.00  0.00    +0.061 A 
ATOM     36  C   UNL     1      -1.581  -2.923  25.003  0.00  0.00    +0.142 A 
ATOM     37  F   UNL     1      -0.829  -3.108  25.285  0.00  0.00    -0.204 F 
ATOM     38  C   UNL     1      -1.666  -2.504  24.298  0.00  0.00    +0.031 A 
ATOM     39  C   UNL     1      -2.419  -2.317  24.016  0.00  0.00    +0.021 A 
ENDBRANCH  31  32
ENDBRANCH   8  28
BRANCH  10  11
ATOM     11  C   UNL     1      -4.011   1.840  24.061  0.00  0.00    +0.260 C 
ATOM     12  O   UNL     1      -4.664   2.342  24.022  0.00  0.00    -0.272 OA
ATOM     13  N   UNL     1      -3.275   2.098  23.792  0.00  0.00    -0.196 NA
BRANCH  13  14
ATOM     14  C   UNL     1      -3.193   2.859  23.484  0.00  0.00    +0.179 C 
BRANCH  14  25
ATOM     25  C   UNL     1      -3.376   3.004  22.693  0.00  0.00    +0.281 C 
ATOM     26  N   UNL     1      -3.025   2.555  22.098  0.00  0.00    -0.086 NA
ATOM     27  O   UNL     1      -3.911   3.602  22.497  0.00  0.00    -0.270 OA
ENDBRANCH  14  25
BRANCH  14  15
ATOM     15  C   UNL     1      -2.928   3.473  23.967  0.00  0.00    +0.059 C 
BRANCH  15  16
ATOM     16  C   UNL     1      -2.131   3.523  24.171  0.00  0.00    +0.001 A 
ATOM     17  C   UNL     1      -1.560   2.940  24.046  0.00  0.00    +0.095 A 
ATOM     18  N   UNL     1      -0.840   3.222  24.334  0.00  0.00    -0.244 NA
ATOM     19  C   UNL     1      -0.966   3.978  24.638  0.00  0.00    +0.081 A 
ATOM     20  C   UNL     1      -1.763   4.164  24.537  0.00  0.00    +0.015 A 
ATOM     21  C   UNL     1      -2.051   4.895  24.791  0.00  0.00    +0.001 A 
ATOM     22  C   UNL     1      -1.542   5.438  25.146  0.00  0.00    +0.000 A 
ATOM     23  C   UNL     1      -0.745   5.252  25.247  0.00  0.00    +0.002 A 
ATOM     24  C   UNL     1      -0.456   4.522  24.993  0.00  0.00    +0.019 A 
ENDBRANCH  15  16
ENDBRANCH  14  15
ENDBRANCH  13  14
ENDBRANCH  10  11
BRANCH   4   3
ATOM      3  C   UNL     1      -5.196   2.143  25.157  0.00  0.00    +0.143 C 
BRANCH   3   2
ATOM      1  C   UNL     1      -5.611   3.247  25.964  0.00  0.00    +0.070 C 
ATOM      2  S   UNL     1      -5.797   2.613  25.470  0.00  0.00    -0.130 S 
ENDBRANCH   3   2
ENDBRANCH   4   3
TORSDOF 9
ENDMDL
MODEL 7
REMARK VINA RESULT:      -9.2      2.145      2.858
REMARK  Name = 
REMARK  9 active torsions:
REMARK  status: ('A' for Active; 'I' for Inactive)
REMARK    1  A    between atoms: S_2  and  C_3
REMARK    2  A    between atoms: C_3  and  C_4
REMARK    3  A    between atoms: C_8  and  N_28
REMARK    4  A    between atoms: C_10  and  C_11
REMARK    5  A    between atoms: N_13  and  C_14
REMARK    6  A    between atoms: C_14  and  C_15
REMARK    7  A    between atoms: C_14  and  C_25
REMARK    8  A    between atoms: C_15  and  C_16
REMARK    9  A    between atoms: N_31  and  C_32
REMARK                            x       y       z     vdW  Elec       q    Type
REMARK                         _______ _______ _______ _____ _____    ______ ____
ROOT
ATOM      4  C   UNL     1      -0.407   1.930  24.289  0.00  0.00    +0.237 C 
ATOM      5  O   UNL     1       0.347   1.664  24.083  0.00  0.00    -0.274 OA
ATOM      6  N   UNL     1      -0.994   1.387  24.492  0.00  0.00    -0.270 N 
ATOM      7  C   UNL     1      -0.910   0.567  24.513  0.00  0.00    +0.116 C 
ATOM      8  C   UNL     1      -1.633   0.242  24.743  0.00  0.00    +0.119 C 
ATOM      9  C   UNL     1      -2.164   0.862  24.865  0.00  0.00    +0.053 C 
ATOM     10  C   UNL     1      -1.769   1.570  24.709  0.00  0.00    +0.155 C 
ENDROOT
BRANCH   8  28
ATOM     28  N   UNL     1      -1.796  -0.562  24.836  0.00  0.00    -0.187 NA
ATOM     29  C   UNL     1      -1.275  -1.042  25.258  0.00  0.00    +0.344 C 
ATOM     30  O   UNL     1      -0.591  -0.720  25.587  0.00  0.00    -0.249 OA
ATOM     31  N   UNL     1      -1.438  -1.846  25.351  0.00  0.00    -0.159 NA
BRANCH  31  32
ATOM     32  C   UNL     1      -2.122  -2.168  25.022  0.00  0.00    +0.102 A 
ATOM     33  C   UNL     1      -2.069  -2.671  24.369  0.00  0.00    +0.158 A 
ATOM     34  F   UNL     1      -1.332  -2.851  24.046  0.00  0.00    -0.203 F 
ATOM     35  C   UNL     1      -2.753  -2.994  24.040  0.00  0.00    +0.061 A 
ATOM     36  C   UNL     1      -3.491  -2.813  24.364  0.00  0.00    +0.142 A 
ATOM     37  F   UNL     1      -4.175  -3.136  24.034  0.00  0.00    -0.204 F 
ATOM     38  C   UNL     1      -3.543  -2.312  25.015  0.00  0.00    +0.031 A 
ATOM     39  C   UNL     1      -2.859  -1.989  25.345  0.00  0.00    +0.021 A 
ENDBRANCH  31  32
ENDBRANCH   8  28
BRANCH  10  11
ATOM     11  C   UNL     1      -2.092   2.327  24.762  0.00  0.00    +0.260 C 
ATOM     12  O   UNL     1      -1.938   2.883  24.173  0.00  0.00    -0.272 OA
ATOM     13  N   UNL     1      -2.569   2.528  25.404  0.00  0.00    -0.196 NA
BRANCH  13  14
ATOM     14  C   UNL     1      -2.892   3.285  25.457  0.00  0.00    +0.179 C 
BRANCH  14  25
ATOM     25  C   UNL     1      -2.497   3.873  25.880  0.00  0.00    +0.281 C 
ATOM     26  N   UNL     1      -2.431   4.633  25.568  0.00  0.00    -0.086 NA
ATOM     27  O   UNL     1      -2.167   3.699  26.617  0.00  0.00    -0.270 OA
ENDBRANCH  14  25
BRANCH  14  15
ATOM     15  C   UNL     1      -3.610   3.455  25.087  0.00  0.00    +0.059 C 
BRANCH  15  16
ATOM     16  C   UNL     1      -4.321   3.317  25.481  0.00  0.00    +0.001 A 
ATOM     17  C   UNL     1      -4.536   3.627  26.215  0.00  0.00    +0.095 A 
ATOM     18  N   UNL     1      -5.290   3.346  26.399  0.00  0.00    -0.244 NA
ATOM     19  C   UNL     1      -5.540   2.863  25.779  0.00  0.00    +0.081 A 
ATOM     20  C   UNL     1      -4.941   2.845  25.212  0.00  0.00    +0.015 A 
ATOM     21  C   UNL     1      -5.039   2.401  24.524  0.00  0.00    +0.001 A 
ATOM     22  C   UNL     1      -5.735   1.976  24.402  0.00  0.00    +0.000 A 
ATOM     23  C   UNL     1      -6.334   1.994  24.969  0.00  0.00    +0.002 A 
ATOM     24  C   UNL     1      -6.237   2.437  25.658  0.00  0.00    +0.019 A 
ENDBRANCH  15  16
ENDBRANCH  14  15
ENDBRANCH  13  14
ENDBRANCH  10  11
BRANCH   4   3
ATOM      3  C   UNL     1      -0.572   2.737  24.293  0.00  0.00    +0.143 C 
BRANCH   3   2
ATOM      1  C   UNL     1       0.070   3.809  23.599  0.00  0.00    +0.070 C 
ATOM      2  S   UNL     1       0.042   3.285  24.236  0.00  0.00    -0.130 S 
ENDBRANCH   3   2
ENDBRANCH   4   3
TORSDOF 9
ENDMDL
