MODEL 1
REMARK VINA RESULT:     -11.2      0.000      0.000
REMARK  Name = 
REMARK  7 active torsions:
REMARK  status: ('A' for Active; 'I' for Inactive)
REMARK    1  A    between atoms: N_4  and  C_5
REMARK    2  A    between atoms: C_8  and  S_11
REMARK    3  A    between atoms: S_11  and  N_14
REMARK    4  A    between atoms: N_14  and  C_15
REMARK    5  A    between atoms: C_17  and  C_20
REMARK    6  A    between atoms: N_23  and  C_27
REMARK    7  A    between atoms: C_30  and  C_33
REMARK                            x       y       z     vdW  Elec       q    Type
REMARK                         _______ _______ _______ _____ _____    ______ ____
ROOT
ATOM     15  C   UNL     1      -0.547   2.971  25.296  0.00  0.00    +0.120 C 
ATOM     16  C   UNL     1      -0.889   2.336  24.896  0.00  0.00    +0.033 C 
ATOM     17  C   UNL     1      -0.398   1.680  24.994  0.00  0.00    +0.048 C 
ATOM     18  C   UNL     1       0.246   1.910  25.456  0.00  0.00    -0.025 C 
ATOM     19  C   UNL     1       0.153   2.709  25.642  0.00  0.00    -0.011 C 
ENDROOT
BRANCH  17  20
ATOM     20  C   UNL     1      -0.529   0.926  24.685  0.00  0.00    +0.010 A 
ATOM     21  C   UNL     1      -1.144   0.417  24.892  0.00  0.00    +0.058 A 
ATOM     22  C   UNL     1      -1.737   0.572  25.444  0.00  0.00    +0.052 C 
ATOM     23  N   UNL     1      -1.062  -0.275  24.450  0.00  0.00    -0.234 N 
ATOM     24  N   UNL     1      -0.397  -0.194  23.970  0.00  0.00    -0.170 NA
ATOM     25  C   UNL     1      -0.066   0.549  24.115  0.00  0.00    +0.077 A 
ATOM     26  C   UNL     1       0.608   0.859  23.754  0.00  0.00    +0.054 C 
BRANCH  23  27
ATOM     27  C   UNL     1      -1.560  -0.933  24.482  0.00  0.00    +0.082 A 
ATOM     28  C   UNL     1      -1.266  -1.660  24.737  0.00  0.00    +0.019 A 
ATOM     29  C   UNL     1      -1.763  -2.317  24.769  0.00  0.00    -0.003 A 
ATOM     30  C   UNL     1      -2.554  -2.248  24.546  0.00  0.00    -0.023 A 
ATOM     31  C   UNL     1      -2.848  -1.521  24.291  0.00  0.00    -0.003 A 
ATOM     32  C   UNL     1      -2.351  -0.863  24.259  0.00  0.00    +0.019 A 
BRANCH  30  33
ATOM     33  C   UNL     1      -3.051  -2.905  24.578  0.00  0.00    +0.019 C 
ATOM     34  C   UNL     1      -3.549  -3.562  24.610  0.00  0.00    +0.004 C 
ATOM     35  C   UNL     1      -2.621  -3.261  23.972  0.00  0.00    +0.004 C 
ATOM     36  C   UNL     1      -3.482  -2.549  25.185  0.00  0.00    +0.004 C 
ENDBRANCH  30  33
ENDBRANCH  23  27
ENDBRANCH  17  20
BRANCH  15  14
ATOM     14  N   UNL     1      -0.854   3.735  25.343  0.00  0.00    -0.075 NA
BRANCH  14  11
ATOM     11  S   UNL     1      -1.670   3.852  25.375  0.00  0.00    +0.077 S 
ATOM     12  O   UNL     1      -1.657   3.711  26.187  0.00  0.00    -0.152 OA
ATOM     13  O   UNL     1      -1.682   3.992  24.562  0.00  0.00    -0.152 OA
BRANCH  11   8
ATOM      5  C   UNL     1      -4.118   4.201  25.473  0.00  0.00    +0.073 A 
ATOM      6  C   UNL     1      -3.746   4.092  24.744  0.00  0.00    +0.018 A 
ATOM      7  C   UNL     1      -2.929   3.976  24.712  0.00  0.00    +0.021 A 
ATOM      8  C   UNL     1      -2.485   3.968  25.407  0.00  0.00    +0.124 A 
ATOM      9  C   UNL     1      -2.858   4.077  26.135  0.00  0.00    +0.021 A 
ATOM     10  C   UNL     1      -3.674   4.193  26.168  0.00  0.00    +0.018 A 
BRANCH   5   4
ATOM      1  C   UNL     1      -6.257   3.786  25.606  0.00  0.00    +0.097 C 
ATOM      2  C   UNL     1      -5.440   3.670  25.574  0.00  0.00    +0.246 C 
ATOM      3  O   UNL     1      -5.131   2.906  25.611  0.00  0.00    -0.273 OA
ATOM      4  N   UNL     1      -4.934   4.317  25.505  0.00  0.00    -0.179 NA
ENDBRANCH   5   4
ENDBRANCH  11   8
ENDBRANCH  14  11
ENDBRANCH  15  14
TORSDOF 7
ENDMDL
MODEL 2
REMARK VINA RESULT:     -10.5      1.694      3.871
REMARK  Name = 
REMARK  7 active torsions:
REMARK  status: ('A' for Active; 'I' for Inactive)
REMARK    1  A    between atoms: N_4  and  C_5
REMARK    2  A    between atoms: C_8  and  S_11
REMARK    3  A    between atoms: S_11  and  N_14
REMARK    4  A    between atoms: N_14  and  C_15
REMARK    5  A    between atoms: C_17  and  C_20
REMARK    6  A    between atoms: N_23  and  C_27
REMARK    7  A    between atoms: C_30  and  C_33
REMARK                            x       y       z     vdW  Elec       q    Type
REMARK                         _______ _______ _______ _____ _____    ______ ____
ROOT
ATOM     15  C   UNL     1      -3.425   3.620  25.334  0.00  0.00    +0.120 C 
ATOM     16  C   UNL     1      -3.455   2.795  25.335  0.00  0.00    +0.033 C 
ATOM     17  C   UNL     1      -4.244   2.571  25.238  0.00  0.00    +0.048 C 
ATOM     18  C   UNL     1      -4.699   3.256  25.177  0.00  0.00    -0.025 C 
ATOM     19  C   UNL     1      -4.192   3.905  25.236  0.00  0.00    -0.011 C 
ENDROOT
BRANCH  17  20
ATOM     20  C   UNL     1      -4.526   1.797  25.207  0.00  0.00    +0.010 A 
ATOM     21  C   UNL     1      -4.099   1.133  24.968  0.00  0.00    +0.058 A 
ATOM     22  C   UNL     1      -3.313   1.127  24.717  0.00  0.00    +0.052 C 
ATOM     23  N   UNL     1      -4.595   0.476  25.023  0.00  0.00    -0.234 N 
ATOM     24  N   UNL     1      -5.329   0.733  25.297  0.00  0.00    -0.170 NA
ATOM     25  C   UNL     1      -5.287   1.550  25.411  0.00  0.00    +0.077 A 
ATOM     26  C   UNL     1      -5.898   2.035  25.680  0.00  0.00    +0.054 C 
BRANCH  23  27
ATOM     27  C   UNL     1      -4.393  -0.302  24.838  0.00  0.00    +0.082 A 
ATOM     28  C   UNL     1      -4.556  -0.603  24.087  0.00  0.00    +0.019 A 
ATOM     29  C   UNL     1      -4.353  -1.381  23.902  0.00  0.00    -0.003 A 
ATOM     30  C   UNL     1      -3.987  -1.858  24.467  0.00  0.00    -0.023 A 
ATOM     31  C   UNL     1      -3.824  -1.557  25.217  0.00  0.00    -0.003 A 
ATOM     32  C   UNL     1      -4.026  -0.779  25.403  0.00  0.00    +0.019 A 
BRANCH  30  33
ATOM     33  C   UNL     1      -3.785  -2.635  24.282  0.00  0.00    +0.019 C 
ATOM     34  C   UNL     1      -3.582  -3.414  24.096  0.00  0.00    +0.004 C 
ATOM     35  C   UNL     1      -4.350  -2.641  23.682  0.00  0.00    +0.004 C 
ATOM     36  C   UNL     1      -3.218  -2.631  24.882  0.00  0.00    +0.004 C 
ENDBRANCH  30  33
ENDBRANCH  23  27
ENDBRANCH  17  20
BRANCH  15  14
ATOM     14  N   UNL     1      -2.744   4.079  25.417  0.00  0.00    -0.075 NA
BRANCH  14  11
ATOM     11  S   UNL     1      -2.009   3.769  25.207  0.00  0.00    +0.077 S 
ATOM     12  O   UNL     1      -2.158   3.951  24.417  0.00  0.00    -0.152 OA
ATOM     13  O   UNL     1      -1.860   3.587  25.998  0.00  0.00    -0.152 OA
BRANCH  11   8
ATOM      5  C   UNL     1       0.196   2.839  24.577  0.00  0.00    +0.073 A 
ATOM      6  C   UNL     1      -0.069   2.779  25.356  0.00  0.00    +0.018 A 
ATOM      7  C   UNL     1      -0.805   3.089  25.566  0.00  0.00    +0.021 A 
ATOM      8  C   UNL     1      -1.274   3.459  24.997  0.00  0.00    +0.124 A 
ATOM      9  C   UNL     1      -1.008   3.519  24.218  0.00  0.00    +0.021 A 
ATOM     10  C   UNL     1      -0.273   3.209  24.008  0.00  0.00    +0.018 A 
BRANCH   5   4
ATOM      1  C   UNL     1       1.720   1.452  23.856  0.00  0.00    +0.097 C 
ATOM      2  C   UNL     1       0.985   1.763  24.066  0.00  0.00    +0.246 C 
ATOM      3  O   UNL     1       0.303   1.306  23.975  0.00  0.00    -0.273 OA
ATOM      4  N   UNL     1       0.932   2.529  24.367  0.00  0.00    -0.179 NA
ENDBRANCH   5   4
ENDBRANCH  11   8
ENDBRANCH  14  11
ENDBRANCH  15  14
TORSDOF 7
ENDMDL
MODEL 3
REMARK VINA RESULT:     -10.4      3.130      6.139
REMARK  Name = 
REMARK  7 active torsions:
REMARK  status: ('A' for Active; 'I' for Inactive)
REMARK    1  A    between atoms: N_4  and  C_5
REMARK    2  A    between atoms: C_8  and  S_11
REMARK    3  A    between atoms: S_11  and  N_14
REMARK    4  A    between atoms: N_14  and  C_15
REMARK    5  A    between atoms: C_17  and  C_20
REMARK    6  A    between atoms: N_23  and  C_27
REMARK    7  A    between atoms: C_30  and  C_33
REMARK                            x       y       z     vdW  Elec       q    Type
REMARK                         _______ _______ _______ _____ _____    ______ ____
ROOT
ATOM     15  C   UNL     1       0.476   0.130  23.241  0.00  0.00    +0.120 C 
ATOM     16  C   UNL     1      -0.065   0.725  23.426  0.00  0.00    +0.033 C 
ATOM     17  C   UNL     1      -0.443   0.516  24.129  0.00  0.00    +0.048 C 
ATOM     18  C   UNL     1      -0.135  -0.208  24.377  0.00  0.00    -0.025 C 
ATOM     19  C   UNL     1       0.433  -0.446  23.828  0.00  0.00    -0.011 C 
ENDROOT
BRANCH  17  20
ATOM     20  C   UNL     1      -1.025   0.953  24.515  0.00  0.00    +0.010 A 
ATOM     21  C   UNL     1      -1.836   0.918  24.368  0.00  0.00    +0.058 A 
ATOM     22  C   UNL     1      -2.207   0.439  23.808  0.00  0.00    +0.052 C 
ATOM     23  N   UNL     1      -2.211   1.447  24.879  0.00  0.00    -0.234 N 
ATOM     24  N   UNL     1      -1.632   1.808  25.342  0.00  0.00    -0.170 NA
ATOM     25  C   UNL     1      -0.899   1.503  25.118  0.00  0.00    +0.077 A 
ATOM     26  C   UNL     1      -0.168   1.712  25.439  0.00  0.00    +0.054 C 
BRANCH  23  27
ATOM     27  C   UNL     1      -3.023   1.589  24.920  0.00  0.00    +0.082 A 
ATOM     28  C   UNL     1      -3.526   1.018  25.240  0.00  0.00    +0.019 A 
ATOM     29  C   UNL     1      -4.337   1.160  25.281  0.00  0.00    -0.003 A 
ATOM     30  C   UNL     1      -4.646   1.872  25.001  0.00  0.00    -0.023 A 
ATOM     31  C   UNL     1      -4.144   2.443  24.681  0.00  0.00    -0.003 A 
ATOM     32  C   UNL     1      -3.332   2.301  24.640  0.00  0.00    +0.019 A 
BRANCH  30  33
ATOM     33  C   UNL     1      -5.458   2.014  25.041  0.00  0.00    +0.019 C 
ATOM     34  C   UNL     1      -6.270   2.157  25.082  0.00  0.00    +0.004 C 
ATOM     35  C   UNL     1      -5.604   1.288  24.681  0.00  0.00    +0.004 C 
ATOM     36  C   UNL     1      -5.312   2.742  25.403  0.00  0.00    +0.004 C 
ENDBRANCH  30  33
ENDBRANCH  23  27
ENDBRANCH  17  20
BRANCH  15  14
ATOM     14  N   UNL     1       0.972   0.116  22.582  0.00  0.00    -0.075 NA
BRANCH  14  11
ATOM     11  S   UNL     1       1.791   0.141  22.682  0.00  0.00    +0.077 S 
ATOM     12  O   UNL     1       1.836  -0.663  22.505  0.00  0.00    -0.152 OA
ATOM     13  O   UNL     1       1.745   0.945  22.858  0.00  0.00    -0.152 OA
BRANCH  11   8
ATOM      5  C   UNL     1       4.246   0.213  22.979  0.00  0.00    +0.073 A 
ATOM      6  C   UNL     1       3.833   0.903  22.796  0.00  0.00    +0.018 A 
ATOM      7  C   UNL     1       3.014   0.878  22.697  0.00  0.00    +0.021 A 
ATOM      8  C   UNL     1       2.609   0.165  22.781  0.00  0.00    +0.124 A 
ATOM      9  C   UNL     1       3.023  -0.525  22.964  0.00  0.00    +0.021 A 
ATOM     10  C   UNL     1       3.841  -0.501  23.064  0.00  0.00    +0.018 A 
BRANCH   5   4
ATOM      1  C   UNL     1       6.206   0.360  23.932  0.00  0.00    +0.097 C 
ATOM      2  C   UNL     1       5.386   0.336  23.832  0.00  0.00    +0.246 C 
ATOM      3  O   UNL     1       4.889   0.410  24.486  0.00  0.00    -0.273 OA
ATOM      4  N   UNL     1       5.066   0.237  23.079  0.00  0.00    -0.179 NA
ENDBRANCH   5   4
ENDBRANCH  11   8
ENDBRANCH  14  11
ENDBRANCH  15  14
TORSDOF 7
ENDMDL
MODEL 4
REMARK VINA RESULT:     -10.4      2.399      6.275
REMARK  Name = 
REMARK  7 active torsions:
REMARK  status: ('A' for Active; 'I' for Inactive)
REMARK    1  A    between atoms: N_4  and  C_5
REMARK    2  A    between atoms: C_8  and  S_11
REMARK    3  A    between atoms: S_11  and  N_14
REMARK    4  A    between atoms: N_14  and  C_15
REMARK    5  A    between atoms: C_17  and  C_20
REMARK    6  A    between atoms: N_23  and  C_27
REMARK    7  A    between atoms: C_30  and  C_33
REMARK                            x       y       z     vdW  Elec       q    Type
REMARK                         _______ _______ _______ _____ _____    ______ ____
ROOT
ATOM     15  C   UNL     1      -4.859   0.042  24.812  0.00  0.00    +0.120 C 
ATOM     16  C   UNL     1      -4.429   0.641  25.182  0.00  0.00    +0.033 C 
ATOM     17  C   UNL     1      -4.700   1.364  24.892  0.00  0.00    +0.048 C 
ATOM     18  C   UNL     1      -5.297   1.212  24.343  0.00  0.00    -0.025 C 
ATOM     19  C   UNL     1      -5.395   0.394  24.294  0.00  0.00    -0.011 C 
ENDROOT
BRANCH  17  20
ATOM     20  C   UNL     1      -4.422   2.109  25.112  0.00  0.00    +0.010 A 
ATOM     21  C   UNL     1      -3.698   2.440  24.897  0.00  0.00    +0.058 A 
ATOM     22  C   UNL     1      -3.123   2.084  24.425  0.00  0.00    +0.052 C 
ATOM     23  N   UNL     1      -3.649   3.190  25.238  0.00  0.00    -0.234 N 
ATOM     24  N   UNL     1      -4.343   3.323  25.664  0.00  0.00    -0.170 NA
ATOM     25  C   UNL     1      -4.821   2.655  25.586  0.00  0.00    +0.077 A 
ATOM     26  C   UNL     1      -5.568   2.550  25.922  0.00  0.00    +0.054 C 
BRANCH  23  27
ATOM     27  C   UNL     1      -3.016   3.715  25.167  0.00  0.00    +0.082 A 
ATOM     28  C   UNL     1      -2.984   4.237  24.529  0.00  0.00    +0.019 A 
ATOM     29  C   UNL     1      -2.351   4.761  24.457  0.00  0.00    -0.003 A 
ATOM     30  C   UNL     1      -1.751   4.765  25.023  0.00  0.00    -0.023 A 
ATOM     31  C   UNL     1      -1.784   4.243  25.661  0.00  0.00    -0.003 A 
ATOM     32  C   UNL     1      -2.416   3.717  25.733  0.00  0.00    +0.019 A 
BRANCH  30  33
ATOM     33  C   UNL     1      -1.119   5.289  24.952  0.00  0.00    +0.019 C 
ATOM     34  C   UNL     1      -0.486   5.814  24.880  0.00  0.00    +0.004 C 
ATOM     35  C   UNL     1      -1.635   5.925  25.045  0.00  0.00    +0.004 C 
ATOM     36  C   UNL     1      -0.602   4.652  24.859  0.00  0.00    +0.004 C 
ENDBRANCH  30  33
ENDBRANCH  23  27
ENDBRANCH  17  20
BRANCH  15  14
ATOM     14  N   UNL     1      -4.768  -0.768  24.938  0.00  0.00    -0.075 NA
BRANCH  14  11
ATOM     11  S   UNL     1      -4.013  -1.099  24.972  0.00  0.00    +0.077 S 
ATOM     12  O   UNL     1      -4.010  -1.007  25.791  0.00  0.00    -0.152 OA
ATOM     13  O   UNL     1      -4.017  -1.190  24.152  0.00  0.00    -0.152 OA
BRANCH  11   8
ATOM      5  C   UNL     1      -1.748  -2.090  25.075  0.00  0.00    +0.073 A 
ATOM      6  C   UNL     1      -2.039  -1.660  25.715  0.00  0.00    +0.018 A 
ATOM      7  C   UNL     1      -2.795  -1.329  25.681  0.00  0.00    +0.021 A 
ATOM      8  C   UNL     1      -3.258  -1.429  25.006  0.00  0.00    +0.124 A 
ATOM      9  C   UNL     1      -2.966  -1.860  24.366  0.00  0.00    +0.021 A 
ATOM     10  C   UNL     1      -2.212  -2.191  24.400  0.00  0.00    +0.018 A 
BRANCH   5   4
ATOM      1  C   UNL     1       0.428  -2.262  25.140  0.00  0.00    +0.097 C 
ATOM      2  C   UNL     1      -0.328  -1.932  25.106  0.00  0.00    +0.246 C 
ATOM      3  O   UNL     1      -0.419  -1.113  25.068  0.00  0.00    -0.273 OA
ATOM      4  N   UNL     1      -0.992  -2.421  25.109  0.00  0.00    -0.179 NA
ENDBRANCH   5   4
ENDBRANCH  11   8
ENDBRANCH  14  11
ENDBRANCH  15  14
TORSDOF 7
ENDMDL
MODEL 5
REMARK VINA RESULT:      -9.7      1.910      5.367
REMARK  Name = 
REMARK  7 active torsions:
REMARK  status: ('A' for Active; 'I' for Inactive)
REMARK    1  A    between atoms: N_4  and  C_5
REMARK    2  A    between atoms: C_8  and  S_11
REMARK    3  A    between atoms: S_11  and  N_14
REMARK    4  A    between atoms: N_14  and  C_15
REMARK    5  A    between atoms: C_17  and  C_20
REMARK    6  A    between atoms: N_23  and  C_27
REMARK    7  A    between atoms: C_30  and  C_33
REMARK                            x       y       z     vdW  Elec       q    Type
REMARK                         _______ _______ _______ _____ _____    ______ ____
ROOT
ATOM     15  C   UNL     1      -0.167   0.565  24.623  0.00  0.00    +0.120 C 
ATOM     16  C   UNL     1      -0.750   0.985  25.028  0.00  0.00    +0.033 C 
ATOM     17  C   UNL     1      -0.740   1.763  24.753  0.00  0.00    +0.048 C 
ATOM     18  C   UNL     1      -0.152   1.823  24.178  0.00  0.00    -0.025 C 
ATOM     19  C   UNL     1       0.203   1.082  24.098  0.00  0.00    -0.011 C 
ENDROOT
BRANCH  17  20
ATOM     20  C   UNL     1      -1.233   2.373  25.008  0.00  0.00    +0.010 A 
ATOM     21  C   UNL     1      -2.055   2.393  24.942  0.00  0.00    +0.058 A 
ATOM     22  C   UNL     1      -2.529   1.807  24.608  0.00  0.00    +0.052 C 
ATOM     23  N   UNL     1      -2.320   3.104  25.268  0.00  0.00    -0.234 N 
ATOM     24  N   UNL     1      -1.662   3.523  25.536  0.00  0.00    -0.170 NA
ATOM     25  C   UNL     1      -0.990   3.071  25.375  0.00  0.00    +0.077 A 
ATOM     26  C   UNL     1      -0.211   3.281  25.552  0.00  0.00    +0.054 C 
BRANCH  23  27
ATOM     27  C   UNL     1      -3.106   3.352  25.317  0.00  0.00    +0.082 A 
ATOM     28  C   UNL     1      -3.530   3.516  24.629  0.00  0.00    +0.019 A 
ATOM     29  C   UNL     1      -4.315   3.764  24.678  0.00  0.00    -0.003 A 
ATOM     30  C   UNL     1      -4.676   3.847  25.415  0.00  0.00    -0.023 A 
ATOM     31  C   UNL     1      -4.252   3.682  26.103  0.00  0.00    -0.003 A 
ATOM     32  C   UNL     1      -3.466   3.435  26.054  0.00  0.00    +0.019 A 
BRANCH  30  33
ATOM     33  C   UNL     1      -5.461   4.095  25.464  0.00  0.00    +0.019 C 
ATOM     34  C   UNL     1      -6.247   4.343  25.514  0.00  0.00    +0.004 C 
ATOM     35  C   UNL     1      -5.697   3.320  25.619  0.00  0.00    +0.004 C 
ATOM     36  C   UNL     1      -5.226   4.870  25.310  0.00  0.00    +0.004 C 
ENDBRANCH  30  33
ENDBRANCH  23  27
ENDBRANCH  17  20
BRANCH  15  14
ATOM     14  N   UNL     1       0.014  -0.233  24.725  0.00  0.00    -0.075 NA
BRANCH  14  11
ATOM     11  S   UNL     1      -0.583  -0.801  24.687  0.00  0.00    +0.077 S 
ATOM     12  O   UNL     1      -0.616  -0.821  25.510  0.00  0.00    -0.152 OA
ATOM     13  O   UNL     1      -0.550  -0.780  23.863  0.00  0.00    -0.152 OA
BRANCH  11   8
ATOM      5  C   UNL     1      -2.376  -2.503  24.574  0.00  0.00    +0.073 A 
ATOM      6  C   UNL     1      -2.368  -1.953  25.189  0.00  0.00    +0.018 A 
ATOM      7  C   UNL     1      -1.769  -1.385  25.226  0.00  0.00    +0.021 A 
ATOM      8  C   UNL     1      -1.180  -1.368  24.649  0.00  0.00    +0.124 A 
ATOM      9  C   UNL     1      -1.190  -1.918  24.034  0.00  0.00    +0.021 A 
ATOM     10  C   UNL     1      -1.787  -2.485  23.997  0.00  0.00    +0.018 A 
BRANCH   5   4
ATOM      1  C   UNL     1      -4.298  -3.450  24.154  0.00  0.00    +0.097 C 
ATOM      2  C   UNL     1      -3.699  -2.882  24.192  0.00  0.00    +0.246 C 
ATOM      3  O   UNL     1      -3.827  -2.128  23.884  0.00  0.00    -0.273 OA
ATOM      4  N   UNL     1      -2.974  -3.070  24.537  0.00  0.00    -0.179 NA
ENDBRANCH   5   4
ENDBRANCH  11   8
ENDBRANCH  14  11
ENDBRANCH  15  14
TORSDOF 7
ENDMDL
MODEL 6
REMARK VINA RESULT:      -9.4      1.274      1.978
REMARK  Name = 
REMARK  7 active torsions:
REMARK  status: ('A' for Active; 'I' for Inactive)
REMARK    1  A    between atoms: N_4  and  C_5
REMARK    2  A    between atoms: C_8  and  S_11
REMARK    3  A    between atoms: S_11  and  N_14
REMARK    4  A    between atoms: N_14  and  C_15
REMARK    5  A    between atoms: C_17  and  C_20
REMARK    6  A    between atoms: N_23  and  C_27
REMARK    7  A    between atoms: C_30  and  C_33
REMARK                            x       y       z     vdW  Elec       q    Type
REMARK                         _______ _______ _______ _____ _____    ______ ____
ROOT
ATOM     15  C   UNL     1      -1.784   4.156  25.369  0.00  0.00    +0.120 C 
ATOM     16  C   UNL     1      -1.735   3.353  25.552  0.00  0.00    +0.033 C 
ATOM     17  C   UNL     1      -0.962   3.106  25.405  0.00  0.00    +0.048 C 
ATOM     18  C   UNL     1      -0.534   3.756  25.133  0.00  0.00    -0.025 C 
ATOM     19  C   UNL     1      -1.043   4.405  25.110  0.00  0.00    -0.011 C 
ENDROOT
BRANCH  17  20
ATOM     20  C   UNL     1      -0.669   2.342  25.513  0.00  0.00    +0.010 A 
ATOM     21  C   UNL     1      -0.992   1.650  25.202  0.00  0.00    +0.058 A 
ATOM     22  C   UNL     1      -1.666   1.599  24.729  0.00  0.00    +0.052 C 
ATOM     23  N   UNL     1      -0.523   1.017  25.447  0.00  0.00    -0.234 N 
ATOM     24  N   UNL     1       0.090   1.317  25.910  0.00  0.00    -0.170 NA
ATOM     25  C   UNL     1       0.000   2.137  25.951  0.00  0.00    +0.077 A 
ATOM     26  C   UNL     1       0.493   2.659  26.357  0.00  0.00    +0.054 C 
BRANCH  23  27
ATOM     27  C   UNL     1      -0.646   0.222  25.262  0.00  0.00    +0.082 A 
ATOM     28  C   UNL     1      -0.337  -0.092  24.565  0.00  0.00    +0.019 A 
ATOM     29  C   UNL     1      -0.460  -0.886  24.380  0.00  0.00    -0.003 A 
ATOM     30  C   UNL     1      -0.892  -1.367  24.893  0.00  0.00    -0.023 A 
ATOM     31  C   UNL     1      -1.201  -1.054  25.590  0.00  0.00    -0.003 A 
ATOM     32  C   UNL     1      -1.078  -0.259  25.775  0.00  0.00    +0.019 A 
BRANCH  30  33
ATOM     33  C   UNL     1      -1.015  -2.161  24.708  0.00  0.00    +0.019 C 
ATOM     34  C   UNL     1      -1.138  -2.956  24.524  0.00  0.00    +0.004 C 
ATOM     35  C   UNL     1      -1.700  -1.960  24.296  0.00  0.00    +0.004 C 
ATOM     36  C   UNL     1      -0.329  -2.363  25.121  0.00  0.00    +0.004 C 
ENDBRANCH  30  33
ENDBRANCH  23  27
ENDBRANCH  17  20
BRANCH  15  14
ATOM     14  N   UNL     1      -2.458   4.627  25.435  0.00  0.00    -0.075 NA
BRANCH  14  11
ATOM     11  S   UNL     1      -3.207   4.283  25.405  0.00  0.00    +0.077 S 
ATOM     12  O   UNL     1      -3.212   4.225  26.227  0.00  0.00    -0.152 OA
ATOM     13  O   UNL     1      -3.201   4.341  24.582  0.00  0.00    -0.152 OA
BRANCH  11   8
ATOM      5  C   UNL     1      -5.454   3.250  25.318  0.00  0.00    +0.073 A 
ATOM      6  C   UNL     1      -5.086   3.375  26.046  0.00  0.00    +0.018 A 
ATOM      7  C   UNL     1      -4.336   3.720  26.074  0.00  0.00    +0.021 A 
ATOM      8  C   UNL     1      -3.956   3.939  25.376  0.00  0.00    +0.124 A 
ATOM      9  C   UNL     1      -4.325   3.813  24.649  0.00  0.00    +0.021 A 
ATOM     10  C   UNL     1      -5.074   3.469  24.620  0.00  0.00    +0.018 A 
BRANCH   5   4
ATOM      1  C   UNL     1      -7.031   1.757  25.096  0.00  0.00    +0.097 C 
ATOM      2  C   UNL     1      -6.281   2.101  25.125  0.00  0.00    +0.246 C 
ATOM      3  O   UNL     1      -5.610   1.641  24.990  0.00  0.00    -0.273 OA
ATOM      4  N   UNL     1      -6.204   2.906  25.289  0.00  0.00    -0.179 NA
ENDBRANCH   5   4
ENDBRANCH  11   8
ENDBRANCH  14  11
ENDBRANCH  15  14
TORSDOF 7
ENDMDL
MODEL 7
REMARK VINA RESULT:      -7.8     17.889     19.812
REMARK  Name = 
REMARK  7 active torsions:
REMARK  status: ('A' for Active; 'I' for Inactive)
REMARK    1  A    between atoms: N_4  and  C_5
REMARK    2  A    between atoms: C_8  and  S_11
REMARK    3  A    between atoms: S_11  and  N_14
REMARK    4  A    between atoms: N_14  and  C_15
REMARK    5  A    between atoms: C_17  and  C_20
REMARK    6  A    between atoms: N_23  and  C_27
REMARK    7  A    between atoms: C_30  and  C_33
REMARK                            x       y       z     vdW  Elec       q    Type
REMARK                         _______ _______ _______ _____ _____    ______ ____
ROOT
ATOM     15  C   UNL     1      16.770  -6.887  26.293  0.00  0.00    +0.120 C 
ATOM     16  C   UNL     1      16.678  -6.882  27.113  0.00  0.00    +0.033 C 
ATOM     17  C   UNL     1      15.966  -7.260  27.291  0.00  0.00    +0.048 C 
ATOM     18  C   UNL     1      15.619  -7.498  26.581  0.00  0.00    -0.025 C 
ATOM     19  C   UNL     1      16.117  -7.267  25.964  0.00  0.00    -0.011 C 
ENDROOT
BRANCH  17  20
ATOM     20  C   UNL     1      15.657  -7.379  28.046  0.00  0.00    +0.010 A 
ATOM     21  C   UNL     1      15.086  -6.911  28.415  0.00  0.00    +0.058 A 
ATOM     22  C   UNL     1      14.725  -6.243  28.095  0.00  0.00    +0.052 C 
ATOM     23  N   UNL     1      14.940  -7.230  29.163  0.00  0.00    -0.234 N 
ATOM     24  N   UNL     1      15.420  -7.894  29.255  0.00  0.00    -0.170 NA
ATOM     25  C   UNL     1      15.863  -7.987  28.565  0.00  0.00    +0.077 A 
ATOM     26  C   UNL     1      16.416  -8.582  28.419  0.00  0.00    +0.054 C 
BRANCH  23  27
ATOM     27  C   UNL     1      14.407  -6.936  29.720  0.00  0.00    +0.082 A 
ATOM     28  C   UNL     1      13.693  -7.326  29.854  0.00  0.00    +0.019 A 
ATOM     29  C   UNL     1      13.160  -7.032  30.410  0.00  0.00    -0.003 A 
ATOM     30  C   UNL     1      13.341  -6.347  30.834  0.00  0.00    -0.023 A 
ATOM     31  C   UNL     1      14.056  -5.957  30.700  0.00  0.00    -0.003 A 
ATOM     32  C   UNL     1      14.589  -6.251  30.143  0.00  0.00    +0.019 A 
BRANCH  30  33
ATOM     33  C   UNL     1      12.809  -6.053  31.390  0.00  0.00    +0.019 C 
ATOM     34  C   UNL     1      12.276  -5.759  31.947  0.00  0.00    +0.004 C 
ATOM     35  C   UNL     1      13.360  -6.186  31.989  0.00  0.00    +0.004 C 
ATOM     36  C   UNL     1      12.257  -5.920  30.791  0.00  0.00    +0.004 C 
ENDBRANCH  30  33
ENDBRANCH  23  27
ENDBRANCH  17  20
BRANCH  15  14
ATOM     14  N   UNL     1      17.405  -6.567  25.875  0.00  0.00    -0.075 NA
BRANCH  14  11
ATOM     11  S   UNL     1      17.286  -5.929  25.367  0.00  0.00    +0.077 S 
ATOM     12  O   UNL     1      17.405  -5.408  25.995  0.00  0.00    -0.152 OA
ATOM     13  O   UNL     1      17.167  -6.450  24.739  0.00  0.00    -0.152 OA
BRANCH  11   8
ATOM      5  C   UNL     1      16.928  -4.011  23.845  0.00  0.00    +0.073 A 
ATOM      6  C   UNL     1      17.027  -4.769  23.536  0.00  0.00    +0.018 A 
ATOM      7  C   UNL     1      17.147  -5.409  24.044  0.00  0.00    +0.021 A 
ATOM      8  C   UNL     1      17.167  -5.290  24.860  0.00  0.00    +0.124 A 
ATOM      9  C   UNL     1      17.068  -4.530  25.168  0.00  0.00    +0.021 A 
ATOM     10  C   UNL     1      16.948  -3.892  24.661  0.00  0.00    +0.018 A 
BRANCH   5   4
ATOM      1  C   UNL     1      15.983  -2.307  22.860  0.00  0.00    +0.097 C 
ATOM      2  C   UNL     1      16.102  -2.947  23.368  0.00  0.00    +0.246 C 
ATOM      3  O   UNL     1      15.516  -3.161  23.907  0.00  0.00    -0.273 OA
ATOM      4  N   UNL     1      16.809  -3.371  23.336  0.00  0.00    -0.179 NA
ENDBRANCH   5   4
ENDBRANCH  11   8
ENDBRANCH  14  11
ENDBRANCH  15  14
TORSDOF 7
ENDMDL
