MODEL 1
REMARK VINA RESULT:     -10.8      0.000      0.000
REMARK  Name = 
REMARK  7 active torsions:
REMARK  status: ('A' for Active; 'I' for Inactive)
REMARK    1  A    between atoms: O_2  and  C_3
REMARK    2  A    between atoms: C_3  and  C_4
REMARK    3  A    between atoms: C_6  and  C_7
REMARK    4  A    between atoms: C_7  and  C_8
REMARK    5  A    between atoms: C_13  and  C_14
REMARK    6  A    between atoms: C_14  and  N_15
REMARK    7  A    between atoms: N_15  and  C_16
REMARK                            x       y       z     vdW  Elec       q    Type
REMARK                         _______ _______ _______ _____ _____    ______ ____
ROOT
ATOM      8  C   UNL     1      -4.265   3.222  24.966  0.00  0.00    +0.121 C 
ATOM      9  C   UNL     1      -4.943   3.548  25.305  0.00  0.00    +0.033 C 
ATOM     10  C   UNL     1      -5.560   3.057  25.547  0.00  0.00    +0.038 C 
ATOM     11  C   UNL     1      -5.500   2.240  25.450  0.00  0.00    +0.180 C 
ATOM     12  O   UNL     1      -6.116   1.749  25.692  0.00  0.00    -0.220 OA
ATOM     13  C   UNL     1      -4.822   1.914  25.111  0.00  0.00    +0.163 C 
ATOM     25  O   UNL     1      -4.205   2.405  24.869  0.00  0.00    -0.354 OA
ENDROOT
BRANCH   8   7
ATOM      7  C   UNL     1      -3.648   3.714  24.724  0.00  0.00    +0.079 C 
BRANCH   7   6
ATOM      4  C   UNL     1      -1.695   3.618  25.580  0.00  0.00    +0.184 A 
ATOM      5  C   UNL     1      -2.226   3.437  24.976  0.00  0.00    +0.056 A 
ATOM      6  C   UNL     1      -2.959   3.763  25.174  0.00  0.00    +0.103 A 
ATOM     26  N   UNL     1      -2.879   4.145  25.901  0.00  0.00    -0.082 NA
ATOM     27  O   UNL     1      -2.098   4.056  26.152  0.00  0.00    -0.356 OA
BRANCH   4   3
ATOM      3  C   UNL     1      -0.899   3.401  25.608  0.00  0.00    +0.209 C 
BRANCH   3   2
ATOM      1  C   UNL     1       0.126   2.524  26.078  0.00  0.00    +0.175 C 
ATOM      2  O   UNL     1      -0.661   2.767  26.081  0.00  0.00    -0.343 OA
ENDBRANCH   3   2
ENDBRANCH   4   3
ENDBRANCH   7   6
ENDBRANCH   8   7
BRANCH  13  14
ATOM     14  C   UNL     1      -4.761   1.097  25.014  0.00  0.00    +0.121 C 
BRANCH  14  15
ATOM     15  N   UNL     1      -4.063   0.766  24.724  0.00  0.00    -0.217 NA
BRANCH  15  16
ATOM     16  C   UNL     1      -3.967  -0.053  24.718  0.00  0.00    +0.076 C 
ATOM     17  C   UNL     1      -4.180  -0.487  24.049  0.00  0.00    +0.039 C 
ATOM     18  C   UNL     1      -4.085  -1.307  24.042  0.00  0.00    +0.095 C 
ATOM     19  N   UNL     1      -3.776  -1.692  24.704  0.00  0.00    -0.279 N 
ATOM     20  C   UNL     1      -3.563  -1.258  25.372  0.00  0.00    +0.095 C 
ATOM     21  C   UNL     1      -3.659  -0.438  25.378  0.00  0.00    +0.039 C 
ATOM     22  C   UNL     1      -3.681  -2.511  24.697  0.00  0.00    +0.226 C 
ATOM     23  C   UNL     1      -3.894  -2.946  24.028  0.00  0.00    +0.095 C 
ATOM     24  O   UNL     1      -3.372  -2.897  25.358  0.00  0.00    -0.275 OA
ENDBRANCH  15  16
ENDBRANCH  14  15
ENDBRANCH  13  14
TORSDOF 7
ENDMDL
MODEL 2
REMARK VINA RESULT:      -9.5      1.493      3.332
REMARK  Name = 
REMARK  7 active torsions:
REMARK  status: ('A' for Active; 'I' for Inactive)
REMARK    1  A    between atoms: O_2  and  C_3
REMARK    2  A    between atoms: C_3  and  C_4
REMARK    3  A    between atoms: C_6  and  C_7
REMARK    4  A    between atoms: C_7  and  C_8
REMARK    5  A    between atoms: C_13  and  C_14
REMARK    6  A    between atoms: C_14  and  N_15
REMARK    7  A    between atoms: N_15  and  C_16
REMARK                            x       y       z     vdW  Elec       q    Type
REMARK                         _______ _______ _______ _____ _____    ______ ____
ROOT
ATOM      8  C   UNL     1      -1.782   3.466  25.470  0.00  0.00    +0.121 C 
ATOM      9  C   UNL     1      -1.161   3.937  25.198  0.00  0.00    +0.033 C 
ATOM     10  C   UNL     1      -0.509   3.589  24.832  0.00  0.00    +0.038 C 
ATOM     11  C   UNL     1      -0.476   2.770  24.738  0.00  0.00    +0.180 C 
ATOM     12  O   UNL     1       0.176   2.422  24.372  0.00  0.00    -0.220 OA
ATOM     13  C   UNL     1      -1.097   2.299  25.010  0.00  0.00    +0.163 C 
ATOM     25  O   UNL     1      -1.749   2.647  25.375  0.00  0.00    -0.354 OA
ENDROOT
BRANCH   8   7
ATOM      7  C   UNL     1      -2.434   3.814  25.836  0.00  0.00    +0.079 C 
BRANCH   7   6
ATOM      4  C   UNL     1      -4.461   3.433  25.286  0.00  0.00    +0.184 A 
ATOM      5  C   UNL     1      -3.830   3.353  25.810  0.00  0.00    +0.056 A 
ATOM      6  C   UNL     1      -3.182   3.753  25.492  0.00  0.00    +0.103 A 
ATOM     26  N   UNL     1      -3.413   4.081  24.772  0.00  0.00    -0.082 NA
ATOM     27  O   UNL     1      -4.204   3.883  24.643  0.00  0.00    -0.356 OA
BRANCH   4   3
ATOM      3  C   UNL     1      -5.218   3.119  25.385  0.00  0.00    +0.209 C 
BRANCH   3   2
ATOM      1  C   UNL     1      -6.135   2.039  25.205  0.00  0.00    +0.175 C 
ATOM      2  O   UNL     1      -5.418   2.403  25.027  0.00  0.00    -0.343 OA
ENDBRANCH   3   2
ENDBRANCH   4   3
ENDBRANCH   7   6
ENDBRANCH   8   7
BRANCH  13  14
ATOM     14  C   UNL     1      -1.065   1.480  24.916  0.00  0.00    +0.121 C 
BRANCH  14  15
ATOM     15  N   UNL     1      -1.425   0.986  25.470  0.00  0.00    -0.217 NA
BRANCH  15  16
ATOM     16  C   UNL     1      -1.603   0.205  25.271  0.00  0.00    +0.076 C 
ATOM     17  C   UNL     1      -2.373   0.000  25.057  0.00  0.00    +0.039 C 
ATOM     18  C   UNL     1      -2.551  -0.781  24.858  0.00  0.00    +0.095 C 
ATOM     19  N   UNL     1      -1.959  -1.356  24.874  0.00  0.00    -0.279 N 
ATOM     20  C   UNL     1      -1.190  -1.150  25.088  0.00  0.00    +0.095 C 
ATOM     21  C   UNL     1      -1.012  -0.369  25.287  0.00  0.00    +0.039 C 
ATOM     22  C   UNL     1      -2.138  -2.136  24.675  0.00  0.00    +0.226 C 
ATOM     23  C   UNL     1      -2.908  -2.342  24.460  0.00  0.00    +0.095 C 
ATOM     24  O   UNL     1      -1.547  -2.712  24.691  0.00  0.00    -0.275 OA
ENDBRANCH  15  16
ENDBRANCH  14  15
ENDBRANCH  13  14
TORSDOF 7
ENDMDL
MODEL 3
REMARK VINA RESULT:      -9.3      1.813      4.382
REMARK  Name = 
REMARK  7 active torsions:
REMARK  status: ('A' for Active; 'I' for Inactive)
REMARK    1  A    between atoms: O_2  and  C_3
REMARK    2  A    between atoms: C_3  and  C_4
REMARK    3  A    between atoms: C_6  and  C_7
REMARK    4  A    between atoms: C_7  and  C_8
REMARK    5  A    between atoms: C_13  and  C_14
REMARK    6  A    between atoms: C_14  and  N_15
REMARK    7  A    between atoms: N_15  and  C_16
REMARK                            x       y       z     vdW  Elec       q    Type
REMARK                         _______ _______ _______ _____ _____    ______ ____
ROOT
ATOM      8  C   UNL     1      -2.328  -1.556  24.882  0.00  0.00    +0.121 C 
ATOM      9  C   UNL     1      -2.551  -2.267  24.528  0.00  0.00    +0.033 C 
ATOM     10  C   UNL     1      -3.318  -2.360  24.236  0.00  0.00    +0.038 C 
ATOM     11  C   UNL     1      -3.860  -1.742  24.297  0.00  0.00    +0.180 C 
ATOM     12  O   UNL     1      -4.626  -1.834  24.005  0.00  0.00    -0.220 OA
ATOM     13  C   UNL     1      -3.636  -1.030  24.651  0.00  0.00    +0.163 C 
ATOM     25  O   UNL     1      -2.871  -0.938  24.943  0.00  0.00    -0.354 OA
ENDROOT
BRANCH   8   7
ATOM      7  C   UNL     1      -1.562  -1.464  25.174  0.00  0.00    +0.079 C 
BRANCH   7   6
ATOM      4  C   UNL     1      -0.286   0.107  24.495  0.00  0.00    +0.184 A 
ATOM      5  C   UNL     1      -0.831  -0.196  25.034  0.00  0.00    +0.056 A 
ATOM      6  C   UNL     1      -1.033  -0.959  24.793  0.00  0.00    +0.103 A 
ATOM     26  N   UNL     1      -0.612  -1.127  24.103  0.00  0.00    -0.082 NA
ATOM     27  O   UNL     1      -0.150  -0.469  23.919  0.00  0.00    -0.356 OA
BRANCH   4   3
ATOM      3  C   UNL     1       0.062   0.854  24.525  0.00  0.00    +0.209 C 
BRANCH   3   2
ATOM      1  C   UNL     1      -0.050   2.276  24.434  0.00  0.00    +0.175 C 
ATOM      2  O   UNL     1      -0.391   1.528  24.377  0.00  0.00    -0.343 OA
ENDBRANCH   3   2
ENDBRANCH   4   3
ENDBRANCH   7   6
ENDBRANCH   8   7
BRANCH  13  14
ATOM     14  C   UNL     1      -4.179  -0.412  24.712  0.00  0.00    +0.121 C 
BRANCH  14  15
ATOM     15  N   UNL     1      -4.049   0.294  24.305  0.00  0.00    -0.217 NA
BRANCH  15  16
ATOM     16  C   UNL     1      -4.339   1.004  24.609  0.00  0.00    +0.076 C 
ATOM     17  C   UNL     1      -3.940   1.710  24.456  0.00  0.00    +0.039 C 
ATOM     18  C   UNL     1      -4.229   2.421  24.760  0.00  0.00    +0.095 C 
ATOM     19  N   UNL     1      -4.917   2.425  25.216  0.00  0.00    -0.279 N 
ATOM     20  C   UNL     1      -5.315   1.719  25.369  0.00  0.00    +0.095 C 
ATOM     21  C   UNL     1      -5.025   1.008  25.065  0.00  0.00    +0.039 C 
ATOM     22  C   UNL     1      -5.206   3.136  25.520  0.00  0.00    +0.226 C 
ATOM     23  C   UNL     1      -4.808   3.842  25.367  0.00  0.00    +0.095 C 
ATOM     24  O   UNL     1      -5.893   3.141  25.976  0.00  0.00    -0.275 OA
ENDBRANCH  15  16
ENDBRANCH  14  15
ENDBRANCH  13  14
TORSDOF 7
ENDMDL
MODEL 4
REMARK VINA RESULT:      -8.9      1.957      5.482
REMARK  Name = 
REMARK  7 active torsions:
REMARK  status: ('A' for Active; 'I' for Inactive)
REMARK    1  A    between atoms: O_2  and  C_3
REMARK    2  A    between atoms: C_3  and  C_4
REMARK    3  A    between atoms: C_6  and  C_7
REMARK    4  A    between atoms: C_7  and  C_8
REMARK    5  A    between atoms: C_13  and  C_14
REMARK    6  A    between atoms: C_14  and  N_15
REMARK    7  A    between atoms: N_15  and  C_16
REMARK                            x       y       z     vdW  Elec       q    Type
REMARK                         _______ _______ _______ _____ _____    ______ ____
ROOT
ATOM      8  C   UNL     1      -2.076  -0.917  25.168  0.00  0.00    +0.121 C 
ATOM      9  C   UNL     1      -1.607  -1.526  24.869  0.00  0.00    +0.033 C 
ATOM     10  C   UNL     1      -0.860  -1.357  24.560  0.00  0.00    +0.038 C 
ATOM     11  C   UNL     1      -0.584  -0.580  24.551  0.00  0.00    +0.180 C 
ATOM     12  O   UNL     1       0.162  -0.411  24.242  0.00  0.00    -0.220 OA
ATOM     13  C   UNL     1      -1.054   0.029  24.850  0.00  0.00    +0.163 C 
ATOM     25  O   UNL     1      -1.800  -0.140  25.159  0.00  0.00    -0.354 OA
ENDROOT
BRANCH   8   7
ATOM      7  C   UNL     1      -2.823  -1.086  25.477  0.00  0.00    +0.079 C 
BRANCH   7   6
ATOM      4  C   UNL     1      -4.564   0.027  24.941  0.00  0.00    +0.184 A 
ATOM      5  C   UNL     1      -3.945  -0.135  25.461  0.00  0.00    +0.056 A 
ATOM      6  C   UNL     1      -3.496  -0.749  25.139  0.00  0.00    +0.103 A 
ATOM     26  N   UNL     1      -3.838  -0.965  24.420  0.00  0.00    -0.082 NA
ATOM     27  O   UNL     1      -4.498  -0.485  24.298  0.00  0.00    -0.356 OA
BRANCH   4   3
ATOM      3  C   UNL     1      -5.147   0.602  25.046  0.00  0.00    +0.209 C 
BRANCH   3   2
ATOM      1  C   UNL     1      -5.564   1.964  24.943  0.00  0.00    +0.175 C 
ATOM      2  O   UNL     1      -5.033   1.364  24.751  0.00  0.00    -0.343 OA
ENDBRANCH   3   2
ENDBRANCH   4   3
ENDBRANCH   7   6
ENDBRANCH   8   7
BRANCH  13  14
ATOM     14  C   UNL     1      -0.777   0.806  24.841  0.00  0.00    +0.121 C 
BRANCH  14  15
ATOM     15  N   UNL     1      -0.919   1.303  25.484  0.00  0.00    -0.217 NA
BRANCH  15  16
ATOM     16  C   UNL     1      -0.945   2.120  25.375  0.00  0.00    +0.076 C 
ATOM     17  C   UNL     1      -1.629   2.540  25.568  0.00  0.00    +0.039 C 
ATOM     18  C   UNL     1      -1.655   3.358  25.459  0.00  0.00    +0.095 C 
ATOM     19  N   UNL     1      -0.997   3.755  25.157  0.00  0.00    -0.279 N 
ATOM     20  C   UNL     1      -0.314   3.335  24.965  0.00  0.00    +0.095 C 
ATOM     21  C   UNL     1      -0.288   2.517  25.074  0.00  0.00    +0.039 C 
ATOM     22  C   UNL     1      -1.024   4.572  25.049  0.00  0.00    +0.226 C 
ATOM     23  C   UNL     1      -1.708   4.993  25.242  0.00  0.00    +0.095 C 
ATOM     24  O   UNL     1      -0.367   4.970  24.747  0.00  0.00    -0.275 OA
ENDBRANCH  15  16
ENDBRANCH  14  15
ENDBRANCH  13  14
TORSDOF 7
ENDMDL
MODEL 5
REMARK VINA RESULT:      -8.8      1.391      4.693
REMARK  Name = 
REMARK  7 active torsions:
REMARK  status: ('A' for Active; 'I' for Inactive)
REMARK    1  A    between atoms: O_2  and  C_3
REMARK    2  A    between atoms: C_3  and  C_4
REMARK    3  A    between atoms: C_6  and  C_7
REMARK    4  A    between atoms: C_7  and  C_8
REMARK    5  A    between atoms: C_13  and  C_14
REMARK    6  A    between atoms: C_14  and  N_15
REMARK    7  A    between atoms: N_15  and  C_16
REMARK                            x       y       z     vdW  Elec       q    Type
REMARK                         _______ _______ _______ _____ _____    ______ ____
ROOT
ATOM      8  C   UNL     1      -4.702   0.752  24.757  0.00  0.00    +0.121 C 
ATOM      9  C   UNL     1      -5.473   0.793  25.047  0.00  0.00    +0.033 C 
ATOM     10  C   UNL     1      -5.757   1.500  25.364  0.00  0.00    +0.038 C 
ATOM     11  C   UNL     1      -5.270   2.165  25.391  0.00  0.00    +0.180 C 
ATOM     12  O   UNL     1      -5.553   2.872  25.708  0.00  0.00    -0.220 OA
ATOM     13  C   UNL     1      -4.498   2.123  25.101  0.00  0.00    +0.163 C 
ATOM     25  O   UNL     1      -4.214   1.416  24.785  0.00  0.00    -0.354 OA
ENDROOT
BRANCH   8   7
ATOM      7  C   UNL     1      -4.418   0.044  24.441  0.00  0.00    +0.079 C 
BRANCH   7   6
ATOM      4  C   UNL     1      -2.774  -1.069  25.225  0.00  0.00    +0.184 A 
ATOM      5  C   UNL     1      -3.112  -0.604  24.635  0.00  0.00    +0.056 A 
ATOM      6  C   UNL     1      -3.881  -0.414  24.868  0.00  0.00    +0.103 A 
ATOM     26  N   UNL     1      -4.018  -0.762  25.603  0.00  0.00    -0.082 NA
ATOM     27  O   UNL     1      -3.334  -1.168  25.824  0.00  0.00    -0.356 OA
BRANCH   4   3
ATOM      3  C   UNL     1      -2.011  -1.382  25.219  0.00  0.00    +0.209 C 
BRANCH   3   2
ATOM      1  C   UNL     1      -0.597  -1.189  25.150  0.00  0.00    +0.175 C 
ATOM      2  O   UNL     1      -1.362  -0.885  25.106  0.00  0.00    -0.343 OA
ENDBRANCH   3   2
ENDBRANCH   4   3
ENDBRANCH   7   6
ENDBRANCH   8   7
BRANCH  13  14
ATOM     14  C   UNL     1      -4.011   2.788  25.129  0.00  0.00    +0.121 C 
BRANCH  14  15
ATOM     15  N   UNL     1      -3.286   2.753  25.521  0.00  0.00    -0.217 NA
BRANCH  15  16
ATOM     16  C   UNL     1      -2.708   3.322  25.370  0.00  0.00    +0.076 C 
ATOM     17  C   UNL     1      -1.989   3.098  25.032  0.00  0.00    +0.039 C 
ATOM     18  C   UNL     1      -1.410   3.667  24.880  0.00  0.00    +0.095 C 
ATOM     19  N   UNL     1      -1.551   4.459  25.066  0.00  0.00    -0.279 N 
ATOM     20  C   UNL     1      -2.269   4.681  25.404  0.00  0.00    +0.095 C 
ATOM     21  C   UNL     1      -2.848   4.113  25.556  0.00  0.00    +0.039 C 
ATOM     22  C   UNL     1      -0.972   5.026  24.915  0.00  0.00    +0.226 C 
ATOM     23  C   UNL     1      -0.253   4.803  24.576  0.00  0.00    +0.095 C 
ATOM     24  O   UNL     1      -1.112   5.818  25.100  0.00  0.00    -0.275 OA
ENDBRANCH  15  16
ENDBRANCH  14  15
ENDBRANCH  13  14
TORSDOF 7
ENDMDL
MODEL 6
REMARK VINA RESULT:      -8.7      1.920      4.882
REMARK  Name = 
REMARK  7 active torsions:
REMARK  status: ('A' for Active; 'I' for Inactive)
REMARK    1  A    between atoms: O_2  and  C_3
REMARK    2  A    between atoms: C_3  and  C_4
REMARK    3  A    between atoms: C_6  and  C_7
REMARK    4  A    between atoms: C_7  and  C_8
REMARK    5  A    between atoms: C_13  and  C_14
REMARK    6  A    between atoms: C_14  and  N_15
REMARK    7  A    between atoms: N_15  and  C_16
REMARK                            x       y       z     vdW  Elec       q    Type
REMARK                         _______ _______ _______ _____ _____    ______ ____
ROOT
ATOM      8  C   UNL     1      -0.471   1.010  24.275  0.00  0.00    +0.121 C 
ATOM      9  C   UNL     1       0.231   1.378  24.503  0.00  0.00    +0.033 C 
ATOM     10  C   UNL     1       0.207   2.100  24.902  0.00  0.00    +0.038 C 
ATOM     11  C   UNL     1      -0.518   2.453  25.073  0.00  0.00    +0.180 C 
ATOM     12  O   UNL     1      -0.542   3.175  25.471  0.00  0.00    -0.220 OA
ATOM     13  C   UNL     1      -1.220   2.084  24.844  0.00  0.00    +0.163 C 
ATOM     25  O   UNL     1      -1.196   1.363  24.446  0.00  0.00    -0.354 OA
ENDROOT
BRANCH   8   7
ATOM      7  C   UNL     1      -0.447   0.287  23.876  0.00  0.00    +0.079 C 
BRANCH   7   6
ATOM      4  C   UNL     1      -1.336  -1.504  24.623  0.00  0.00    +0.184 A 
ATOM      5  C   UNL     1      -1.335  -0.861  24.105  0.00  0.00    +0.056 A 
ATOM      6  C   UNL     1      -0.665  -0.407  24.264  0.00  0.00    +0.103 A 
ATOM     26  N   UNL     1      -0.252  -0.768  24.880  0.00  0.00    -0.082 NA
ATOM     27  O   UNL     1      -0.666  -1.446  25.102  0.00  0.00    -0.356 OA
BRANCH   4   3
ATOM      3  C   UNL     1      -1.906  -2.099  24.656  0.00  0.00    +0.209 C 
BRANCH   3   2
ATOM      1  C   UNL     1      -3.224  -2.532  24.996  0.00  0.00    +0.175 C 
ATOM      2  O   UNL     1      -2.650  -1.942  24.979  0.00  0.00    -0.343 OA
ENDBRANCH   3   2
ENDBRANCH   4   3
ENDBRANCH   7   6
ENDBRANCH   8   7
BRANCH  13  14
ATOM     14  C   UNL     1      -1.946   2.438  25.015  0.00  0.00    +0.121 C 
BRANCH  14  15
ATOM     15  N   UNL     1      -2.576   2.363  24.487  0.00  0.00    -0.217 NA
BRANCH  15  16
ATOM     16  C   UNL     1      -3.346   2.513  24.742  0.00  0.00    +0.076 C 
ATOM     17  C   UNL     1      -3.902   1.902  24.755  0.00  0.00    +0.039 C 
ATOM     18  C   UNL     1      -4.672   2.051  25.010  0.00  0.00    +0.095 C 
ATOM     19  N   UNL     1      -4.887   2.811  25.252  0.00  0.00    -0.279 N 
ATOM     20  C   UNL     1      -4.332   3.420  25.239  0.00  0.00    +0.095 C 
ATOM     21  C   UNL     1      -3.561   3.271  24.984  0.00  0.00    +0.039 C 
ATOM     22  C   UNL     1      -5.657   2.960  25.506  0.00  0.00    +0.226 C 
ATOM     23  C   UNL     1      -6.213   2.349  25.519  0.00  0.00    +0.095 C 
ATOM     24  O   UNL     1      -5.873   3.718  25.748  0.00  0.00    -0.275 OA
ENDBRANCH  15  16
ENDBRANCH  14  15
ENDBRANCH  13  14
TORSDOF 7
ENDMDL
MODEL 7
REMARK VINA RESULT:      -8.7      2.113      4.199
REMARK  Name = 
REMARK  7 active torsions:
REMARK  status: ('A' for Active; 'I' for Inactive)
REMARK    1  A    between atoms: O_2  and  C_3
REMARK    2  A    between atoms: C_3  and  C_4
REMARK    3  A    between atoms: C_6  and  C_7
REMARK    4  A    between atoms: C_7  and  C_8
REMARK    5  A    between atoms: C_13  and  C_14
REMARK    6  A    between atoms: C_14  and  N_15
REMARK    7  A    between atoms: N_15  and  C_16
REMARK                            x       y       z     vdW  Elec       q    Type
REMARK                         _______ _______ _______ _____ _____    ______ ____
ROOT
ATOM      8  C   UNL     1      -0.590   3.185  25.474  0.00  0.00    +0.121 C 
ATOM      9  C   UNL     1      -0.168   3.850  25.228  0.00  0.00    +0.033 C 
ATOM     10  C   UNL     1      -0.569   4.548  25.046  0.00  0.00    +0.038 C 
ATOM     11  C   UNL     1      -1.390   4.581  25.110  0.00  0.00    +0.180 C 
ATOM     12  O   UNL     1      -1.790   5.279  24.928  0.00  0.00    -0.220 OA
ATOM     13  C   UNL     1      -1.812   3.916  25.356  0.00  0.00    +0.163 C 
ATOM     25  O   UNL     1      -1.412   3.218  25.538  0.00  0.00    -0.354 OA
ENDROOT
BRANCH   8   7
ATOM      7  C   UNL     1      -0.190   2.487  25.656  0.00  0.00    +0.079 C 
BRANCH   7   6
ATOM      4  C   UNL     1      -0.540   0.642  24.639  0.00  0.00    +0.184 A 
ATOM      5  C   UNL     1      -0.639   1.135  25.293  0.00  0.00    +0.056 A 
ATOM      6  C   UNL     1      -0.236   1.839  25.147  0.00  0.00    +0.103 A 
ATOM     26  N   UNL     1       0.114   1.783  24.401  0.00  0.00    -0.082 NA
ATOM     27  O   UNL     1      -0.074   1.043  24.088  0.00  0.00    -0.356 OA
BRANCH   4   3
ATOM      3  C   UNL     1      -0.850  -0.117  24.551  0.00  0.00    +0.209 C 
BRANCH   3   2
ATOM      1  C   UNL     1      -0.802  -1.514  24.847  0.00  0.00    +0.175 C 
ATOM      2  O   UNL     1      -0.471  -0.761  24.902  0.00  0.00    -0.343 OA
ENDBRANCH   3   2
ENDBRANCH   4   3
ENDBRANCH   7   6
ENDBRANCH   8   7
BRANCH  13  14
ATOM     14  C   UNL     1      -2.634   3.949  25.420  0.00  0.00    +0.121 C 
BRANCH  14  15
ATOM     15  N   UNL     1      -3.108   3.632  24.824  0.00  0.00    -0.217 NA
BRANCH  15  16
ATOM     16  C   UNL     1      -3.827   3.277  25.015  0.00  0.00    +0.076 C 
ATOM     17  C   UNL     1      -4.124   2.669  24.542  0.00  0.00    +0.039 C 
ATOM     18  C   UNL     1      -4.844   2.313  24.732  0.00  0.00    +0.095 C 
ATOM     19  N   UNL     1      -5.266   2.564  25.395  0.00  0.00    -0.279 N 
ATOM     20  C   UNL     1      -4.969   3.171  25.868  0.00  0.00    +0.095 C 
ATOM     21  C   UNL     1      -4.249   3.528  25.677  0.00  0.00    +0.039 C 
ATOM     22  C   UNL     1      -5.985   2.208  25.585  0.00  0.00    +0.226 C 
ATOM     23  C   UNL     1      -6.283   1.600  25.113  0.00  0.00    +0.095 C 
ATOM     24  O   UNL     1      -6.408   2.459  26.248  0.00  0.00    -0.275 OA
ENDBRANCH  15  16
ENDBRANCH  14  15
ENDBRANCH  13  14
TORSDOF 7
ENDMDL
MODEL 8
REMARK VINA RESULT:      -7.1     15.952     19.051
REMARK  Name = 
REMARK  7 active torsions:
REMARK  status: ('A' for Active; 'I' for Inactive)
REMARK    1  A    between atoms: O_2  and  C_3
REMARK    2  A    between atoms: C_3  and  C_4
REMARK    3  A    between atoms: C_6  and  C_7
REMARK    4  A    between atoms: C_7  and  C_8
REMARK    5  A    between atoms: C_13  and  C_14
REMARK    6  A    between atoms: C_14  and  N_15
REMARK    7  A    between atoms: N_15  and  C_16
REMARK                            x       y       z     vdW  Elec       q    Type
REMARK                         _______ _______ _______ _____ _____    ______ ____
ROOT
ATOM      8  C   UNL     1      14.735   7.808  18.629  0.00  0.00    +0.121 C 
ATOM      9  C   UNL     1      15.354   7.263  18.650  0.00  0.00    +0.033 C 
ATOM     10  C   UNL     1      15.400   6.715  19.266  0.00  0.00    +0.038 C 
ATOM     11  C   UNL     1      14.827   6.712  19.860  0.00  0.00    +0.180 C 
ATOM     12  O   UNL     1      14.873   6.165  20.475  0.00  0.00    -0.220 OA
ATOM     13  C   UNL     1      14.208   7.258  19.838  0.00  0.00    +0.163 C 
ATOM     25  O   UNL     1      14.162   7.805  19.223  0.00  0.00    -0.354 OA
ENDROOT
BRANCH   8   7
ATOM      7  C   UNL     1      14.689   8.356  18.013  0.00  0.00    +0.079 C 
BRANCH   7   6
ATOM      4  C   UNL     1      12.998   8.608  16.736  0.00  0.00    +0.184 A 
ATOM      5  C   UNL     1      13.497   8.881  17.333  0.00  0.00    +0.056 A 
ATOM      6  C   UNL     1      14.077   8.309  17.463  0.00  0.00    +0.103 A 
ATOM     26  N   UNL     1      13.936   7.681  16.947  0.00  0.00    -0.082 NA
ATOM     27  O   UNL     1      13.269   7.866  16.497  0.00  0.00    -0.356 OA
BRANCH   4   3
ATOM      3  C   UNL     1      12.342   9.006  16.432  0.00  0.00    +0.209 C 
BRANCH   3   2
ATOM      1  C   UNL     1      10.978   8.996  16.008  0.00  0.00    +0.175 C 
ATOM      2  O   UNL     1      11.619   8.615  16.359  0.00  0.00    -0.343 OA
ENDBRANCH   3   2
ENDBRANCH   4   3
ENDBRANCH   7   6
ENDBRANCH   8   7
BRANCH  13  14
ATOM     14  C   UNL     1      13.636   7.255  20.431  0.00  0.00    +0.121 C 
BRANCH  14  15
ATOM     15  N   UNL     1      12.835   7.225  20.233  0.00  0.00    -0.217 NA
BRANCH  15  16
ATOM     16  C   UNL     1      12.264   7.423  20.794  0.00  0.00    +0.076 C 
ATOM     17  C   UNL     1      12.310   8.146  21.190  0.00  0.00    +0.039 C 
ATOM     18  C   UNL     1      11.739   8.344  21.752  0.00  0.00    +0.095 C 
ATOM     19  N   UNL     1      11.122   7.821  21.917  0.00  0.00    -0.279 N 
ATOM     20  C   UNL     1      11.077   7.099  21.521  0.00  0.00    +0.095 C 
ATOM     21  C   UNL     1      11.648   6.900  20.959  0.00  0.00    +0.039 C 
ATOM     22  C   UNL     1      10.552   8.020  22.479  0.00  0.00    +0.226 C 
ATOM     23  C   UNL     1      10.597   8.742  22.875  0.00  0.00    +0.095 C 
ATOM     24  O   UNL     1       9.936   7.497  22.644  0.00  0.00    -0.275 OA
ENDBRANCH  15  16
ENDBRANCH  14  15
ENDBRANCH  13  14
TORSDOF 7
ENDMDL
