REMARK  Name = 
REMARK  7 active torsions:
REMARK  status: ('A' for Active; 'I' for Inactive)
REMARK    1  A    between atoms: C_2  and  C_3
REMARK    2  A    between atoms: C_5  and  C_6
REMARK    3  A    between atoms: C_6  and  N_7
REMARK    4  A    between atoms: C_8  and  C_10
REMARK    5  A    between atoms: C_19  and  N_22
REMARK    6  A    between atoms: N_25  and  C_28
REMARK    7  A    between atoms: C_30  and  C_34
REMARK                            x       y       z     vdW  Elec       q    Type
REMARK                         _______ _______ _______ _____ _____    ______ ____
ROOT
ATOM      3  C   UNL     1       3.087  -2.634   0.000  0.00  0.00    +0.180 C 
ATOM      4  O   UNL     1       2.832  -1.849   0.000  0.00  0.00    -0.350 OA
ATOM      5  C   UNL     1       3.499  -1.365   0.000  0.00  0.00    +0.154 C 
ATOM     19  C   UNL     1       4.166  -1.849   0.000  0.00  0.00    +0.120 C 
ATOM     20  C   UNL     1       3.912  -2.634   0.000  0.00  0.00    +0.198 C 
ATOM     21  O   UNL     1       4.396  -3.301   0.000  0.00  0.00    -0.219 OA
ENDROOT
BRANCH  19  22
ATOM     22  N   UNL     1       4.951  -1.595   0.000  0.00  0.00    -0.267 NA
ATOM     23  C   UNL     1       5.123  -0.788   0.000  0.00  0.00    +0.094 C 
ATOM     24  C   UNL     1       5.907  -0.533   0.000  0.00  0.00    +0.108 C 
ATOM     25  N   UNL     1       6.520  -1.085   0.000  0.00  0.00    -0.305 N 
ATOM     26  C   UNL     1       6.349  -1.892   0.000  0.00  0.00    +0.108 C 
ATOM     27  C   UNL     1       5.564  -2.147   0.000  0.00  0.00    +0.094 C 
BRANCH  25  28
ATOM     28  C   UNL     1       7.305  -0.830   0.000  0.00  0.00    +0.048 A 
ATOM     29  C   UNL     1       7.476  -0.023   0.000  0.00  0.00    +0.018 A 
ATOM     30  C   UNL     1       8.261   0.232   0.000  0.00  0.00    +0.073 A 
ATOM     31  C   UNL     1       8.874  -0.320   0.000  0.00  0.00    +0.004 A 
ATOM     32  C   UNL     1       8.703  -1.127   0.000  0.00  0.00    +0.001 A 
ATOM     33  C   UNL     1       7.918  -1.382   0.000  0.00  0.00    +0.015 A 
BRANCH  30  34
ATOM     34  C   UNL     1       8.433   1.039   0.000  0.00  0.00    +0.419 C 
ATOM     35  F   UNL     1       8.604   1.846   0.000  0.00  0.00    -0.166 F 
ATOM     36  F   UNL     1       9.240   0.868   0.000  0.00  0.00    -0.166 F 
ATOM     37  F   UNL     1       7.626   1.211   0.000  0.00  0.00    -0.166 F 
ENDBRANCH  30  34
ENDBRANCH  25  28
ENDBRANCH  19  22
BRANCH   3   2
ATOM      1  O   UNL     1       2.937  -4.055   0.000  0.00  0.00    -0.218 OA
ATOM      2  C   UNL     1       2.602  -3.301   0.000  0.00  0.00    +0.214 C 
ENDBRANCH   3   2
BRANCH   5   6
ATOM      6  C   UNL     1       3.499  -0.540   0.000  0.00  0.00    +0.146 C 
BRANCH   6   7
ATOM      7  N   UNL     1       2.784  -0.127   0.000  0.00  0.00    -0.199 NA
ATOM      8  C   UNL     1       2.784   0.698   0.000  0.00  0.00    +0.265 C 
ATOM      9  O   UNL     1       3.499   1.110   0.000  0.00  0.00    -0.268 OA
BRANCH   8  10
ATOM     10  C   UNL     1       2.070   1.110   0.000  0.00  0.00    +0.057 A 
ATOM     11  C   UNL     1       1.356   0.698   0.000  0.00  0.00    +0.025 A 
ATOM     12  C   UNL     1       0.641   1.110   0.000  0.00  0.00    +0.101 A 
ATOM     13  C   UNL     1       0.641   1.935   0.000  0.00  0.00    +0.101 A 
ATOM     14  C   UNL     1       1.356   2.348   0.000  0.00  0.00    +0.021 A 
ATOM     15  C   UNL     1       2.070   1.935   0.000  0.00  0.00    +0.006 A 
ATOM     16  N   UNL     1      -0.143   2.190   0.000  0.00  0.00    -0.222 NA
ATOM     17  C   UNL     1      -0.628   1.523   0.000  0.00  0.00    +0.199 A 
ATOM     18  N   UNL     1      -0.143   0.856   0.000  0.00  0.00    -0.222 NA
ENDBRANCH   8  10
ENDBRANCH   6   7
ENDBRANCH   5   6
TORSDOF 7
