MODEL 1
REMARK VINA RESULT:     -17.2      0.000      0.000
REMARK  Name = 
REMARK  4 active torsions:
REMARK  status: ('A' for Active; 'I' for Inactive)
REMARK    1  A    between atoms: C_5  and  N_6
REMARK    2  A    between atoms: C_18  and  C_23
REMARK    3  A    between atoms: C_26  and  O_27
REMARK    4  A    between atoms: O_27  and  C_28
REMARK                            x       y       z     vdW  Elec       q    Type
REMARK                         _______ _______ _______ _____ _____    ______ ____
ROOT
ATOM      6  N   UNL     1      -2.213   2.371  24.921  0.00  0.00    -0.162 NA
ATOM      7  C   UNL     1      -3.030   2.294  25.001  0.00  0.00    +0.327 C 
ATOM      8  O   UNL     1      -3.386   1.554  24.917  0.00  0.00    -0.250 OA
ATOM      9  N   UNL     1      -3.492   2.958  25.165  0.00  0.00    -0.262 N 
ATOM     10  C   UNL     1      -3.681   3.757  25.321  0.00  0.00    +0.097 C 
ATOM     11  C   UNL     1      -4.661   3.679  25.420  0.00  0.00    +0.043 C 
ATOM     12  C   UNL     1      -5.462   3.783  25.529  0.00  0.00    +0.011 C 
ATOM     13  C   UNL     1      -5.021   3.255  25.390  0.00  0.00    +0.058 C 
ATOM     14  C   UNL     1      -4.075   3.346  25.297  0.00  0.00    +0.101 C 
ATOM     15  C   UNL     1      -5.008   2.349  25.236  0.00  0.00    +0.041 A 
ATOM     16  C   UNL     1      -5.515   1.700  25.185  0.00  0.00    +0.013 A 
ATOM     17  C   UNL     1      -5.211   0.951  25.024  0.00  0.00    +0.006 A 
ATOM     18  C   UNL     1      -4.400   0.849  24.915  0.00  0.00    +0.056 A 
ATOM     19  C   UNL     1      -3.892   1.498  24.966  0.00  0.00    +0.261 A 
ATOM     20  O   UNL     1      -3.157   1.152  24.824  0.00  0.00    -0.267 OA
ATOM     21  N   UNL     1      -4.197   2.247  25.126  0.00  0.00    -0.299 N 
ATOM     22  C   UNL     1      -4.638   2.733  25.258  0.00  0.00    +0.110 C 
ENDROOT
BRANCH   6   5
ATOM      1  C   UNL     1      -0.365  -0.283  24.263  0.00  0.00    +0.031 C 
ATOM      2  C   UNL     1      -0.827   0.380  24.427  0.00  0.00    -0.022 A 
ATOM      3  C   UNL     1      -1.136   0.831  23.810  0.00  0.00    -0.003 A 
ATOM      4  C   UNL     1      -1.598   1.494  23.973  0.00  0.00    +0.016 A 
ATOM      5  C   UNL     1      -1.751   1.707  24.756  0.00  0.00    +0.075 A 
ATOM     34  C   UNL     1      -1.441   1.256  25.375  0.00  0.00    +0.016 A 
ATOM     35  C   UNL     1      -0.980   0.593  25.210  0.00  0.00    -0.003 A 
ENDBRANCH   6   5
BRANCH  18  23
ATOM     23  C   UNL     1      -4.096   0.099  24.754  0.00  0.00    +0.005 A 
ATOM     24  C   UNL     1      -3.860  -0.391  25.374  0.00  0.00    +0.003 A 
ATOM     25  C   UNL     1      -3.556  -1.141  25.214  0.00  0.00    +0.037 A 
ATOM     26  C   UNL     1      -3.489  -1.401  24.435  0.00  0.00    +0.147 A 
ATOM     32  C   UNL     1      -3.725  -0.911  23.814  0.00  0.00    +0.037 A 
ATOM     33  C   UNL     1      -4.029  -0.160  23.974  0.00  0.00    +0.003 A 
BRANCH  26  27
ATOM     27  O   UNL     1      -3.185  -2.152  24.274  0.00  0.00    -0.404 OA
BRANCH  27  28
ATOM     28  C   UNL     1      -3.602  -2.823  24.509  0.00  0.00    +0.575 C 
ATOM     29  F   UNL     1      -4.018  -3.495  24.747  0.00  0.00    -0.133 F 
ATOM     30  F   UNL     1      -3.144  -2.866  25.195  0.00  0.00    -0.133 F 
ATOM     31  F   UNL     1      -4.059  -2.780  23.825  0.00  0.00    -0.133 F 
ENDBRANCH  27  28
ENDBRANCH  26  27
ENDBRANCH  18  23
TORSDOF 4
ENDMDL
MODEL 2
REMARK VINA RESULT:     -16.7      2.519      4.212
REMARK  Name = 
REMARK  4 active torsions:
REMARK  status: ('A' for Active; 'I' for Inactive)
REMARK    1  A    between atoms: C_5  and  N_6
REMARK    2  A    between atoms: C_18  and  C_23
REMARK    3  A    between atoms: C_26  and  O_27
REMARK    4  A    between atoms: O_27  and  C_28
REMARK                            x       y       z     vdW  Elec       q    Type
REMARK                         _______ _______ _______ _____ _____    ______ ____
ROOT
ATOM      6  N   UNL     1      -1.087  -0.626  24.932  0.00  0.00    -0.162 NA
ATOM      7  C   UNL     1      -1.862  -0.835  24.742  0.00  0.00    +0.327 C 
ATOM      8  O   UNL     1      -2.416  -0.250  24.565  0.00  0.00    -0.250 OA
ATOM      9  N   UNL     1      -2.083  -1.630  24.730  0.00  0.00    -0.262 N 
ATOM     10  C   UNL     1      -2.011  -2.460  24.796  0.00  0.00    +0.097 C 
ATOM     11  C   UNL     1      -2.936  -2.725  24.571  0.00  0.00    +0.043 C 
ATOM     12  C   UNL     1      -3.641  -3.101  24.409  0.00  0.00    +0.011 C 
ATOM     13  C   UNL     1      -3.398  -2.443  24.435  0.00  0.00    +0.058 C 
ATOM     14  C   UNL     1      -2.500  -2.203  24.654  0.00  0.00    +0.101 C 
ATOM     15  C   UNL     1      -3.664  -1.571  24.316  0.00  0.00    +0.041 A 
ATOM     16  C   UNL     1      -4.329  -1.126  24.118  0.00  0.00    +0.013 A 
ATOM     17  C   UNL     1      -4.279  -0.303  24.084  0.00  0.00    +0.006 A 
ATOM     18  C   UNL     1      -3.564   0.075  24.248  0.00  0.00    +0.056 A 
ATOM     19  C   UNL     1      -2.899  -0.371  24.446  0.00  0.00    +0.261 A 
ATOM     20  O   UNL     1      -2.329   0.214  24.561  0.00  0.00    -0.267 OA
ATOM     21  N   UNL     1      -2.949  -1.193  24.480  0.00  0.00    -0.299 N 
ATOM     22  C   UNL     1      -3.205  -1.811  24.449  0.00  0.00    +0.110 C 
ENDROOT
BRANCH   6   5
ATOM      1  C   UNL     1      -0.202   2.553  24.980  0.00  0.00    +0.031 C 
ATOM      2  C   UNL     1      -0.423   1.759  24.967  0.00  0.00    -0.022 A 
ATOM      3  C   UNL     1      -0.343   1.318  24.275  0.00  0.00    -0.003 A 
ATOM      4  C   UNL     1      -0.564   0.524  24.262  0.00  0.00    +0.016 A 
ATOM      5  C   UNL     1      -0.866   0.169  24.944  0.00  0.00    +0.075 A 
ATOM     34  C   UNL     1      -0.946   0.609  25.638  0.00  0.00    +0.016 A 
ATOM     35  C   UNL     1      -0.724   1.404  25.649  0.00  0.00    -0.003 A 
ENDBRANCH   6   5
BRANCH  18  23
ATOM     23  C   UNL     1      -3.515   0.897  24.214  0.00  0.00    +0.005 A 
ATOM     24  C   UNL     1      -3.679   1.348  24.885  0.00  0.00    +0.003 A 
ATOM     25  C   UNL     1      -3.630   2.170  24.852  0.00  0.00    +0.037 A 
ATOM     26  C   UNL     1      -3.418   2.543  24.147  0.00  0.00    +0.147 A 
ATOM     32  C   UNL     1      -3.254   2.093  23.475  0.00  0.00    +0.037 A 
ATOM     33  C   UNL     1      -3.303   1.269  23.509  0.00  0.00    +0.003 A 
BRANCH  26  27
ATOM     27  O   UNL     1      -3.369   3.366  24.114  0.00  0.00    -0.404 OA
BRANCH  27  28
ATOM     28  C   UNL     1      -3.859   3.827  24.590  0.00  0.00    +0.575 C 
ATOM     29  F   UNL     1      -4.349   4.289  25.068  0.00  0.00    -0.133 F 
ATOM     30  F   UNL     1      -3.256   3.890  25.149  0.00  0.00    -0.133 F 
ATOM     31  F   UNL     1      -4.462   3.764  24.031  0.00  0.00    -0.133 F 
ENDBRANCH  27  28
ENDBRANCH  26  27
ENDBRANCH  18  23
TORSDOF 4
ENDMDL
MODEL 3
REMARK VINA RESULT:     -16.5      1.667      2.962
REMARK  Name = 
REMARK  4 active torsions:
REMARK  status: ('A' for Active; 'I' for Inactive)
REMARK    1  A    between atoms: C_5  and  N_6
REMARK    2  A    between atoms: C_18  and  C_23
REMARK    3  A    between atoms: C_26  and  O_27
REMARK    4  A    between atoms: O_27  and  C_28
REMARK                            x       y       z     vdW  Elec       q    Type
REMARK                         _______ _______ _______ _____ _____    ______ ____
ROOT
ATOM      6  N   UNL     1      -4.712   0.153  25.060  0.00  0.00    -0.162 NA
ATOM      7  C   UNL     1      -4.439   0.931  25.055  0.00  0.00    +0.327 C 
ATOM      8  O   UNL     1      -3.638   1.087  24.929  0.00  0.00    -0.250 OA
ATOM      9  N   UNL     1      -4.966   1.554  25.177  0.00  0.00    -0.262 N 
ATOM     10  C   UNL     1      -5.690   1.945  25.319  0.00  0.00    +0.097 C 
ATOM     11  C   UNL     1      -5.376   2.882  25.316  0.00  0.00    +0.043 C 
ATOM     12  C   UNL     1      -5.281   3.691  25.343  0.00  0.00    +0.011 C 
ATOM     13  C   UNL     1      -4.879   3.124  25.245  0.00  0.00    +0.058 C 
ATOM     14  C   UNL     1      -5.198   2.224  25.251  0.00  0.00    +0.101 C 
ATOM     15  C   UNL     1      -4.008   2.877  25.086  0.00  0.00    +0.041 A 
ATOM     16  C   UNL     1      -3.259   3.204  24.977  0.00  0.00    +0.013 A 
ATOM     17  C   UNL     1      -2.610   2.713  24.842  0.00  0.00    +0.006 A 
ATOM     18  C   UNL     1      -2.710   1.894  24.816  0.00  0.00    +0.056 A 
ATOM     19  C   UNL     1      -3.460   1.567  24.924  0.00  0.00    +0.261 A 
ATOM     20  O   UNL     1      -3.306   0.759  24.856  0.00  0.00    -0.267 OA
ATOM     21  N   UNL     1      -4.109   2.058  25.059  0.00  0.00    -0.299 N 
ATOM     22  C   UNL     1      -4.470   2.614  25.150  0.00  0.00    +0.110 C 
ENDROOT
BRANCH   6   5
ATOM      1  C   UNL     1      -2.603  -2.338  24.573  0.00  0.00    +0.031 C 
ATOM      2  C   UNL     1      -3.130  -1.716  24.694  0.00  0.00    -0.022 A 
ATOM      3  C   UNL     1      -3.522  -1.376  24.054  0.00  0.00    -0.003 A 
ATOM      4  C   UNL     1      -4.049  -0.753  24.175  0.00  0.00    +0.016 A 
ATOM      5  C   UNL     1      -4.184  -0.470  24.938  0.00  0.00    +0.075 A 
ATOM     34  C   UNL     1      -3.792  -0.810  25.580  0.00  0.00    +0.016 A 
ATOM     35  C   UNL     1      -3.265  -1.432  25.458  0.00  0.00    -0.003 A 
ENDBRANCH   6   5
BRANCH  18  23
ATOM     23  C   UNL     1      -2.061   1.404  24.681  0.00  0.00    +0.005 A 
ATOM     24  C   UNL     1      -1.855   1.197  23.909  0.00  0.00    +0.003 A 
ATOM     25  C   UNL     1      -1.206   0.707  23.773  0.00  0.00    +0.037 A 
ATOM     26  C   UNL     1      -0.763   0.423  24.409  0.00  0.00    +0.147 A 
ATOM     32  C   UNL     1      -0.969   0.629  25.180  0.00  0.00    +0.037 A 
ATOM     33  C   UNL     1      -1.619   1.120  25.316  0.00  0.00    +0.003 A 
BRANCH  26  27
ATOM     27  O   UNL     1      -0.113  -0.068  24.273  0.00  0.00    -0.404 OA
BRANCH  27  28
ATOM     28  C   UNL     1       0.259  -0.064  23.537  0.00  0.00    +0.575 C 
ATOM     29  F   UNL     1       0.630  -0.062  22.800  0.00  0.00    -0.133 F 
ATOM     30  F   UNL     1      -0.147  -0.752  23.330  0.00  0.00    -0.133 F 
ATOM     31  F   UNL     1       0.664   0.623  23.744  0.00  0.00    -0.133 F 
ENDBRANCH  27  28
ENDBRANCH  26  27
ENDBRANCH  18  23
TORSDOF 4
ENDMDL
MODEL 4
REMARK VINA RESULT:     -16.2      2.442      4.575
REMARK  Name = 
REMARK  4 active torsions:
REMARK  status: ('A' for Active; 'I' for Inactive)
REMARK    1  A    between atoms: C_5  and  N_6
REMARK    2  A    between atoms: C_18  and  C_23
REMARK    3  A    between atoms: C_26  and  O_27
REMARK    4  A    between atoms: O_27  and  C_28
REMARK                            x       y       z     vdW  Elec       q    Type
REMARK                         _______ _______ _______ _____ _____    ______ ____
ROOT
ATOM      6  N   UNL     1      -4.195   0.358  24.126  0.00  0.00    -0.162 NA
ATOM      7  C   UNL     1      -3.663  -0.252  24.281  0.00  0.00    +0.327 C 
ATOM      8  O   UNL     1      -2.886  -0.076  24.500  0.00  0.00    -0.250 OA
ATOM      9  N   UNL     1      -3.905  -1.038  24.218  0.00  0.00    -0.262 N 
ATOM     10  C   UNL     1      -4.411  -1.689  24.079  0.00  0.00    +0.097 C 
ATOM     11  C   UNL     1      -3.782  -2.429  24.263  0.00  0.00    +0.043 C 
ATOM     12  C   UNL     1      -3.398  -3.137  24.377  0.00  0.00    +0.011 C 
ATOM     13  C   UNL     1      -3.246  -2.453  24.415  0.00  0.00    +0.058 C 
ATOM     14  C   UNL     1      -3.866  -1.749  24.234  0.00  0.00    +0.101 C 
ATOM     15  C   UNL     1      -2.556  -1.877  24.606  0.00  0.00    +0.041 A 
ATOM     16  C   UNL     1      -1.763  -1.880  24.831  0.00  0.00    +0.013 A 
ATOM     17  C   UNL     1      -1.362  -1.167  24.939  0.00  0.00    +0.006 A 
ATOM     18  C   UNL     1      -1.755  -0.451  24.823  0.00  0.00    +0.056 A 
ATOM     19  C   UNL     1      -2.549  -0.448  24.598  0.00  0.00    +0.261 A 
ATOM     20  O   UNL     1      -2.710   0.359  24.547  0.00  0.00    -0.267 OA
ATOM     21  N   UNL     1      -2.949  -1.161  24.490  0.00  0.00    -0.299 N 
ATOM     22  C   UNL     1      -3.068  -1.819  24.461  0.00  0.00    +0.110 C 
ENDROOT
BRANCH   6   5
ATOM      1  C   UNL     1      -3.225   3.502  24.378  0.00  0.00    +0.031 C 
ATOM      2  C   UNL     1      -3.467   2.717  24.315  0.00  0.00    -0.022 A 
ATOM      3  C   UNL     1      -3.799   2.333  24.966  0.00  0.00    -0.003 A 
ATOM      4  C   UNL     1      -4.042   1.548  24.903  0.00  0.00    +0.016 A 
ATOM      5  C   UNL     1      -3.953   1.144  24.189  0.00  0.00    +0.075 A 
ATOM     34  C   UNL     1      -3.620   1.527  23.537  0.00  0.00    +0.016 A 
ATOM     35  C   UNL     1      -3.378   2.313  23.601  0.00  0.00    -0.003 A 
ENDBRANCH   6   5
BRANCH  18  23
ATOM     23  C   UNL     1      -1.354   0.261  24.931  0.00  0.00    +0.005 A 
ATOM     24  C   UNL     1      -1.354   0.625  25.672  0.00  0.00    +0.003 A 
ATOM     25  C   UNL     1      -0.953   1.338  25.781  0.00  0.00    +0.037 A 
ATOM     26  C   UNL     1      -0.552   1.686  25.150  0.00  0.00    +0.147 A 
ATOM     32  C   UNL     1      -0.552   1.323  24.409  0.00  0.00    +0.037 A 
ATOM     33  C   UNL     1      -0.953   0.610  24.300  0.00  0.00    +0.003 A 
BRANCH  26  27
ATOM     27  O   UNL     1      -0.150   2.400  25.259  0.00  0.00    -0.404 OA
BRANCH  27  28
ATOM     28  C   UNL     1       0.141   2.598  26.004  0.00  0.00    +0.575 C 
ATOM     29  F   UNL     1       0.431   2.797  26.751  0.00  0.00    -0.133 F 
ATOM     30  F   UNL     1      -0.545   3.031  26.156  0.00  0.00    -0.133 F 
ATOM     31  F   UNL     1       0.826   2.165  25.853  0.00  0.00    -0.133 F 
ENDBRANCH  27  28
ENDBRANCH  26  27
ENDBRANCH  18  23
TORSDOF 4
ENDMDL
MODEL 5
REMARK VINA RESULT:     -16.2      1.214      3.120
REMARK  Name = 
REMARK  4 active torsions:
REMARK  status: ('A' for Active; 'I' for Inactive)
REMARK    1  A    between atoms: C_5  and  N_6
REMARK    2  A    between atoms: C_18  and  C_23
REMARK    3  A    between atoms: C_26  and  O_27
REMARK    4  A    between atoms: O_27  and  C_28
REMARK                            x       y       z     vdW  Elec       q    Type
REMARK                         _______ _______ _______ _____ _____    ______ ____
ROOT
ATOM      6  N   UNL     1      -3.875   3.562  25.312  0.00  0.00    -0.162 NA
ATOM      7  C   UNL     1      -3.118   3.257  25.198  0.00  0.00    +0.327 C 
ATOM      8  O   UNL     1      -3.017   2.457  25.020  0.00  0.00    -0.250 OA
ATOM      9  N   UNL     1      -2.460   3.751  25.263  0.00  0.00    -0.262 N 
ATOM     10  C   UNL     1      -2.021   4.451  25.385  0.00  0.00    +0.097 C 
ATOM     11  C   UNL     1      -1.107   4.098  25.251  0.00  0.00    +0.043 C 
ATOM     12  C   UNL     1      -0.307   3.968  25.172  0.00  0.00    +0.011 C 
ATOM     13  C   UNL     1      -0.900   3.595  25.129  0.00  0.00    +0.058 C 
ATOM     14  C   UNL     1      -1.776   3.951  25.262  0.00  0.00    +0.101 C 
ATOM     15  C   UNL     1      -1.206   2.744  24.966  0.00  0.00    +0.041 A 
ATOM     16  C   UNL     1      -0.931   1.988  24.786  0.00  0.00    +0.013 A 
ATOM     17  C   UNL     1      -1.465   1.367  24.687  0.00  0.00    +0.006 A 
ATOM     18  C   UNL     1      -2.275   1.503  24.768  0.00  0.00    +0.056 A 
ATOM     19  C   UNL     1      -2.551   2.259  24.948  0.00  0.00    +0.261 A 
ATOM     20  O   UNL     1      -3.367   2.143  24.975  0.00  0.00    -0.267 OA
ATOM     21  N   UNL     1      -2.016   2.880  25.047  0.00  0.00    -0.299 N 
ATOM     22  C   UNL     1      -1.437   3.213  25.082  0.00  0.00    +0.110 C 
ENDROOT
BRANCH   6   5
ATOM      1  C   UNL     1      -6.505   1.584  25.056  0.00  0.00    +0.031 C 
ATOM      2  C   UNL     1      -5.848   2.078  25.120  0.00  0.00    -0.022 A 
ATOM      3  C   UNL     1      -5.499   2.208  25.856  0.00  0.00    -0.003 A 
ATOM      4  C   UNL     1      -4.842   2.702  25.921  0.00  0.00    +0.016 A 
ATOM      5  C   UNL     1      -4.533   3.067  25.248  0.00  0.00    +0.075 A 
ATOM     34  C   UNL     1      -4.882   2.938  24.511  0.00  0.00    +0.016 A 
ATOM     35  C   UNL     1      -5.539   2.443  24.448  0.00  0.00    -0.003 A 
ENDBRANCH   6   5
BRANCH  18  23
ATOM     23  C   UNL     1      -2.809   0.882  24.668  0.00  0.00    +0.005 A 
ATOM     24  C   UNL     1      -3.127   0.728  23.923  0.00  0.00    +0.003 A 
ATOM     25  C   UNL     1      -3.661   0.107  23.823  0.00  0.00    +0.037 A 
ATOM     26  C   UNL     1      -3.876  -0.360  24.468  0.00  0.00    +0.147 A 
ATOM     32  C   UNL     1      -3.558  -0.206  25.213  0.00  0.00    +0.037 A 
ATOM     33  C   UNL     1      -3.024   0.415  25.314  0.00  0.00    +0.003 A 
BRANCH  26  27
ATOM     27  O   UNL     1      -4.410  -0.982  24.368  0.00  0.00    -0.404 OA
BRANCH  27  28
ATOM     28  C   UNL     1      -4.142  -1.718  24.113  0.00  0.00    +0.575 C 
ATOM     29  F   UNL     1      -3.873  -2.454  23.856  0.00  0.00    -0.133 F 
ATOM     30  F   UNL     1      -4.267  -1.491  23.329  0.00  0.00    -0.133 F 
ATOM     31  F   UNL     1      -4.016  -1.944  24.895  0.00  0.00    -0.133 F 
ENDBRANCH  27  28
ENDBRANCH  26  27
ENDBRANCH  18  23
TORSDOF 4
ENDMDL
