MODEL 1
REMARK VINA RESULT:      -9.7      0.000      0.000
REMARK  Name = 
REMARK  5 active torsions:
REMARK  status: ('A' for Active; 'I' for Inactive)
REMARK    1  A    between atoms: O_2  and  C_3
REMARK    2  A    between atoms: C_6  and  C_9
REMARK    3  A    between atoms: C_12  and  C_14
REMARK    4  A    between atoms: N_18  and  C_19
REMARK    5  A    between atoms: C_19  and  C_20
REMARK                            x       y       z     vdW  Elec       q    Type
REMARK                         _______ _______ _______ _____ _____    ______ ____
ROOT
ATOM      9  C   UNL     1      -3.936   0.338  24.459  0.00  0.00    +0.205 A 
ATOM     10  N   UNL     1      -3.821   0.701  23.728  0.00  0.00    -0.056 NA
ATOM     11  O   UNL     1      -3.973   1.507  23.816  0.00  0.00    -0.336 OA
ATOM     12  C   UNL     1      -4.183   1.643  24.602  0.00  0.00    +0.251 A 
ATOM     13  N   UNL     1      -4.159   0.920  25.000  0.00  0.00    -0.190 NA
ENDROOT
BRANCH   9   6
ATOM      3  C   UNL     1      -3.659  -2.072  24.947  0.00  0.00    +0.225 A 
ATOM      4  N   UNL     1      -3.393  -1.510  25.488  0.00  0.00    -0.210 NA
ATOM      5  C   UNL     1      -3.486  -0.706  25.325  0.00  0.00    +0.105 A 
ATOM      6  C   UNL     1      -3.843  -0.465  24.622  0.00  0.00    +0.058 A 
ATOM      7  C   UNL     1      -4.109  -1.030  24.081  0.00  0.00    +0.010 A 
ATOM      8  C   UNL     1      -4.017  -1.833  24.243  0.00  0.00    +0.058 A 
BRANCH   3   2
ATOM      1  C   UNL     1      -3.220  -3.374  24.549  0.00  0.00    +0.254 C 
ATOM      2  O   UNL     1      -3.566  -2.876  25.110  0.00  0.00    -0.456 OA
ENDBRANCH   3   2
ENDBRANCH   9   6
BRANCH  12  14
ATOM     14  C   UNL     1      -4.380   2.372  24.933  0.00  0.00    +0.138 C 
ATOM     15  C   UNL     1      -5.134   2.607  25.171  0.00  0.00    +0.027 C 
ATOM     16  C   UNL     1      -5.078   3.375  25.469  0.00  0.00    +0.019 C 
ATOM     17  C   UNL     1      -4.291   3.613  25.416  0.00  0.00    +0.073 C 
ATOM     18  N   UNL     1      -3.859   2.993  25.085  0.00  0.00    -0.260 NA
BRANCH  18  19
ATOM     19  C   UNL     1      -3.049   2.994  24.932  0.00  0.00    +0.139 C 
BRANCH  19  20
ATOM     20  C   UNL     1      -2.585   3.633  25.174  0.00  0.00    +0.155 A 
ATOM     21  N   UNL     1      -2.432   4.316  24.736  0.00  0.00    -0.226 NA
ATOM     22  C   UNL     1      -1.946   4.805  25.187  0.00  0.00    +0.121 A 
ATOM     23  C   UNL     1      -1.797   4.425  25.905  0.00  0.00    +0.121 A 
ATOM     24  N   UNL     1      -2.192   3.701  25.897  0.00  0.00    -0.226 NA
ENDBRANCH  19  20
ENDBRANCH  18  19
ENDBRANCH  12  14
TORSDOF 5
ENDMDL
MODEL 2
REMARK VINA RESULT:      -9.2      1.622      4.655
REMARK  Name = 
REMARK  5 active torsions:
REMARK  status: ('A' for Active; 'I' for Inactive)
REMARK    1  A    between atoms: O_2  and  C_3
REMARK    2  A    between atoms: C_6  and  C_9
REMARK    3  A    between atoms: C_12  and  C_14
REMARK    4  A    between atoms: N_18  and  C_19
REMARK    5  A    between atoms: C_19  and  C_20
REMARK                            x       y       z     vdW  Elec       q    Type
REMARK                         _______ _______ _______ _____ _____    ______ ____
ROOT
ATOM      9  C   UNL     1      -4.270   1.119  24.487  0.00  0.00    +0.205 A 
ATOM     10  N   UNL     1      -3.913   1.124  23.744  0.00  0.00    -0.056 NA
ATOM     11  O   UNL     1      -3.608   0.371  23.602  0.00  0.00    -0.336 OA
ATOM     12  C   UNL     1      -3.776  -0.100  24.258  0.00  0.00    +0.251 A 
ATOM     13  N   UNL     1      -4.185   0.362  24.805  0.00  0.00    -0.190 NA
ENDROOT
BRANCH   9   6
ATOM      3  C   UNL     1      -5.398   3.035  25.575  0.00  0.00    +0.225 A 
ATOM      4  N   UNL     1      -4.589   3.067  25.418  0.00  0.00    -0.210 NA
ATOM      5  C   UNL     1      -4.213   2.428  25.056  0.00  0.00    +0.105 A 
ATOM      6  C   UNL     1      -4.646   1.757  24.850  0.00  0.00    +0.058 A 
ATOM      7  C   UNL     1      -5.456   1.725  25.006  0.00  0.00    +0.010 A 
ATOM      8  C   UNL     1      -5.832   2.364  25.369  0.00  0.00    +0.058 A 
BRANCH   3   2
ATOM      1  C   UNL     1      -5.751   4.420  25.585  0.00  0.00    +0.254 C 
ATOM      2  O   UNL     1      -5.773   3.674  25.937  0.00  0.00    -0.456 OA
ENDBRANCH   3   2
ENDBRANCH   9   6
BRANCH  12  14
ATOM     14  C   UNL     1      -3.570  -0.894  24.350  0.00  0.00    +0.138 C 
ATOM     15  C   UNL     1      -4.045  -1.542  24.164  0.00  0.00    +0.027 C 
ATOM     16  C   UNL     1      -3.622  -2.227  24.344  0.00  0.00    +0.019 C 
ATOM     17  C   UNL     1      -2.887  -2.002  24.642  0.00  0.00    +0.073 C 
ATOM     18  N   UNL     1      -2.855  -1.179  24.645  0.00  0.00    -0.260 NA
BRANCH  18  19
ATOM     19  C   UNL     1      -2.218  -0.720  24.899  0.00  0.00    +0.139 C 
BRANCH  19  20
ATOM     20  C   UNL     1      -1.462  -1.050  24.940  0.00  0.00    +0.155 A 
ATOM     21  N   UNL     1      -0.903  -1.058  24.333  0.00  0.00    -0.226 NA
ATOM     22  C   UNL     1      -0.229  -1.442  24.613  0.00  0.00    +0.121 A 
ATOM     23  C   UNL     1      -0.372  -1.673  25.392  0.00  0.00    +0.121 A 
ATOM     24  N   UNL     1      -1.133  -1.430  25.595  0.00  0.00    -0.226 NA
ENDBRANCH  19  20
ENDBRANCH  18  19
ENDBRANCH  12  14
TORSDOF 5
ENDMDL
MODEL 3
REMARK VINA RESULT:      -8.8      2.019      2.736
REMARK  Name = 
REMARK  5 active torsions:
REMARK  status: ('A' for Active; 'I' for Inactive)
REMARK    1  A    between atoms: O_2  and  C_3
REMARK    2  A    between atoms: C_6  and  C_9
REMARK    3  A    between atoms: C_12  and  C_14
REMARK    4  A    between atoms: N_18  and  C_19
REMARK    5  A    between atoms: C_19  and  C_20
REMARK                            x       y       z     vdW  Elec       q    Type
REMARK                         _______ _______ _______ _____ _____    ______ ____
ROOT
ATOM      9  C   UNL     1      -1.712  -0.500  25.247  0.00  0.00    +0.205 A 
ATOM     10  N   UNL     1      -1.342  -0.395  25.977  0.00  0.00    -0.056 NA
ATOM     11  O   UNL     1      -0.897   0.299  25.940  0.00  0.00    -0.336 OA
ATOM     12  C   UNL     1      -0.991   0.623  25.187  0.00  0.00    +0.251 A 
ATOM     13  N   UNL     1      -1.495   0.129  24.759  0.00  0.00    -0.190 NA
ENDROOT
BRANCH   9   6
ATOM      3  C   UNL     1      -3.209  -2.371  24.630  0.00  0.00    +0.225 A 
ATOM      4  N   UNL     1      -2.408  -2.404  24.439  0.00  0.00    -0.210 NA
ATOM      5  C   UNL     1      -1.909  -1.780  24.644  0.00  0.00    +0.105 A 
ATOM      6  C   UNL     1      -2.211  -1.123  25.042  0.00  0.00    +0.058 A 
ATOM      7  C   UNL     1      -3.014  -1.091  25.233  0.00  0.00    +0.010 A 
ATOM      8  C   UNL     1      -3.513  -1.715  25.028  0.00  0.00    +0.058 A 
BRANCH   3   2
ATOM      1  C   UNL     1      -4.277  -2.892  23.835  0.00  0.00    +0.254 C 
ATOM      2  O   UNL     1      -3.708  -2.995  24.424  0.00  0.00    -0.456 OA
ENDBRANCH   3   2
ENDBRANCH   9   6
BRANCH  12  14
ATOM     14  C   UNL     1      -0.643   1.318  24.911  0.00  0.00    +0.138 C 
ATOM     15  C   UNL     1       0.063   1.371  24.489  0.00  0.00    +0.027 C 
ATOM     16  C   UNL     1       0.202   2.168  24.326  0.00  0.00    +0.019 C 
ATOM     17  C   UNL     1      -0.418   2.606  24.646  0.00  0.00    +0.073 C 
ATOM     18  N   UNL     1      -0.941   2.081  25.008  0.00  0.00    -0.260 NA
BRANCH  18  19
ATOM     19  C   UNL     1      -1.639   2.284  25.398  0.00  0.00    +0.139 C 
BRANCH  19  20
ATOM     20  C   UNL     1      -1.926   3.057  25.354  0.00  0.00    +0.155 A 
ATOM     21  N   UNL     1      -1.742   3.672  25.873  0.00  0.00    -0.226 NA
ATOM     22  C   UNL     1      -2.149   4.345  25.624  0.00  0.00    +0.121 A 
ATOM     23  C   UNL     1      -2.585   4.145  24.952  0.00  0.00    +0.121 A 
ATOM     24  N   UNL     1      -2.447   3.350  24.786  0.00  0.00    -0.226 NA
ENDBRANCH  19  20
ENDBRANCH  18  19
ENDBRANCH  12  14
TORSDOF 5
ENDMDL
MODEL 4
REMARK VINA RESULT:      -8.7      2.525      4.212
REMARK  Name = 
REMARK  5 active torsions:
REMARK  status: ('A' for Active; 'I' for Inactive)
REMARK    1  A    between atoms: O_2  and  C_3
REMARK    2  A    between atoms: C_6  and  C_9
REMARK    3  A    between atoms: C_12  and  C_14
REMARK    4  A    between atoms: N_18  and  C_19
REMARK    5  A    between atoms: C_19  and  C_20
REMARK                            x       y       z     vdW  Elec       q    Type
REMARK                         _______ _______ _______ _____ _____    ______ ____
ROOT
ATOM      9  C   UNL     1      -3.181   2.650  24.772  0.00  0.00    +0.205 A 
ATOM     10  N   UNL     1      -2.892   3.111  24.152  0.00  0.00    -0.056 NA
ATOM     11  O   UNL     1      -2.068   3.079  24.172  0.00  0.00    -0.336 OA
ATOM     12  C   UNL     1      -1.847   2.598  24.805  0.00  0.00    +0.251 A 
ATOM     13  N   UNL     1      -2.534   2.332  25.176  0.00  0.00    -0.190 NA
ENDROOT
BRANCH   9   6
ATOM      3  C   UNL     1      -5.565   2.282  25.326  0.00  0.00    +0.225 A 
ATOM      4  N   UNL     1      -5.187   2.974  25.568  0.00  0.00    -0.210 NA
ATOM      5  C   UNL     1      -4.393   3.096  25.384  0.00  0.00    +0.105 A 
ATOM      6  C   UNL     1      -3.975   2.527  24.957  0.00  0.00    +0.058 A 
ATOM      7  C   UNL     1      -4.354   1.834  24.714  0.00  0.00    +0.010 A 
ATOM      8  C   UNL     1      -5.148   1.712  24.899  0.00  0.00    +0.058 A 
BRANCH   3   2
ATOM      1  C   UNL     1      -6.567   1.812  26.230  0.00  0.00    +0.254 C 
ATOM      2  O   UNL     1      -6.359   2.159  25.511  0.00  0.00    -0.456 OA
ENDBRANCH   3   2
ENDBRANCH   9   6
BRANCH  12  14
ATOM     14  C   UNL     1      -1.074   2.414  25.027  0.00  0.00    +0.138 C 
ATOM     15  C   UNL     1      -0.639   2.788  25.619  0.00  0.00    +0.027 C 
ATOM     16  C   UNL     1       0.104   2.429  25.655  0.00  0.00    +0.019 C 
ATOM     17  C   UNL     1       0.126   1.833  25.085  0.00  0.00    +0.073 C 
ATOM     18  N   UNL     1      -0.601   1.824  24.697  0.00  0.00    -0.260 NA
BRANCH  18  19
ATOM     19  C   UNL     1      -0.818   1.314  24.087  0.00  0.00    +0.139 C 
BRANCH  19  20
ATOM     20  C   UNL     1      -0.387   0.622  23.954  0.00  0.00    +0.155 A 
ATOM     21  N   UNL     1       0.252   0.540  23.438  0.00  0.00    -0.226 NA
ATOM     22  C   UNL     1       0.515  -0.240  23.480  0.00  0.00    +0.121 A 
ATOM     23  C   UNL     1       0.039  -0.641  24.022  0.00  0.00    +0.121 A 
ATOM     24  N   UNL     1      -0.518  -0.108  24.315  0.00  0.00    -0.226 NA
ENDBRANCH  19  20
ENDBRANCH  18  19
ENDBRANCH  12  14
TORSDOF 5
ENDMDL
MODEL 5
REMARK VINA RESULT:      -8.6      1.686      4.971
REMARK  Name = 
REMARK  5 active torsions:
REMARK  status: ('A' for Active; 'I' for Inactive)
REMARK    1  A    between atoms: O_2  and  C_3
REMARK    2  A    between atoms: C_6  and  C_9
REMARK    3  A    between atoms: C_12  and  C_14
REMARK    4  A    between atoms: N_18  and  C_19
REMARK    5  A    between atoms: C_19  and  C_20
REMARK                            x       y       z     vdW  Elec       q    Type
REMARK                         _______ _______ _______ _____ _____    ______ ____
ROOT
ATOM      9  C   UNL     1      -2.878   2.170  24.520  0.00  0.00    +0.205 A 
ATOM     10  N   UNL     1      -3.168   1.956  23.778  0.00  0.00    -0.056 NA
ATOM     11  O   UNL     1      -3.401   1.165  23.813  0.00  0.00    -0.336 OA
ATOM     12  C   UNL     1      -3.255   0.890  24.577  0.00  0.00    +0.251 A 
ATOM     13  N   UNL     1      -2.931   1.511  25.014  0.00  0.00    -0.190 NA
ENDROOT
BRANCH   9   6
ATOM      3  C   UNL     1      -2.000   4.395  25.154  0.00  0.00    +0.225 A 
ATOM      4  N   UNL     1      -2.806   4.295  25.015  0.00  0.00    -0.210 NA
ATOM      5  C   UNL     1      -3.099   3.553  24.804  0.00  0.00    +0.105 A 
ATOM      6  C   UNL     1      -2.585   2.912  24.731  0.00  0.00    +0.058 A 
ATOM      7  C   UNL     1      -1.778   3.013  24.871  0.00  0.00    +0.010 A 
ATOM      8  C   UNL     1      -1.485   3.755  25.083  0.00  0.00    +0.058 A 
BRANCH   3   2
ATOM      1  C   UNL     1      -1.059   5.455  24.965  0.00  0.00    +0.254 C 
ATOM      2  O   UNL     1      -1.708   5.137  25.366  0.00  0.00    -0.456 OA
ENDBRANCH   3   2
ENDBRANCH   9   6
BRANCH  12  14
ATOM     14  C   UNL     1      -3.405   0.128  24.855  0.00  0.00    +0.138 C 
ATOM     15  C   UNL     1      -4.106  -0.130  25.203  0.00  0.00    +0.027 C 
ATOM     16  C   UNL     1      -4.015  -0.928  25.397  0.00  0.00    +0.019 C 
ATOM     17  C   UNL     1      -3.258  -1.161  25.168  0.00  0.00    +0.073 C 
ATOM     18  N   UNL     1      -2.881  -0.508  24.833  0.00  0.00    -0.260 NA
BRANCH  18  19
ATOM     19  C   UNL     1      -2.114  -0.495  24.530  0.00  0.00    +0.139 C 
BRANCH  19  20
ATOM     20  C   UNL     1      -1.575  -1.082  24.746  0.00  0.00    +0.155 A 
ATOM     21  N   UNL     1      -1.505  -1.828  24.400  0.00  0.00    -0.226 NA
ATOM     22  C   UNL     1      -0.899  -2.232  24.786  0.00  0.00    +0.121 A 
ATOM     23  C   UNL     1      -0.594  -1.736  25.371  0.00  0.00    +0.121 A 
ATOM     24  N   UNL     1      -1.012  -1.026  25.347  0.00  0.00    -0.226 NA
ENDBRANCH  19  20
ENDBRANCH  18  19
ENDBRANCH  12  14
TORSDOF 5
ENDMDL
MODEL 6
REMARK VINA RESULT:      -8.6      1.742      2.550
REMARK  Name = 
REMARK  5 active torsions:
REMARK  status: ('A' for Active; 'I' for Inactive)
REMARK    1  A    between atoms: O_2  and  C_3
REMARK    2  A    between atoms: C_6  and  C_9
REMARK    3  A    between atoms: C_12  and  C_14
REMARK    4  A    between atoms: N_18  and  C_19
REMARK    5  A    between atoms: C_19  and  C_20
REMARK                            x       y       z     vdW  Elec       q    Type
REMARK                         _______ _______ _______ _____ _____    ______ ____
ROOT
ATOM      9  C   UNL     1      -1.630   1.037  24.470  0.00  0.00    +0.205 A 
ATOM     10  N   UNL     1      -1.498   1.481  23.788  0.00  0.00    -0.056 NA
ATOM     11  O   UNL     1      -1.662   2.271  23.961  0.00  0.00    -0.336 OA
ATOM     12  C   UNL     1      -1.897   2.315  24.751  0.00  0.00    +0.251 A 
ATOM     13  N   UNL     1      -1.877   1.552  25.066  0.00  0.00    -0.190 NA
ENDROOT
BRANCH   9   6
ATOM      3  C   UNL     1      -1.340  -1.411  24.693  0.00  0.00    +0.225 A 
ATOM      4  N   UNL     1      -0.680  -0.922  24.622  0.00  0.00    -0.210 NA
ATOM      5  C   UNL     1      -0.777  -0.106  24.547  0.00  0.00    +0.105 A 
ATOM      6  C   UNL     1      -1.534   0.221  24.544  0.00  0.00    +0.058 A 
ATOM      7  C   UNL     1      -2.195  -0.268  24.616  0.00  0.00    +0.010 A 
ATOM      8  C   UNL     1      -2.098  -1.084  24.690  0.00  0.00    +0.058 A 
BRANCH   3   2
ATOM      1  C   UNL     1      -1.835  -2.739  24.503  0.00  0.00    +0.254 C 
ATOM      2  O   UNL     1      -1.244  -2.227  24.767  0.00  0.00    -0.456 OA
ENDBRANCH   3   2
ENDBRANCH   9   6
BRANCH  12  14
ATOM     14  C   UNL     1      -2.113   3.001  25.155  0.00  0.00    +0.138 C 
ATOM     15  C   UNL     1      -1.609   3.482  25.596  0.00  0.00    +0.027 C 
ATOM     16  C   UNL     1      -2.056   4.105  25.903  0.00  0.00    +0.019 C 
ATOM     17  C   UNL     1      -2.835   4.007  25.651  0.00  0.00    +0.073 C 
ATOM     18  N   UNL     1      -2.871   3.326  25.188  0.00  0.00    -0.260 NA
BRANCH  18  19
ATOM     19  C   UNL     1      -3.545   3.022  24.824  0.00  0.00    +0.139 C 
BRANCH  19  20
ATOM     20  C   UNL     1      -4.290   3.163  25.152  0.00  0.00    +0.155 A 
ATOM     21  N   UNL     1      -4.714   2.643  25.634  0.00  0.00    -0.226 NA
ATOM     22  C   UNL     1      -5.426   3.007  25.835  0.00  0.00    +0.121 A 
ATOM     23  C   UNL     1      -5.443   3.751  25.477  0.00  0.00    +0.121 A 
ATOM     24  N   UNL     1      -4.741   3.847  25.056  0.00  0.00    -0.226 NA
ENDBRANCH  19  20
ENDBRANCH  18  19
ENDBRANCH  12  14
TORSDOF 5
ENDMDL
MODEL 7
REMARK VINA RESULT:      -8.6      2.093      5.522
REMARK  Name = 
REMARK  5 active torsions:
REMARK  status: ('A' for Active; 'I' for Inactive)
REMARK    1  A    between atoms: O_2  and  C_3
REMARK    2  A    between atoms: C_6  and  C_9
REMARK    3  A    between atoms: C_12  and  C_14
REMARK    4  A    between atoms: N_18  and  C_19
REMARK    5  A    between atoms: C_19  and  C_20
REMARK                            x       y       z     vdW  Elec       q    Type
REMARK                         _______ _______ _______ _____ _____    ______ ____
ROOT
ATOM      9  C   UNL     1      -1.445   1.795  24.429  0.00  0.00    +0.205 A 
ATOM     10  N   UNL     1      -1.517   1.547  23.646  0.00  0.00    -0.056 NA
ATOM     11  O   UNL     1      -1.378   0.733  23.622  0.00  0.00    -0.336 OA
ATOM     12  C   UNL     1      -1.220   0.479  24.391  0.00  0.00    +0.251 A 
ATOM     13  N   UNL     1      -1.261   1.135  24.890  0.00  0.00    -0.190 NA
ENDROOT
BRANCH   9   6
ATOM      3  C   UNL     1      -1.728   4.111  25.255  0.00  0.00    +0.225 A 
ATOM      4  N   UNL     1      -2.390   3.646  25.095  0.00  0.00    -0.210 NA
ATOM      5  C   UNL     1      -2.295   2.874  24.820  0.00  0.00    +0.105 A 
ATOM      6  C   UNL     1      -1.539   2.567  24.705  0.00  0.00    +0.058 A 
ATOM      7  C   UNL     1      -0.876   3.032  24.865  0.00  0.00    +0.010 A 
ATOM      8  C   UNL     1      -0.970   3.804  25.140  0.00  0.00    +0.058 A 
BRANCH   3   2
ATOM      1  C   UNL     1      -1.491   5.513  25.112  0.00  0.00    +0.254 C 
ATOM      2  O   UNL     1      -1.822   4.883  25.530  0.00  0.00    -0.456 OA
ENDBRANCH   3   2
ENDBRANCH   9   6
BRANCH  12  14
ATOM     14  C   UNL     1      -1.051  -0.295  24.620  0.00  0.00    +0.138 C 
ATOM     15  C   UNL     1      -0.301  -0.603  24.769  0.00  0.00    +0.027 C 
ATOM     16  C   UNL     1      -0.388  -1.396  24.982  0.00  0.00    +0.019 C 
ATOM     17  C   UNL     1      -1.193  -1.577  24.964  0.00  0.00    +0.073 C 
ATOM     18  N   UNL     1      -1.602  -0.897  24.741  0.00  0.00    -0.260 NA
BRANCH  18  19
ATOM     19  C   UNL     1      -2.420  -0.831  24.654  0.00  0.00    +0.139 C 
BRANCH  19  20
ATOM     20  C   UNL     1      -2.898  -1.499  24.731  0.00  0.00    +0.155 A 
ATOM     21  N   UNL     1      -3.114  -2.013  24.122  0.00  0.00    -0.226 NA
ATOM     22  C   UNL     1      -3.593  -2.602  24.444  0.00  0.00    +0.121 A 
ATOM     23  C   UNL     1      -3.674  -2.452  25.251  0.00  0.00    +0.121 A 
ATOM     24  N   UNL     1      -3.245  -1.770  25.428  0.00  0.00    -0.226 NA
ENDBRANCH  19  20
ENDBRANCH  18  19
ENDBRANCH  12  14
TORSDOF 5
ENDMDL
MODEL 8
REMARK VINA RESULT:      -8.1     16.784     18.992
REMARK  Name = 
REMARK  5 active torsions:
REMARK  status: ('A' for Active; 'I' for Inactive)
REMARK    1  A    between atoms: O_2  and  C_3
REMARK    2  A    between atoms: C_6  and  C_9
REMARK    3  A    between atoms: C_12  and  C_14
REMARK    4  A    between atoms: N_18  and  C_19
REMARK    5  A    between atoms: C_19  and  C_20
REMARK                            x       y       z     vdW  Elec       q    Type
REMARK                         _______ _______ _______ _____ _____    ______ ____
ROOT
ATOM      9  C   UNL     1      12.112   7.263  19.990  0.00  0.00    +0.205 A 
ATOM     10  N   UNL     1      12.009   6.532  19.622  0.00  0.00    -0.056 NA
ATOM     11  O   UNL     1      12.568   6.469  19.018  0.00  0.00    -0.336 OA
ATOM     12  C   UNL     1      13.017   7.162  19.013  0.00  0.00    +0.251 A 
ATOM     13  N   UNL     1      12.735   7.652  19.614  0.00  0.00    -0.190 NA
ENDROOT
BRANCH   9   6
ATOM      3  C   UNL     1      10.785   8.135  21.889  0.00  0.00    +0.225 A 
ATOM      4  N   UNL     1      11.317   7.517  22.008  0.00  0.00    -0.210 NA
ATOM      5  C   UNL     1      11.759   7.226  21.375  0.00  0.00    +0.105 A 
ATOM      6  C   UNL     1      11.669   7.554  20.623  0.00  0.00    +0.058 A 
ATOM      7  C   UNL     1      11.136   8.173  20.505  0.00  0.00    +0.010 A 
ATOM      8  C   UNL     1      10.694   8.464  21.138  0.00  0.00    +0.058 A 
BRANCH   3   2
ATOM      1  C   UNL     1      10.602   9.093  22.934  0.00  0.00    +0.254 C 
ATOM      2  O   UNL     1      10.343   8.426  22.522  0.00  0.00    -0.456 OA
ENDBRANCH   3   2
ENDBRANCH   9   6
BRANCH  12  14
ATOM     14  C   UNL     1      13.638   7.334  18.499  0.00  0.00    +0.138 C 
ATOM     15  C   UNL     1      13.567   7.673  17.751  0.00  0.00    +0.027 C 
ATOM     16  C   UNL     1      14.324   7.746  17.431  0.00  0.00    +0.019 C 
ATOM     17  C   UNL     1      14.862   7.451  17.982  0.00  0.00    +0.073 C 
ATOM     18  N   UNL     1      14.438   7.196  18.641  0.00  0.00    -0.260 NA
BRANCH  18  19
ATOM     19  C   UNL     1      14.759   6.862  19.324  0.00  0.00    +0.139 C 
BRANCH  19  20
ATOM     20  C   UNL     1      15.568   6.704  19.365  0.00  0.00    +0.155 A 
ATOM     21  N   UNL     1      16.137   7.178  19.729  0.00  0.00    -0.226 NA
ATOM     22  C   UNL     1      16.871   6.811  19.638  0.00  0.00    +0.121 A 
ATOM     23  C   UNL     1      16.755   6.111  19.217  0.00  0.00    +0.121 A 
ATOM     24  N   UNL     1      15.950   6.045  19.049  0.00  0.00    -0.226 NA
ENDBRANCH  19  20
ENDBRANCH  18  19
ENDBRANCH  12  14
TORSDOF 5
ENDMDL
MODEL 9
REMARK VINA RESULT:      -7.5     17.618     19.281
REMARK  Name = 
REMARK  5 active torsions:
REMARK  status: ('A' for Active; 'I' for Inactive)
REMARK    1  A    between atoms: O_2  and  C_3
REMARK    2  A    between atoms: C_6  and  C_9
REMARK    3  A    between atoms: C_12  and  C_14
REMARK    4  A    between atoms: N_18  and  C_19
REMARK    5  A    between atoms: C_19  and  C_20
REMARK                            x       y       z     vdW  Elec       q    Type
REMARK                         _______ _______ _______ _____ _____    ______ ____
ROOT
ATOM      9  C   UNL     1      13.883   6.934  19.612  0.00  0.00    +0.205 A 
ATOM     10  N   UNL     1      13.380   6.298  19.462  0.00  0.00    -0.056 NA
ATOM     11  O   UNL     1      12.618   6.596  19.351  0.00  0.00    -0.336 OA
ATOM     12  C   UNL     1      12.651   7.416  19.432  0.00  0.00    +0.251 A 
ATOM     13  N   UNL     1      13.432   7.626  19.593  0.00  0.00    -0.190 NA
ENDROOT
BRANCH   9   6
ATOM      3  C   UNL     1      16.316   6.796  20.042  0.00  0.00    +0.225 A 
ATOM      4  N   UNL     1      15.784   6.464  20.577  0.00  0.00    -0.210 NA
ATOM      5  C   UNL     1      14.973   6.510  20.433  0.00  0.00    +0.105 A 
ATOM      6  C   UNL     1      14.694   6.888  19.755  0.00  0.00    +0.058 A 
ATOM      7  C   UNL     1      15.228   7.220  19.220  0.00  0.00    +0.010 A 
ATOM      8  C   UNL     1      16.039   7.174  19.363  0.00  0.00    +0.058 A 
BRANCH   3   2
ATOM      1  C   UNL     1      17.405   6.640  20.955  0.00  0.00    +0.254 C 
ATOM      2  O   UNL     1      17.128   6.749  20.185  0.00  0.00    -0.456 OA
ENDBRANCH   3   2
ENDBRANCH   9   6
BRANCH  12  14
ATOM     14  C   UNL     1      12.014   7.936  19.363  0.00  0.00    +0.138 C 
ATOM     15  C   UNL     1      11.568   8.239  19.987  0.00  0.00    +0.027 C 
ATOM     16  C   UNL     1      10.989   8.735  19.668  0.00  0.00    +0.019 C 
ATOM     17  C   UNL     1      11.079   8.737  18.848  0.00  0.00    +0.073 C 
ATOM     18  N   UNL     1      11.712   8.243  18.660  0.00  0.00    -0.260 NA
BRANCH  18  19
ATOM     19  C   UNL     1      11.993   8.085  17.901  0.00  0.00    +0.139 C 
BRANCH  19  20
ATOM     20  C   UNL     1      11.591   8.378  17.243  0.00  0.00    +0.155 A 
ATOM     21  N   UNL     1      11.856   8.977  16.740  0.00  0.00    -0.226 NA
ATOM     22  C   UNL     1      11.283   9.094  16.158  0.00  0.00    +0.121 A 
ATOM     23  C   UNL     1      10.664   8.567  16.301  0.00  0.00    +0.121 A 
ATOM     24  N   UNL     1      10.854   8.125  16.971  0.00  0.00    -0.226 NA
ENDBRANCH  19  20
ENDBRANCH  18  19
ENDBRANCH  12  14
TORSDOF 5
ENDMDL
MODEL 10
REMARK VINA RESULT:      -7.5     16.596     18.887
REMARK  Name = 
REMARK  5 active torsions:
REMARK  status: ('A' for Active; 'I' for Inactive)
REMARK    1  A    between atoms: O_2  and  C_3
REMARK    2  A    between atoms: C_6  and  C_9
REMARK    3  A    between atoms: C_12  and  C_14
REMARK    4  A    between atoms: N_18  and  C_19
REMARK    5  A    between atoms: C_19  and  C_20
REMARK                            x       y       z     vdW  Elec       q    Type
REMARK                         _______ _______ _______ _____ _____    ______ ____
ROOT
ATOM      9  C   UNL     1      12.932   7.579  18.201  0.00  0.00    +0.205 A 
ATOM     10  N   UNL     1      12.366   6.984  18.273  0.00  0.00    -0.056 NA
ATOM     11  O   UNL     1      12.318   6.771  19.069  0.00  0.00    -0.336 OA
ATOM     12  C   UNL     1      12.855   7.234  19.489  0.00  0.00    +0.251 A 
ATOM     13  N   UNL     1      13.235   7.734  18.953  0.00  0.00    -0.190 NA
ENDROOT
BRANCH   9   6
ATOM      3  C   UNL     1      13.606   8.703  16.102  0.00  0.00    +0.225 A 
ATOM      4  N   UNL     1      13.937   7.975  16.304  0.00  0.00    -0.210 NA
ATOM      5  C   UNL     1      13.712   7.601  17.004  0.00  0.00    +0.105 A 
ATOM      6  C   UNL     1      13.157   7.953  17.502  0.00  0.00    +0.058 A 
ATOM      7  C   UNL     1      12.825   8.682  17.298  0.00  0.00    +0.010 A 
ATOM      8  C   UNL     1      13.050   9.057  16.598  0.00  0.00    +0.058 A 
BRANCH   3   2
ATOM      1  C   UNL     1      14.626   9.094  15.179  0.00  0.00    +0.254 C 
ATOM      2  O   UNL     1      13.831   9.077  15.402  0.00  0.00    -0.456 OA
ENDBRANCH   3   2
ENDBRANCH   9   6
BRANCH  12  14
ATOM     14  C   UNL     1      12.989   7.204  20.302  0.00  0.00    +0.138 C 
ATOM     15  C   UNL     1      13.684   6.954  20.670  0.00  0.00    +0.027 C 
ATOM     16  C   UNL     1      13.576   7.014  21.486  0.00  0.00    +0.019 C 
ATOM     17  C   UNL     1      12.815   7.301  21.622  0.00  0.00    +0.073 C 
ATOM     18  N   UNL     1      12.452   7.418  20.891  0.00  0.00    -0.260 NA
BRANCH  18  19
ATOM     19  C   UNL     1      11.687   7.700  20.770  0.00  0.00    +0.139 C 
BRANCH  19  20
ATOM     20  C   UNL     1      11.250   7.992  21.406  0.00  0.00    +0.155 A 
ATOM     21  N   UNL     1      11.267   8.766  21.692  0.00  0.00    -0.226 NA
ATOM     22  C   UNL     1      10.747   8.814  22.330  0.00  0.00    +0.121 A 
ATOM     23  C   UNL     1      10.408   8.069  22.440  0.00  0.00    +0.121 A 
ATOM     24  N   UNL     1      10.719   7.562  21.869  0.00  0.00    -0.226 NA
ENDBRANCH  19  20
ENDBRANCH  18  19
ENDBRANCH  12  14
TORSDOF 5
ENDMDL
