MODEL 1
REMARK VINA RESULT:     -11.3      0.000      0.000
REMARK  Name = 
REMARK  5 active torsions:
REMARK  status: ('A' for Active; 'I' for Inactive)
REMARK    1  A    between atoms: C_2  and  N_4
REMARK    2  A    between atoms: C_8  and  C_9
REMARK    3  A    between atoms: C_11  and  C_14
REMARK    4  A    between atoms: C_17  and  O_18
REMARK    5  A    between atoms: O_18  and  C_19
REMARK                            x       y       z     vdW  Elec       q    Type
REMARK                         _______ _______ _______ _____ _____    ______ ____
ROOT
ATOM      9  C   UNL     1      -2.234   3.143  24.551  0.00  0.00    +0.251 A 
ATOM     10  N   UNL     1      -2.562   2.528  24.993  0.00  0.00    -0.190 NA
ATOM     11  C   UNL     1      -2.764   1.920  24.475  0.00  0.00    +0.205 A 
ATOM     12  N   UNL     1      -2.562   2.158  23.711  0.00  0.00    -0.056 NA
ATOM     13  O   UNL     1      -2.234   2.913  23.758  0.00  0.00    -0.336 OA
ENDROOT
BRANCH  11  14
ATOM     14  C   UNL     1      -3.109   1.199  24.683  0.00  0.00    +0.058 A 
ATOM     15  C   UNL     1      -3.915   1.077  24.557  0.00  0.00    +0.010 A 
ATOM     16  C   UNL     1      -4.260   0.357  24.764  0.00  0.00    +0.058 A 
ATOM     17  C   UNL     1      -3.799  -0.241  25.096  0.00  0.00    +0.225 A 
ATOM     25  N   UNL     1      -2.993  -0.119  25.222  0.00  0.00    -0.210 NA
ATOM     26  C   UNL     1      -2.648   0.601  25.015  0.00  0.00    +0.105 A 
BRANCH  17  18
ATOM     18  O   UNL     1      -4.144  -0.961  25.303  0.00  0.00    -0.464 OA
BRANCH  18  19
ATOM     19  C   UNL     1      -3.977  -1.640  24.865  0.00  0.00    +0.168 C 
ATOM     20  C   UNL     1      -3.451  -2.203  25.161  0.00  0.00    +0.044 C 
ATOM     21  C   UNL     1      -3.284  -2.882  24.722  0.00  0.00    +0.004 C 
ATOM     22  C   UNL     1      -3.643  -2.997  23.989  0.00  0.00    +0.000 C 
ATOM     23  C   UNL     1      -4.169  -2.434  23.693  0.00  0.00    +0.004 C 
ATOM     24  C   UNL     1      -4.336  -1.755  24.131  0.00  0.00    +0.044 C 
ENDBRANCH  18  19
ENDBRANCH  17  18
ENDBRANCH  11  14
BRANCH   9   8
ATOM      4  N   UNL     1      -1.170   4.040  25.024  0.00  0.00    -0.268 NA
ATOM      5  C   UNL     1      -1.144   4.815  25.306  0.00  0.00    +0.072 C 
ATOM      6  C   UNL     1      -1.913   5.114  25.303  0.00  0.00    +0.019 C 
ATOM      7  C   UNL     1      -2.415   4.524  25.020  0.00  0.00    +0.027 C 
ATOM      8  C   UNL     1      -1.956   3.860  24.848  0.00  0.00    +0.138 C 
BRANCH   4   2
ATOM      1  C   UNL     1      -0.145   3.476  24.206  0.00  0.00    +0.017 C 
ATOM      2  C   UNL     1      -0.526   3.535  24.936  0.00  0.00    +0.058 C 
ATOM      3  C   UNL     1      -0.261   3.087  25.577  0.00  0.00    +0.017 C 
ENDBRANCH   4   2
ENDBRANCH   9   8
TORSDOF 5
ENDMDL
MODEL 2
REMARK VINA RESULT:     -10.7      1.492      2.036
REMARK  Name = 
REMARK  5 active torsions:
REMARK  status: ('A' for Active; 'I' for Inactive)
REMARK    1  A    between atoms: C_2  and  N_4
REMARK    2  A    between atoms: C_8  and  C_9
REMARK    3  A    between atoms: C_11  and  C_14
REMARK    4  A    between atoms: C_17  and  O_18
REMARK    5  A    between atoms: O_18  and  C_19
REMARK                            x       y       z     vdW  Elec       q    Type
REMARK                         _______ _______ _______ _____ _____    ______ ____
ROOT
ATOM      9  C   UNL     1      -1.067   3.036  25.467  0.00  0.00    +0.251 A 
ATOM     10  N   UNL     1      -1.336   2.388  25.033  0.00  0.00    -0.190 NA
ATOM     11  C   UNL     1      -1.091   1.702  25.419  0.00  0.00    +0.205 A 
ATOM     12  N   UNL     1      -0.670   1.926  26.093  0.00  0.00    -0.056 NA
ATOM     13  O   UNL     1      -0.655   2.750  26.122  0.00  0.00    -0.336 OA
ENDROOT
BRANCH  11  14
ATOM     14  C   UNL     1      -1.241   0.928  25.177  0.00  0.00    +0.058 A 
ATOM     15  C   UNL     1      -1.322   0.329  25.738  0.00  0.00    +0.010 A 
ATOM     16  C   UNL     1      -1.471  -0.445  25.496  0.00  0.00    +0.058 A 
ATOM     17  C   UNL     1      -1.539  -0.621  24.693  0.00  0.00    +0.225 A 
ATOM     25  N   UNL     1      -1.458  -0.022  24.132  0.00  0.00    -0.210 NA
ATOM     26  C   UNL     1      -1.309   0.753  24.373  0.00  0.00    +0.105 A 
BRANCH  17  18
ATOM     18  O   UNL     1      -1.689  -1.396  24.451  0.00  0.00    -0.464 OA
BRANCH  18  19
ATOM     19  C   UNL     1      -2.457  -1.694  24.474  0.00  0.00    +0.168 C 
ATOM     20  C   UNL     1      -3.027  -1.408  23.950  0.00  0.00    +0.044 C 
ATOM     21  C   UNL     1      -3.796  -1.707  23.973  0.00  0.00    +0.004 C 
ATOM     22  C   UNL     1      -3.995  -2.291  24.520  0.00  0.00    +0.000 C 
ATOM     23  C   UNL     1      -3.425  -2.577  25.045  0.00  0.00    +0.004 C 
ATOM     24  C   UNL     1      -2.656  -2.279  25.022  0.00  0.00    +0.044 C 
ENDBRANCH  18  19
ENDBRANCH  17  18
ENDBRANCH  11  14
BRANCH   9   8
ATOM      4  N   UNL     1      -1.877   4.262  25.418  0.00  0.00    -0.268 NA
ATOM      5  C   UNL     1      -1.755   5.031  25.144  0.00  0.00    +0.072 C 
ATOM      6  C   UNL     1      -0.990   5.074  24.836  0.00  0.00    +0.019 C 
ATOM      7  C   UNL     1      -0.640   4.331  24.920  0.00  0.00    +0.027 C 
ATOM      8  C   UNL     1      -1.188   3.830  25.279  0.00  0.00    +0.138 C 
BRANCH   4   2
ATOM      1  C   UNL     1      -3.180   3.691  25.298  0.00  0.00    +0.017 C 
ATOM      2  C   UNL     1      -2.566   3.977  25.768  0.00  0.00    +0.058 C 
ATOM      3  C   UNL     1      -2.641   3.976  26.591  0.00  0.00    +0.017 C 
ENDBRANCH   4   2
ENDBRANCH   9   8
TORSDOF 5
ENDMDL
MODEL 3
REMARK VINA RESULT:     -10.6      1.023      5.420
REMARK  Name = 
REMARK  5 active torsions:
REMARK  status: ('A' for Active; 'I' for Inactive)
REMARK    1  A    between atoms: C_2  and  N_4
REMARK    2  A    between atoms: C_8  and  C_9
REMARK    3  A    between atoms: C_11  and  C_14
REMARK    4  A    between atoms: C_17  and  O_18
REMARK    5  A    between atoms: O_18  and  C_19
REMARK                            x       y       z     vdW  Elec       q    Type
REMARK                         _______ _______ _______ _____ _____    ______ ____
ROOT
ATOM      9  C   UNL     1      -4.135  -0.545  24.597  0.00  0.00    +0.251 A 
ATOM     10  N   UNL     1      -3.701   0.107  24.337  0.00  0.00    -0.190 NA
ATOM     11  C   UNL     1      -4.040   0.785  24.661  0.00  0.00    +0.205 A 
ATOM     12  N   UNL     1      -4.684   0.552  25.122  0.00  0.00    -0.056 NA
ATOM     13  O   UNL     1      -4.743  -0.270  25.082  0.00  0.00    -0.336 OA
ENDROOT
BRANCH  11  14
ATOM     14  C   UNL     1      -3.781   1.560  24.546  0.00  0.00    +0.058 A 
ATOM     15  C   UNL     1      -3.441   1.778  23.827  0.00  0.00    +0.010 A 
ATOM     16  C   UNL     1      -3.182   2.552  23.711  0.00  0.00    +0.058 A 
ATOM     17  C   UNL     1      -3.264   3.109  24.314  0.00  0.00    +0.225 A 
ATOM     25  N   UNL     1      -3.604   2.891  25.034  0.00  0.00    -0.210 NA
ATOM     26  C   UNL     1      -3.862   2.116  25.150  0.00  0.00    +0.105 A 
BRANCH  17  18
ATOM     18  O   UNL     1      -3.005   3.884  24.199  0.00  0.00    -0.464 OA
BRANCH  18  19
ATOM     19  C   UNL     1      -2.290   4.133  24.526  0.00  0.00    +0.168 C 
ATOM     20  C   UNL     1      -1.579   3.804  24.266  0.00  0.00    +0.044 C 
ATOM     21  C   UNL     1      -0.865   4.054  24.593  0.00  0.00    +0.004 C 
ATOM     22  C   UNL     1      -0.860   4.632  25.181  0.00  0.00    +0.000 C 
ATOM     23  C   UNL     1      -1.571   4.962  25.442  0.00  0.00    +0.004 C 
ATOM     24  C   UNL     1      -2.286   4.712  25.114  0.00  0.00    +0.044 C 
ENDBRANCH  18  19
ENDBRANCH  17  18
ENDBRANCH  11  14
BRANCH   9   8
ATOM      4  N   UNL     1      -3.456  -1.835  24.788  0.00  0.00    -0.268 NA
ATOM      5  C   UNL     1      -3.488  -2.571  24.416  0.00  0.00    +0.072 C 
ATOM      6  C   UNL     1      -4.039  -2.524  23.804  0.00  0.00    +0.019 C 
ATOM      7  C   UNL     1      -4.348  -1.760  23.797  0.00  0.00    +0.027 C 
ATOM      8  C   UNL     1      -3.988  -1.333  24.406  0.00  0.00    +0.138 C 
BRANCH   4   2
ATOM      1  C   UNL     1      -3.283  -1.658  26.195  0.00  0.00    +0.017 C 
ATOM      2  C   UNL     1      -2.978  -1.636  25.429  0.00  0.00    +0.058 C 
ATOM      3  C   UNL     1      -2.192  -1.415  25.304  0.00  0.00    +0.017 C 
ENDBRANCH   4   2
ENDBRANCH   9   8
TORSDOF 5
ENDMDL
MODEL 4
REMARK VINA RESULT:     -10.0      1.445      5.567
REMARK  Name = 
REMARK  5 active torsions:
REMARK  status: ('A' for Active; 'I' for Inactive)
REMARK    1  A    between atoms: C_2  and  N_4
REMARK    2  A    between atoms: C_8  and  C_9
REMARK    3  A    between atoms: C_11  and  C_14
REMARK    4  A    between atoms: C_17  and  O_18
REMARK    5  A    between atoms: O_18  and  C_19
REMARK                            x       y       z     vdW  Elec       q    Type
REMARK                         _______ _______ _______ _____ _____    ______ ____
ROOT
ATOM      9  C   UNL     1      -2.063  -1.053  24.621  0.00  0.00    +0.251 A 
ATOM     10  N   UNL     1      -1.989  -0.325  25.002  0.00  0.00    -0.190 NA
ATOM     11  C   UNL     1      -1.369   0.087  24.648  0.00  0.00    +0.205 A 
ATOM     12  N   UNL     1      -1.060  -0.386  24.047  0.00  0.00    -0.056 NA
ATOM     13  O   UNL     1      -1.489  -1.090  24.030  0.00  0.00    -0.336 OA
ENDROOT
BRANCH  11  14
ATOM     14  C   UNL     1      -1.104   0.840  24.857  0.00  0.00    +0.058 A 
ATOM     15  C   UNL     1      -1.002   1.035  25.652  0.00  0.00    +0.010 A 
ATOM     16  C   UNL     1      -0.737   1.787  25.862  0.00  0.00    +0.058 A 
ATOM     17  C   UNL     1      -0.574   2.345  25.276  0.00  0.00    +0.225 A 
ATOM     25  N   UNL     1      -0.676   2.151  24.481  0.00  0.00    -0.210 NA
ATOM     26  C   UNL     1      -0.941   1.398  24.271  0.00  0.00    +0.105 A 
BRANCH  17  18
ATOM     18  O   UNL     1      -0.309   3.098  25.486  0.00  0.00    -0.464 OA
BRANCH  18  19
ATOM     19  C   UNL     1      -0.805   3.751  25.393  0.00  0.00    +0.168 C 
ATOM     20  C   UNL     1      -1.521   3.787  25.803  0.00  0.00    +0.044 C 
ATOM     21  C   UNL     1      -2.017   4.439  25.710  0.00  0.00    +0.004 C 
ATOM     22  C   UNL     1      -1.797   5.056  25.208  0.00  0.00    +0.000 C 
ATOM     23  C   UNL     1      -1.081   5.020  24.798  0.00  0.00    +0.004 C 
ATOM     24  C   UNL     1      -0.585   4.367  24.891  0.00  0.00    +0.044 C 
ENDBRANCH  18  19
ENDBRANCH  17  18
ENDBRANCH  11  14
BRANCH   9   8
ATOM      4  N   UNL     1      -3.417  -1.627  24.607  0.00  0.00    -0.268 NA
ATOM      5  C   UNL     1      -3.758  -2.323  24.889  0.00  0.00    +0.072 C 
ATOM      6  C   UNL     1      -3.166  -2.767  25.255  0.00  0.00    +0.019 C 
ATOM      7  C   UNL     1      -2.459  -2.345  25.199  0.00  0.00    +0.027 C 
ATOM      8  C   UNL     1      -2.614  -1.640  24.798  0.00  0.00    +0.138 C 
BRANCH   4   2
ATOM      1  C   UNL     1      -3.813  -1.012  23.380  0.00  0.00    +0.017 C 
ATOM      2  C   UNL     1      -3.809  -1.024  24.205  0.00  0.00    +0.058 C 
ATOM      3  C   UNL     1      -4.198  -0.430  24.628  0.00  0.00    +0.017 C 
ENDBRANCH   4   2
ENDBRANCH   9   8
TORSDOF 5
ENDMDL
MODEL 5
REMARK VINA RESULT:      -8.5     15.724     18.625
REMARK  Name = 
REMARK  5 active torsions:
REMARK  status: ('A' for Active; 'I' for Inactive)
REMARK    1  A    between atoms: C_2  and  N_4
REMARK    2  A    between atoms: C_8  and  C_9
REMARK    3  A    between atoms: C_11  and  C_14
REMARK    4  A    between atoms: C_17  and  O_18
REMARK    5  A    between atoms: O_18  and  C_19
REMARK                            x       y       z     vdW  Elec       q    Type
REMARK                         _______ _______ _______ _____ _____    ______ ____
ROOT
ATOM      9  C   UNL     1      15.608   7.063  19.264  0.00  0.00    +0.251 A 
ATOM     10  N   UNL     1      14.851   6.858  19.520  0.00  0.00    -0.190 NA
ATOM     11  C   UNL     1      14.362   7.514  19.424  0.00  0.00    +0.205 A 
ATOM     12  N   UNL     1      14.816   8.126  19.107  0.00  0.00    -0.056 NA
ATOM     13  O   UNL     1      15.586   7.847  19.008  0.00  0.00    -0.336 OA
ENDROOT
BRANCH  11  14
ATOM     14  C   UNL     1      13.559   7.553  19.611  0.00  0.00    +0.058 A 
ATOM     15  C   UNL     1      13.125   8.229  19.423  0.00  0.00    +0.010 A 
ATOM     16  C   UNL     1      12.323   8.270  19.609  0.00  0.00    +0.058 A 
ATOM     17  C   UNL     1      11.954   7.634  19.984  0.00  0.00    +0.225 A 
ATOM     25  N   UNL     1      12.387   6.958  20.172  0.00  0.00    -0.210 NA
ATOM     26  C   UNL     1      13.190   6.917  19.985  0.00  0.00    +0.105 A 
BRANCH  17  18
ATOM     18  O   UNL     1      11.151   7.674  20.170  0.00  0.00    -0.464 OA
BRANCH  18  19
ATOM     19  C   UNL     1      10.914   7.891  20.930  0.00  0.00    +0.168 C 
ATOM     20  C   UNL     1      10.710   7.311  21.481  0.00  0.00    +0.044 C 
ATOM     21  C   UNL     1      10.474   7.528  22.240  0.00  0.00    +0.004 C 
ATOM     22  C   UNL     1      10.441   8.326  22.450  0.00  0.00    +0.000 C 
ATOM     23  C   UNL     1      10.646   8.906  21.900  0.00  0.00    +0.004 C 
ATOM     24  C   UNL     1      10.882   8.689  21.140  0.00  0.00    +0.044 C 
ENDBRANCH  18  19
ENDBRANCH  17  18
ENDBRANCH  11  14
BRANCH   9   8
ATOM      4  N   UNL     1      16.846   6.531  19.852  0.00  0.00    -0.268 NA
ATOM      5  C   UNL     1      17.405   5.968  19.624  0.00  0.00    +0.072 C 
ATOM      6  C   UNL     1      17.174   5.661  18.893  0.00  0.00    +0.019 C 
ATOM      7  C   UNL     1      16.473   6.034  18.670  0.00  0.00    +0.027 C 
ATOM      8  C   UNL     1      16.270   6.572  19.262  0.00  0.00    +0.138 C 
BRANCH   4   2
ATOM      1  C   UNL     1      17.198   7.727  20.548  0.00  0.00    +0.017 C 
ATOM      2  C   UNL     1      16.861   6.974  20.546  0.00  0.00    +0.058 C 
ATOM      3  C   UNL     1      16.538   6.666  21.240  0.00  0.00    +0.017 C 
ENDBRANCH   4   2
ENDBRANCH   9   8
TORSDOF 5
ENDMDL
MODEL 6
REMARK VINA RESULT:      -7.3     17.295     19.047
REMARK  Name = 
REMARK  5 active torsions:
REMARK  status: ('A' for Active; 'I' for Inactive)
REMARK    1  A    between atoms: C_2  and  N_4
REMARK    2  A    between atoms: C_8  and  C_9
REMARK    3  A    between atoms: C_11  and  C_14
REMARK    4  A    between atoms: C_17  and  O_18
REMARK    5  A    between atoms: O_18  and  C_19
REMARK                            x       y       z     vdW  Elec       q    Type
REMARK                         _______ _______ _______ _____ _____    ______ ____
ROOT
ATOM      9  C   UNL     1      15.235   6.732  19.789  0.00  0.00    +0.251 A 
ATOM     10  N   UNL     1      14.786   7.231  19.310  0.00  0.00    -0.190 NA
ATOM     11  C   UNL     1      14.009   7.219  19.585  0.00  0.00    +0.205 A 
ATOM     12  N   UNL     1      13.977   6.712  20.236  0.00  0.00    -0.056 NA
ATOM     13  O   UNL     1      14.735   6.411  20.362  0.00  0.00    -0.336 OA
ENDROOT
BRANCH  11  14
ATOM     14  C   UNL     1      13.374   7.640  19.268  0.00  0.00    +0.058 A 
ATOM     15  C   UNL     1      12.601   7.412  19.442  0.00  0.00    +0.010 A 
ATOM     16  C   UNL     1      11.966   7.831  19.126  0.00  0.00    +0.058 A 
ATOM     17  C   UNL     1      12.104   8.479  18.634  0.00  0.00    +0.225 A 
ATOM     25  N   UNL     1      12.877   8.707  18.459  0.00  0.00    -0.210 NA
ATOM     26  C   UNL     1      13.512   8.287  18.776  0.00  0.00    +0.105 A 
BRANCH  17  18
ATOM     18  O   UNL     1      11.468   8.899  18.316  0.00  0.00    -0.464 OA
BRANCH  18  19
ATOM     19  C   UNL     1      11.283   8.825  17.516  0.00  0.00    +0.168 C 
ATOM     20  C   UNL     1      11.814   9.092  16.943  0.00  0.00    +0.044 C 
ATOM     21  C   UNL     1      11.629   9.017  16.143  0.00  0.00    +0.004 C 
ATOM     22  C   UNL     1      10.913   8.677  15.915  0.00  0.00    +0.000 C 
ATOM     23  C   UNL     1      10.382   8.410  16.488  0.00  0.00    +0.004 C 
ATOM     24  C   UNL     1      10.567   8.484  17.288  0.00  0.00    +0.044 C 
ENDBRANCH  18  19
ENDBRANCH  17  18
ENDBRANCH  11  14
BRANCH   9   8
ATOM      4  N   UNL     1      16.644   6.899  20.175  0.00  0.00    -0.268 NA
ATOM      5  C   UNL     1      17.362   6.597  19.905  0.00  0.00    +0.072 C 
ATOM      6  C   UNL     1      17.204   6.091  19.273  0.00  0.00    +0.019 C 
ATOM      7  C   UNL     1      16.388   6.079  19.153  0.00  0.00    +0.027 C 
ATOM      8  C   UNL     1      16.041   6.579  19.711  0.00  0.00    +0.138 C 
BRANCH   4   2
ATOM      1  C   UNL     1      16.366   7.146  21.554  0.00  0.00    +0.017 C 
ATOM      2  C   UNL     1      16.545   7.428  20.800  0.00  0.00    +0.058 C 
ATOM      3  C   UNL     1      16.625   8.239  20.671  0.00  0.00    +0.017 C 
ENDBRANCH   4   2
ENDBRANCH   9   8
TORSDOF 5
ENDMDL
