REMARK  Name = 
REMARK  4 active torsions:
REMARK  status: ('A' for Active; 'I' for Inactive)
REMARK    1  A    between atoms: O_2  and  C_3
REMARK    2  A    between atoms: C_3  and  C_5
REMARK    3  A    between atoms: N_10  and  S_11
REMARK    4  A    between atoms: N_15  and  C_18
REMARK                            x       y       z     vdW  Elec       q    Type
REMARK                         _______ _______ _______ _____ _____    ______ ____
ROOT
ATOM      5  C   UNL     1       2.070   1.110   0.000  0.00  0.00    +0.184 C 
ATOM      6  C   UNL     1       1.356   0.698   0.000  0.00  0.00    +0.076 C 
ATOM      7  C   UNL     1       0.641   1.110   0.000  0.00  0.00    +0.076 A 
ATOM      8  C   UNL     1       0.641   1.935   0.000  0.00  0.00    +0.070 A 
ATOM      9  C   UNL     1       1.356   2.348   0.000  0.00  0.00    +0.141 C 
ATOM     10  N   UNL     1       2.070   1.935   0.000  0.00  0.00    -0.144 NA
ATOM     15  N   UNL     1      -0.143   2.190   0.000  0.00  0.00    -0.313 N 
ATOM     16  C   UNL     1      -0.628   1.523   0.000  0.00  0.00    +0.178 A 
ATOM     17  N   UNL     1      -0.143   0.856   0.000  0.00  0.00    -0.229 NA
ENDROOT
BRANCH  10  11
ATOM     11  S   UNL     1       2.784   2.348   0.000  0.00  0.00    +0.046 S 
ATOM     12  C   UNL     1       3.499   2.760   0.000  0.00  0.00    +0.196 C 
ATOM     13  O   UNL     1       3.197   1.633   0.000  0.00  0.00    -0.157 OA
ATOM     14  O   UNL     1       2.372   3.062   0.000  0.00  0.00    -0.157 OA
ENDBRANCH  10  11
BRANCH  15  18
ATOM     18  C   UNL     1      -0.398   2.975   0.000  0.00  0.00    +0.087 C 
ATOM     19  C   UNL     1      -1.205   3.147   0.000  0.00  0.00    +0.025 C 
ATOM     20  C   UNL     1       0.154   3.588   0.000  0.00  0.00    +0.025 C 
ENDBRANCH  15  18
BRANCH   5   3
ATOM      3  C   UNL     1       2.784   0.698   0.000  0.00  0.00    +0.334 C 
ATOM      4  O   UNL     1       2.784  -0.127   0.000  0.00  0.00    -0.249 OA
BRANCH   3   2
ATOM      1  C   UNL     1       4.213   0.698   0.000  0.00  0.00    +0.256 C 
ATOM      2  O   UNL     1       3.499   1.110   0.000  0.00  0.00    -0.443 OA
ENDBRANCH   3   2
ENDBRANCH   5   3
TORSDOF 4
