MODEL 1
REMARK VINA RESULT:     -11.4      0.000      0.000
REMARK  Name = 
REMARK  8 active torsions:
REMARK  status: ('A' for Active; 'I' for Inactive)
REMARK    1  A    between atoms: C_2  and  N_4
REMARK    2  A    between atoms: N_7  and  C_8
REMARK    3  A    between atoms: C_8  and  C_9
REMARK    4  A    between atoms: C_11  and  C_12
REMARK    5  A    between atoms: C_12  and  C_13
REMARK    6  A    between atoms: C_16  and  C_17
REMARK    7  A    between atoms: C_17  and  O_18
REMARK    8  A    between atoms: O_18  and  C_19
REMARK                            x       y       z     vdW  Elec       q    Type
REMARK                         _______ _______ _______ _____ _____    ______ ____
ROOT
ATOM      9  C   UNL     1      -1.923   3.610  25.525  0.00  0.00    +0.167 C 
ATOM     10  O   UNL     1      -1.635   2.854  25.683  0.00  0.00    -0.354 OA
ATOM     11  C   UNL     1      -0.831   2.690  25.590  0.00  0.00    +0.121 C 
ATOM     26  C   UNL     1      -0.316   3.283  25.338  0.00  0.00    +0.033 C 
ATOM     27  C   UNL     1      -0.604   4.041  25.180  0.00  0.00    +0.038 C 
ATOM     28  C   UNL     1      -1.407   4.203  25.273  0.00  0.00    +0.181 C 
ATOM     29  O   UNL     1      -1.696   4.961  25.115  0.00  0.00    -0.220 OA
ENDROOT
BRANCH   9   8
ATOM      8  C   UNL     1      -2.726   3.775  25.618  0.00  0.00    +0.149 C 
BRANCH   8   7
ATOM      4  N   UNL     1      -4.605   2.811  25.069  0.00  0.00    -0.189 NA
ATOM      5  C   UNL     1      -4.044   3.236  25.498  0.00  0.00    +0.339 C 
ATOM      6  O   UNL     1      -4.240   3.550  26.235  0.00  0.00    -0.249 OA
ATOM      7  N   UNL     1      -3.287   3.349  25.190  0.00  0.00    -0.185 NA
BRANCH   4   2
ATOM      1  C   UNL     1      -5.622   1.939  25.567  0.00  0.00    +0.023 C 
ATOM      2  C   UNL     1      -5.362   2.698  25.377  0.00  0.00    +0.097 C 
ATOM      3  C   UNL     1      -5.860   3.346  25.495  0.00  0.00    +0.023 C 
ENDBRANCH   4   2
ENDBRANCH   8   7
ENDBRANCH   9   8
BRANCH  11  12
ATOM     12  C   UNL     1      -0.543   1.934  25.748  0.00  0.00    +0.079 C 
BRANCH  12  13
ATOM     13  C   UNL     1      -0.753   1.303  25.260  0.00  0.00    +0.103 A 
ATOM     14  N   UNL     1      -0.473   1.167  24.496  0.00  0.00    -0.082 NA
ATOM     15  O   UNL     1      -0.826   0.476  24.214  0.00  0.00    -0.354 OA
ATOM     16  C   UNL     1      -1.324   0.185  24.803  0.00  0.00    +0.198 A 
ATOM     25  C   UNL     1      -1.278   0.696  25.450  0.00  0.00    +0.057 A 
BRANCH  16  17
ATOM     17  C   UNL     1      -1.786  -0.496  24.755  0.00  0.00    +0.272 C 
BRANCH  17  18
ATOM     18  O   UNL     1      -2.606  -0.444  24.821  0.00  0.00    -0.467 OA
BRANCH  18  19
ATOM     19  C   UNL     1      -3.079  -1.092  24.626  0.00  0.00    +0.139 A 
ATOM     20  C   UNL     1      -2.921  -1.831  24.956  0.00  0.00    +0.037 A 
ATOM     21  C   UNL     1      -3.393  -2.479  24.761  0.00  0.00    +0.003 A 
ATOM     22  C   UNL     1      -4.024  -2.386  24.236  0.00  0.00    +0.000 A 
ATOM     23  C   UNL     1      -4.181  -1.647  23.907  0.00  0.00    +0.003 A 
ATOM     24  C   UNL     1      -3.709  -0.999  24.102  0.00  0.00    +0.037 A 
ENDBRANCH  18  19
ENDBRANCH  17  18
ENDBRANCH  16  17
ENDBRANCH  12  13
ENDBRANCH  11  12
TORSDOF 8
ENDMDL
MODEL 2
REMARK VINA RESULT:     -11.2      1.263      3.432
REMARK  Name = 
REMARK  8 active torsions:
REMARK  status: ('A' for Active; 'I' for Inactive)
REMARK    1  A    between atoms: C_2  and  N_4
REMARK    2  A    between atoms: N_7  and  C_8
REMARK    3  A    between atoms: C_8  and  C_9
REMARK    4  A    between atoms: C_11  and  C_12
REMARK    5  A    between atoms: C_12  and  C_13
REMARK    6  A    between atoms: C_16  and  C_17
REMARK    7  A    between atoms: C_17  and  O_18
REMARK    8  A    between atoms: O_18  and  C_19
REMARK                            x       y       z     vdW  Elec       q    Type
REMARK                         _______ _______ _______ _____ _____    ______ ____
ROOT
ATOM      9  C   UNL     1      -1.771   3.072  24.787  0.00  0.00    +0.167 C 
ATOM     10  O   UNL     1      -2.498   2.796  24.514  0.00  0.00    -0.354 OA
ATOM     11  C   UNL     1      -3.187   3.225  24.666  0.00  0.00    +0.121 C 
ATOM     26  C   UNL     1      -3.147   3.930  25.092  0.00  0.00    +0.033 C 
ATOM     27  C   UNL     1      -2.419   4.207  25.366  0.00  0.00    +0.038 C 
ATOM     28  C   UNL     1      -1.732   3.778  25.213  0.00  0.00    +0.181 C 
ATOM     29  O   UNL     1      -1.004   4.054  25.487  0.00  0.00    -0.220 OA
ENDROOT
BRANCH   9   8
ATOM      8  C   UNL     1      -1.082   2.644  24.635  0.00  0.00    +0.149 C 
BRANCH   8   7
ATOM      4  N   UNL     1      -0.546   0.789  23.618  0.00  0.00    -0.189 NA
ATOM      5  C   UNL     1      -0.533   1.416  24.153  0.00  0.00    +0.339 C 
ATOM      6  O   UNL     1       0.044   1.443  24.742  0.00  0.00    -0.249 OA
ATOM      7  N   UNL     1      -1.096   2.017  24.100  0.00  0.00    -0.185 NA
BRANCH   4   2
ATOM      1  C   UNL     1       0.724   0.246  23.250  0.00  0.00    +0.023 C 
ATOM      2  C   UNL     1       0.017   0.188  23.671  0.00  0.00    +0.097 C 
ATOM      3  C   UNL     1      -0.127  -0.471  24.145  0.00  0.00    +0.023 C 
ENDBRANCH   4   2
ENDBRANCH   8   7
ENDBRANCH   9   8
BRANCH  11  12
ATOM     12  C   UNL     1      -3.914   2.948  24.392  0.00  0.00    +0.079 C 
BRANCH  12  13
ATOM     13  C   UNL     1      -4.223   2.242  24.686  0.00  0.00    +0.103 A 
ATOM     14  N   UNL     1      -4.738   2.167  25.326  0.00  0.00    -0.082 NA
ATOM     15  O   UNL     1      -4.905   1.365  25.426  0.00  0.00    -0.354 OA
ATOM     16  C   UNL     1      -4.495   0.945  24.848  0.00  0.00    +0.198 A 
ATOM     25  C   UNL     1      -4.073   1.487  24.390  0.00  0.00    +0.057 A 
BRANCH  16  17
ATOM     17  C   UNL     1      -4.504   0.127  24.745  0.00  0.00    +0.272 C 
BRANCH  17  18
ATOM     18  O   UNL     1      -3.796  -0.282  24.631  0.00  0.00    -0.467 OA
BRANCH  18  19
ATOM     19  C   UNL     1      -3.801  -1.105  24.562  0.00  0.00    +0.139 A 
ATOM     20  C   UNL     1      -4.166  -1.462  23.914  0.00  0.00    +0.037 A 
ATOM     21  C   UNL     1      -4.171  -2.285  23.845  0.00  0.00    +0.003 A 
ATOM     22  C   UNL     1      -3.810  -2.749  24.425  0.00  0.00    +0.000 A 
ATOM     23  C   UNL     1      -3.446  -2.391  25.072  0.00  0.00    +0.003 A 
ATOM     24  C   UNL     1      -3.441  -1.568  25.141  0.00  0.00    +0.037 A 
ENDBRANCH  18  19
ENDBRANCH  17  18
ENDBRANCH  16  17
ENDBRANCH  12  13
ENDBRANCH  11  12
TORSDOF 8
ENDMDL
MODEL 3
REMARK VINA RESULT:     -11.0      1.173      4.384
REMARK  Name = 
REMARK  8 active torsions:
REMARK  status: ('A' for Active; 'I' for Inactive)
REMARK    1  A    between atoms: C_2  and  N_4
REMARK    2  A    between atoms: N_7  and  C_8
REMARK    3  A    between atoms: C_8  and  C_9
REMARK    4  A    between atoms: C_11  and  C_12
REMARK    5  A    between atoms: C_12  and  C_13
REMARK    6  A    between atoms: C_16  and  C_17
REMARK    7  A    between atoms: C_17  and  O_18
REMARK    8  A    between atoms: O_18  and  C_19
REMARK                            x       y       z     vdW  Elec       q    Type
REMARK                         _______ _______ _______ _____ _____    ______ ____
ROOT
ATOM      9  C   UNL     1      -3.260  -0.923  25.036  0.00  0.00    +0.167 C 
ATOM     10  O   UNL     1      -2.573  -0.569  25.325  0.00  0.00    -0.354 OA
ATOM     11  C   UNL     1      -1.849  -0.959  25.259  0.00  0.00    +0.121 C 
ATOM     26  C   UNL     1      -1.812  -1.703  24.904  0.00  0.00    +0.033 C 
ATOM     27  C   UNL     1      -2.500  -2.057  24.615  0.00  0.00    +0.038 C 
ATOM     28  C   UNL     1      -3.223  -1.666  24.681  0.00  0.00    +0.181 C 
ATOM     29  O   UNL     1      -3.911  -2.021  24.392  0.00  0.00    -0.220 OA
ENDROOT
BRANCH   9   8
ATOM      8  C   UNL     1      -3.984  -0.533  25.102  0.00  0.00    +0.149 C 
BRANCH   8   7
ATOM      4  N   UNL     1      -4.753   1.476  24.731  0.00  0.00    -0.189 NA
ATOM      5  C   UNL     1      -4.654   0.729  25.067  0.00  0.00    +0.339 C 
ATOM      6  O   UNL     1      -5.125   0.497  25.703  0.00  0.00    -0.249 OA
ATOM      7  N   UNL     1      -4.084   0.214  24.766  0.00  0.00    -0.185 NA
BRANCH   4   2
ATOM      1  C   UNL     1      -6.114   1.900  24.820  0.00  0.00    +0.023 C 
ATOM      2  C   UNL     1      -5.323   1.991  25.032  0.00  0.00    +0.097 C 
ATOM      3  C   UNL     1      -5.100   2.598  25.544  0.00  0.00    +0.023 C 
ENDBRANCH   4   2
ENDBRANCH   8   7
ENDBRANCH   9   8
BRANCH  11  12
ATOM     12  C   UNL     1      -1.162  -0.606  25.548  0.00  0.00    +0.079 C 
BRANCH  12  13
ATOM     13  C   UNL     1      -0.885   0.094  25.210  0.00  0.00    +0.103 A 
ATOM     14  N   UNL     1      -0.435   0.155  24.521  0.00  0.00    -0.082 NA
ATOM     15  O   UNL     1      -0.282   0.955  24.387  0.00  0.00    -0.354 OA
ATOM     16  C   UNL     1      -0.636   1.388  24.993  0.00  0.00    +0.198 A 
ATOM     25  C   UNL     1      -1.010   0.855  25.501  0.00  0.00    +0.057 A 
BRANCH  16  17
ATOM     17  C   UNL     1      -0.621   2.208  25.076  0.00  0.00    +0.272 C 
BRANCH  17  18
ATOM     18  O   UNL     1      -1.190   2.672  24.699  0.00  0.00    -0.467 OA
BRANCH  18  19
ATOM     19  C   UNL     1      -1.235   3.481  24.857  0.00  0.00    +0.139 A 
ATOM     20  C   UNL     1      -0.622   3.980  24.623  0.00  0.00    +0.037 A 
ATOM     21  C   UNL     1      -0.667   4.790  24.781  0.00  0.00    +0.003 A 
ATOM     22  C   UNL     1      -1.325   5.097  25.172  0.00  0.00    +0.000 A 
ATOM     23  C   UNL     1      -1.937   4.597  25.405  0.00  0.00    +0.003 A 
ATOM     24  C   UNL     1      -1.893   3.788  25.248  0.00  0.00    +0.037 A 
ENDBRANCH  18  19
ENDBRANCH  17  18
ENDBRANCH  16  17
ENDBRANCH  12  13
ENDBRANCH  11  12
TORSDOF 8
ENDMDL
MODEL 4
REMARK VINA RESULT:     -10.6      1.621      4.738
REMARK  Name = 
REMARK  8 active torsions:
REMARK  status: ('A' for Active; 'I' for Inactive)
REMARK    1  A    between atoms: C_2  and  N_4
REMARK    2  A    between atoms: N_7  and  C_8
REMARK    3  A    between atoms: C_8  and  C_9
REMARK    4  A    between atoms: C_11  and  C_12
REMARK    5  A    between atoms: C_12  and  C_13
REMARK    6  A    between atoms: C_16  and  C_17
REMARK    7  A    between atoms: C_17  and  O_18
REMARK    8  A    between atoms: O_18  and  C_19
REMARK                            x       y       z     vdW  Elec       q    Type
REMARK                         _______ _______ _______ _____ _____    ______ ____
ROOT
ATOM      9  C   UNL     1      -1.201  -0.796  24.874  0.00  0.00    +0.167 C 
ATOM     10  O   UNL     1      -1.977  -0.802  25.152  0.00  0.00    -0.354 OA
ATOM     11  C   UNL     1      -2.445  -1.475  25.057  0.00  0.00    +0.121 C 
ATOM     26  C   UNL     1      -2.136  -2.142  24.683  0.00  0.00    +0.033 C 
ATOM     27  C   UNL     1      -1.359  -2.137  24.405  0.00  0.00    +0.038 C 
ATOM     28  C   UNL     1      -0.892  -1.463  24.501  0.00  0.00    +0.181 C 
ATOM     29  O   UNL     1      -0.115  -1.458  24.222  0.00  0.00    -0.220 OA
ENDROOT
BRANCH   9   8
ATOM      8  C   UNL     1      -0.733  -0.123  24.970  0.00  0.00    +0.149 C 
BRANCH   8   7
ATOM      4  N   UNL     1      -0.881   1.867  25.853  0.00  0.00    -0.189 NA
ATOM      5  C   UNL     1      -0.603   1.231  25.408  0.00  0.00    +0.339 C 
ATOM      6  O   UNL     1       0.081   1.312  24.954  0.00  0.00    -0.249 OA
ATOM      7  N   UNL     1      -1.010   0.513  25.415  0.00  0.00    -0.185 NA
BRANCH   4   2
ATOM      1  C   UNL     1      -0.695   3.179  25.319  0.00  0.00    +0.023 C 
ATOM      2  C   UNL     1      -0.474   2.585  25.846  0.00  0.00    +0.097 C 
ATOM      3  C   UNL     1       0.154   2.708  26.366  0.00  0.00    +0.023 C 
ENDBRANCH   4   2
ENDBRANCH   8   7
ENDBRANCH   9   8
BRANCH  11  12
ATOM     12  C   UNL     1      -3.221  -1.481  25.335  0.00  0.00    +0.079 C 
BRANCH  12  13
ATOM     13  C   UNL     1      -3.772  -0.946  25.032  0.00  0.00    +0.103 A 
ATOM     14  N   UNL     1      -4.189  -1.028  24.326  0.00  0.00    -0.082 NA
ATOM     15  O   UNL     1      -4.677  -0.368  24.240  0.00  0.00    -0.354 OA
ATOM     16  C   UNL     1      -4.561   0.121  24.893  0.00  0.00    +0.198 A 
ATOM     25  C   UNL     1      -4.002  -0.236  25.383  0.00  0.00    +0.057 A 
BRANCH  16  17
ATOM     17  C   UNL     1      -4.938   0.842  25.032  0.00  0.00    +0.272 C 
BRANCH  17  18
ATOM     18  O   UNL     1      -4.737   1.506  24.587  0.00  0.00    -0.467 OA
BRANCH  18  19
ATOM     19  C   UNL     1      -4.873   2.263  24.888  0.00  0.00    +0.139 A 
ATOM     20  C   UNL     1      -5.571   2.424  25.295  0.00  0.00    +0.037 A 
ATOM     21  C   UNL     1      -5.707   3.181  25.596  0.00  0.00    +0.003 A 
ATOM     22  C   UNL     1      -5.144   3.775  25.489  0.00  0.00    +0.000 A 
ATOM     23  C   UNL     1      -4.446   3.612  25.082  0.00  0.00    +0.003 A 
ATOM     24  C   UNL     1      -4.310   2.855  24.781  0.00  0.00    +0.037 A 
ENDBRANCH  18  19
ENDBRANCH  17  18
ENDBRANCH  16  17
ENDBRANCH  12  13
ENDBRANCH  11  12
TORSDOF 8
ENDMDL
MODEL 5
REMARK VINA RESULT:     -10.4      1.244      4.055
REMARK  Name = 
REMARK  8 active torsions:
REMARK  status: ('A' for Active; 'I' for Inactive)
REMARK    1  A    between atoms: C_2  and  N_4
REMARK    2  A    between atoms: N_7  and  C_8
REMARK    3  A    between atoms: C_8  and  C_9
REMARK    4  A    between atoms: C_11  and  C_12
REMARK    5  A    between atoms: C_12  and  C_13
REMARK    6  A    between atoms: C_16  and  C_17
REMARK    7  A    between atoms: C_17  and  O_18
REMARK    8  A    between atoms: O_18  and  C_19
REMARK                            x       y       z     vdW  Elec       q    Type
REMARK                         _______ _______ _______ _____ _____    ______ ____
ROOT
ATOM      9  C   UNL     1      -0.395   0.587  24.516  0.00  0.00    +0.167 C 
ATOM     10  O   UNL     1      -0.584   1.198  25.036  0.00  0.00    -0.354 OA
ATOM     11  C   UNL     1      -0.184   1.918  24.991  0.00  0.00    +0.121 C 
ATOM     26  C   UNL     1       0.405   2.027  24.424  0.00  0.00    +0.033 C 
ATOM     27  C   UNL     1       0.594   1.415  23.902  0.00  0.00    +0.038 C 
ATOM     28  C   UNL     1       0.194   0.696  23.948  0.00  0.00    +0.181 C 
ATOM     29  O   UNL     1       0.383   0.085  23.426  0.00  0.00    -0.220 OA
ENDROOT
BRANCH   9   8
ATOM      8  C   UNL     1      -0.795  -0.133  24.561  0.00  0.00    +0.149 C 
BRANCH   8   7
ATOM      4  N   UNL     1      -2.860  -0.839  24.597  0.00  0.00    -0.189 NA
ATOM      5  C   UNL     1      -2.044  -0.812  24.711  0.00  0.00    +0.339 C 
ATOM      6  O   UNL     1      -1.659  -1.437  25.088  0.00  0.00    -0.249 OA
ATOM      7  N   UNL     1      -1.611  -0.161  24.447  0.00  0.00    -0.185 NA
BRANCH   4   2
ATOM      1  C   UNL     1      -3.488  -2.096  24.336  0.00  0.00    +0.023 C 
ATOM      2  C   UNL     1      -3.292  -1.491  24.861  0.00  0.00    +0.097 C 
ATOM      3  C   UNL     1      -3.529  -1.536  25.650  0.00  0.00    +0.023 C 
ENDBRANCH   4   2
ENDBRANCH   8   7
ENDBRANCH   9   8
BRANCH  11  12
ATOM     12  C   UNL     1      -0.372   2.528  25.512  0.00  0.00    +0.079 C 
BRANCH  12  13
ATOM     13  C   UNL     1      -1.034   3.001  25.371  0.00  0.00    +0.103 A 
ATOM     14  N   UNL     1      -1.036   3.731  24.987  0.00  0.00    -0.082 NA
ATOM     15  O   UNL     1      -1.813   4.007  24.969  0.00  0.00    -0.354 OA
ATOM     16  C   UNL     1      -2.291   3.449  25.341  0.00  0.00    +0.198 A 
ATOM     25  C   UNL     1      -1.809   2.826  25.590  0.00  0.00    +0.057 A 
BRANCH  16  17
ATOM     17  C   UNL     1      -3.107   3.502  25.447  0.00  0.00    +0.272 C 
BRANCH  17  18
ATOM     18  O   UNL     1      -3.617   3.288  24.834  0.00  0.00    -0.467 OA
BRANCH  18  19
ATOM     19  C   UNL     1      -4.374   3.006  25.006  0.00  0.00    +0.139 A 
ATOM     20  C   UNL     1      -4.876   3.442  25.493  0.00  0.00    +0.037 A 
ATOM     21  C   UNL     1      -5.632   3.160  25.665  0.00  0.00    +0.003 A 
ATOM     22  C   UNL     1      -5.885   2.441  25.348  0.00  0.00    +0.000 A 
ATOM     23  C   UNL     1      -5.383   2.005  24.860  0.00  0.00    +0.003 A 
ATOM     24  C   UNL     1      -4.626   2.288  24.689  0.00  0.00    +0.037 A 
ENDBRANCH  18  19
ENDBRANCH  17  18
ENDBRANCH  16  17
ENDBRANCH  12  13
ENDBRANCH  11  12
TORSDOF 8
ENDMDL
MODEL 6
REMARK VINA RESULT:     -10.3      1.374      3.641
REMARK  Name = 
REMARK  8 active torsions:
REMARK  status: ('A' for Active; 'I' for Inactive)
REMARK    1  A    between atoms: C_2  and  N_4
REMARK    2  A    between atoms: N_7  and  C_8
REMARK    3  A    between atoms: C_8  and  C_9
REMARK    4  A    between atoms: C_11  and  C_12
REMARK    5  A    between atoms: C_12  and  C_13
REMARK    6  A    between atoms: C_16  and  C_17
REMARK    7  A    between atoms: C_17  and  O_18
REMARK    8  A    between atoms: O_18  and  C_19
REMARK                            x       y       z     vdW  Elec       q    Type
REMARK                         _______ _______ _______ _____ _____    ______ ____
ROOT
ATOM      9  C   UNL     1      -4.711   2.948  25.457  0.00  0.00    +0.167 C 
ATOM     10  O   UNL     1      -4.541   2.272  25.017  0.00  0.00    -0.354 OA
ATOM     11  C   UNL     1      -5.113   1.684  24.925  0.00  0.00    +0.121 C 
ATOM     26  C   UNL     1      -5.855   1.773  25.274  0.00  0.00    +0.033 C 
ATOM     27  C   UNL     1      -6.025   2.449  25.715  0.00  0.00    +0.038 C 
ATOM     28  C   UNL     1      -5.453   3.036  25.806  0.00  0.00    +0.181 C 
ATOM     29  O   UNL     1      -5.624   3.713  26.247  0.00  0.00    -0.220 OA
ENDROOT
BRANCH   9   8
ATOM      8  C   UNL     1      -4.139   3.535  25.550  0.00  0.00    +0.149 C 
BRANCH   8   7
ATOM      4  N   UNL     1      -2.102   3.901  24.859  0.00  0.00    -0.189 NA
ATOM      5  C   UNL     1      -2.775   3.901  25.335  0.00  0.00    +0.339 C 
ATOM      6  O   UNL     1      -2.757   4.267  26.075  0.00  0.00    -0.249 OA
ATOM      7  N   UNL     1      -3.466   3.536  25.073  0.00  0.00    -0.185 NA
BRANCH   4   2
ATOM      1  C   UNL     1      -1.323   5.084  25.052  0.00  0.00    +0.023 C 
ATOM      2  C   UNL     1      -1.410   4.267  25.121  0.00  0.00    +0.097 C 
ATOM      3  C   UNL     1      -0.805   3.815  25.453  0.00  0.00    +0.023 C 
ENDBRANCH   4   2
ENDBRANCH   8   7
ENDBRANCH   9   8
BRANCH  11  12
ATOM     12  C   UNL     1      -4.943   1.008  24.484  0.00  0.00    +0.079 C 
BRANCH  12  13
ATOM     13  C   UNL     1      -4.333   0.505  24.720  0.00  0.00    +0.103 A 
ATOM     14  N   UNL     1      -4.341   0.008  25.379  0.00  0.00    -0.082 NA
ATOM     15  O   UNL     1      -3.621  -0.394  25.405  0.00  0.00    -0.354 OA
ATOM     16  C   UNL     1      -3.168  -0.147  24.762  0.00  0.00    +0.198 A 
ATOM     25  C   UNL     1      -3.608   0.409  24.339  0.00  0.00    +0.057 A 
BRANCH  16  17
ATOM     17  C   UNL     1      -2.409  -0.408  24.575  0.00  0.00    +0.272 C 
BRANCH  17  18
ATOM     18  O   UNL     1      -1.753   0.045  24.785  0.00  0.00    -0.467 OA
BRANCH  18  19
ATOM     19  C   UNL     1      -1.023  -0.092  24.425  0.00  0.00    +0.139 A 
ATOM     20  C   UNL     1      -0.678  -0.840  24.463  0.00  0.00    +0.037 A 
ATOM     21  C   UNL     1       0.051  -0.977  24.102  0.00  0.00    +0.003 A 
ATOM     22  C   UNL     1       0.436  -0.364  23.704  0.00  0.00    +0.000 A 
ATOM     23  C   UNL     1       0.091   0.384  23.667  0.00  0.00    +0.003 A 
ATOM     24  C   UNL     1      -0.639   0.520  24.027  0.00  0.00    +0.037 A 
ENDBRANCH  18  19
ENDBRANCH  17  18
ENDBRANCH  16  17
ENDBRANCH  12  13
ENDBRANCH  11  12
TORSDOF 8
ENDMDL
MODEL 7
REMARK VINA RESULT:      -9.6      1.533      4.137
REMARK  Name = 
REMARK  8 active torsions:
REMARK  status: ('A' for Active; 'I' for Inactive)
REMARK    1  A    between atoms: C_2  and  N_4
REMARK    2  A    between atoms: N_7  and  C_8
REMARK    3  A    between atoms: C_8  and  C_9
REMARK    4  A    between atoms: C_11  and  C_12
REMARK    5  A    between atoms: C_12  and  C_13
REMARK    6  A    between atoms: C_16  and  C_17
REMARK    7  A    between atoms: C_17  and  O_18
REMARK    8  A    between atoms: O_18  and  C_19
REMARK                            x       y       z     vdW  Elec       q    Type
REMARK                         _______ _______ _______ _____ _____    ______ ____
ROOT
ATOM      9  C   UNL     1      -4.933   1.942  25.246  0.00  0.00    +0.167 C 
ATOM     10  O   UNL     1      -4.364   2.357  24.817  0.00  0.00    -0.354 OA
ATOM     11  C   UNL     1      -4.370   3.182  24.813  0.00  0.00    +0.121 C 
ATOM     26  C   UNL     1      -4.945   3.592  25.239  0.00  0.00    +0.033 C 
ATOM     27  C   UNL     1      -5.516   3.177  25.668  0.00  0.00    +0.038 C 
ATOM     28  C   UNL     1      -5.509   2.352  25.671  0.00  0.00    +0.181 C 
ATOM     29  O   UNL     1      -6.079   1.937  26.101  0.00  0.00    -0.220 OA
ENDROOT
BRANCH   9   8
ATOM      8  C   UNL     1      -4.928   1.117  25.250  0.00  0.00    +0.149 C 
BRANCH   8   7
ATOM      4  N   UNL     1      -4.017  -0.493  24.091  0.00  0.00    -0.189 NA
ATOM      5  C   UNL     1      -4.352  -0.079  24.721  0.00  0.00    +0.339 C 
ATOM      6  O   UNL     1      -4.445  -0.447  25.453  0.00  0.00    -0.249 OA
ATOM      7  N   UNL     1      -4.594   0.703  24.620  0.00  0.00    -0.185 NA
BRANCH   4   2
ATOM      1  C   UNL     1      -3.079  -1.443  24.600  0.00  0.00    +0.023 C 
ATOM      2  C   UNL     1      -3.775  -1.275  24.193  0.00  0.00    +0.097 C 
ATOM      3  C   UNL     1      -4.232  -1.891  23.886  0.00  0.00    +0.023 C 
ENDBRANCH   4   2
ENDBRANCH   8   7
ENDBRANCH   9   8
BRANCH  11  12
ATOM     12  C   UNL     1      -3.801   3.597  24.385  0.00  0.00    +0.079 C 
BRANCH  12  13
ATOM     13  C   UNL     1      -3.003   3.527  24.583  0.00  0.00    +0.103 A 
ATOM     14  N   UNL     1      -2.615   3.937  25.185  0.00  0.00    -0.082 NA
ATOM     15  O   UNL     1      -1.825   3.698  25.188  0.00  0.00    -0.354 OA
ATOM     16  C   UNL     1      -1.725   3.141  24.590  0.00  0.00    +0.198 A 
ATOM     25  C   UNL     1      -2.453   3.035  24.215  0.00  0.00    +0.057 A 
BRANCH  16  17
ATOM     17  C   UNL     1      -1.021   2.757  24.398  0.00  0.00    +0.272 C 
BRANCH  17  18
ATOM     18  O   UNL     1      -0.907   1.969  24.617  0.00  0.00    -0.467 OA
BRANCH  18  19
ATOM     19  C   UNL     1      -0.308   1.524  24.264  0.00  0.00    +0.139 A 
ATOM     20  C   UNL     1       0.460   1.822  24.228  0.00  0.00    +0.037 A 
ATOM     21  C   UNL     1       1.059   1.377  23.875  0.00  0.00    +0.003 A 
ATOM     22  C   UNL     1       0.888   0.634  23.559  0.00  0.00    +0.000 A 
ATOM     23  C   UNL     1       0.120   0.337  23.595  0.00  0.00    +0.003 A 
ATOM     24  C   UNL     1      -0.479   0.782  23.948  0.00  0.00    +0.037 A 
ENDBRANCH  18  19
ENDBRANCH  17  18
ENDBRANCH  16  17
ENDBRANCH  12  13
ENDBRANCH  11  12
TORSDOF 8
ENDMDL
MODEL 8
REMARK VINA RESULT:      -8.5     15.900     18.287
REMARK  Name = 
REMARK  8 active torsions:
REMARK  status: ('A' for Active; 'I' for Inactive)
REMARK    1  A    between atoms: C_2  and  N_4
REMARK    2  A    between atoms: N_7  and  C_8
REMARK    3  A    between atoms: C_8  and  C_9
REMARK    4  A    between atoms: C_11  and  C_12
REMARK    5  A    between atoms: C_12  and  C_13
REMARK    6  A    between atoms: C_16  and  C_17
REMARK    7  A    between atoms: C_17  and  O_18
REMARK    8  A    between atoms: O_18  and  C_19
REMARK                            x       y       z     vdW  Elec       q    Type
REMARK                         _______ _______ _______ _____ _____    ______ ____
ROOT
ATOM      9  C   UNL     1      11.271   8.720  18.086  0.00  0.00    +0.167 C 
ATOM     10  O   UNL     1      12.083   8.830  17.993  0.00  0.00    -0.354 OA
ATOM     11  C   UNL     1      12.409   8.879  17.236  0.00  0.00    +0.121 C 
ATOM     26  C   UNL     1      11.922   8.816  16.573  0.00  0.00    +0.033 C 
ATOM     27  C   UNL     1      11.109   8.706  16.666  0.00  0.00    +0.038 C 
ATOM     28  C   UNL     1      10.784   8.658  17.423  0.00  0.00    +0.181 C 
ATOM     29  O   UNL     1       9.972   8.547  17.516  0.00  0.00    -0.220 OA
ENDROOT
BRANCH   9   8
ATOM      8  C   UNL     1      10.945   8.672  18.843  0.00  0.00    +0.149 C 
BRANCH   8   7
ATOM      4  N   UNL     1      11.272   7.550  20.686  0.00  0.00    -0.189 NA
ATOM      5  C   UNL     1      11.027   8.142  20.167  0.00  0.00    +0.339 C 
ATOM      6  O   UNL     1      10.617   8.798  20.455  0.00  0.00    -0.249 OA
ATOM      7  N   UNL     1      11.190   8.079  19.361  0.00  0.00    -0.185 NA
BRANCH   4   2
ATOM      1  C   UNL     1      10.420   7.279  21.801  0.00  0.00    +0.023 C 
ATOM      2  C   UNL     1      11.108   7.612  21.492  0.00  0.00    +0.097 C 
ATOM      3  C   UNL     1      11.633   8.008  21.989  0.00  0.00    +0.023 C 
ENDBRANCH   4   2
ENDBRANCH   8   7
ENDBRANCH   9   8
BRANCH  11  12
ATOM     12  C   UNL     1      13.221   8.989  17.142  0.00  0.00    +0.079 C 
BRANCH  12  13
ATOM     13  C   UNL     1      13.746   8.394  17.368  0.00  0.00    +0.103 A 
ATOM     14  N   UNL     1      13.859   7.675  16.981  0.00  0.00    -0.082 NA
ATOM     15  O   UNL     1      14.434   7.250  17.393  0.00  0.00    -0.354 OA
ATOM     16  C   UNL     1      14.676   7.707  18.035  0.00  0.00    +0.198 A 
ATOM     25  C   UNL     1      14.251   8.414  18.020  0.00  0.00    +0.057 A 
BRANCH  16  17
ATOM     17  C   UNL     1      15.244   7.495  18.595  0.00  0.00    +0.272 C 
BRANCH  17  18
ATOM     18  O   UNL     1      15.137   6.819  19.055  0.00  0.00    -0.467 OA
BRANCH  18  19
ATOM     19  C   UNL     1      15.647   6.663  19.685  0.00  0.00    +0.139 A 
ATOM     20  C   UNL     1      15.348   6.601  20.451  0.00  0.00    +0.037 A 
ATOM     21  C   UNL     1      15.858   6.445  21.081  0.00  0.00    +0.003 A 
ATOM     22  C   UNL     1      16.667   6.351  20.943  0.00  0.00    +0.000 A 
ATOM     23  C   UNL     1      16.964   6.412  20.177  0.00  0.00    +0.003 A 
ATOM     24  C   UNL     1      16.454   6.568  19.547  0.00  0.00    +0.037 A 
ENDBRANCH  18  19
ENDBRANCH  17  18
ENDBRANCH  16  17
ENDBRANCH  12  13
ENDBRANCH  11  12
TORSDOF 8
ENDMDL
