MODEL 1
REMARK VINA RESULT:     -10.1      0.000      0.000
REMARK  Name = 
REMARK  8 active torsions:
REMARK  status: ('A' for Active; 'I' for Inactive)
REMARK    1  A    between atoms: C_6  and  C_7
REMARK    2  A    between atoms: C_11  and  N_31
REMARK    3  A    between atoms: C_13  and  C_14
REMARK    4  A    between atoms: N_16  and  C_17
REMARK    5  A    between atoms: C_17  and  C_18
REMARK    6  A    between atoms: C_17  and  C_28
REMARK    7  A    between atoms: C_18  and  C_19
REMARK    8  A    between atoms: N_34  and  C_35
REMARK                            x       y       z     vdW  Elec       q    Type
REMARK                         _______ _______ _______ _____ _____    ______ ____
ROOT
ATOM      7  C   UNL     1      -1.071  -0.174  25.057  0.00  0.00    +0.265 C 
ATOM      8  O   UNL     1      -1.621   0.262  25.491  0.00  0.00    -0.268 OA
ATOM      9  N   UNL     1      -0.452   0.211  24.670  0.00  0.00    -0.266 N 
ATOM     10  C   UNL     1       0.136  -0.150  24.218  0.00  0.00    +0.116 C 
ATOM     11  C   UNL     1       0.639   0.441  23.936  0.00  0.00    +0.119 C 
ATOM     12  C   UNL     1       0.361   1.167  24.214  0.00  0.00    +0.053 C 
ATOM     13  C   UNL     1      -0.313   1.024  24.667  0.00  0.00    +0.156 C 
ENDROOT
BRANCH   7   6
ATOM      1  C   UNL     1      -2.466  -1.079  24.383  0.00  0.00    +0.131 C 
ATOM      2  N   UNL     1      -1.781  -1.410  24.700  0.00  0.00    -0.320 N 
ATOM      3  C   UNL     1      -1.617  -2.217  24.763  0.00  0.00    +0.076 A 
ATOM      4  C   UNL     1      -0.874  -2.299  25.112  0.00  0.00    +0.020 A 
ATOM      5  C   UNL     1      -0.579  -1.544  25.265  0.00  0.00    +0.023 A 
ATOM      6  C   UNL     1      -1.139  -0.995  25.010  0.00  0.00    +0.114 A 
ENDBRANCH   7   6
BRANCH  11  31
ATOM     31  N   UNL     1       1.303   0.326  23.460  0.00  0.00    -0.187 NA
ATOM     32  C   UNL     1       1.212   0.082  22.677  0.00  0.00    +0.339 C 
ATOM     33  O   UNL     1       0.457  -0.046  22.370  0.00  0.00    -0.249 OA
ATOM     34  N   UNL     1       1.876  -0.033  22.201  0.00  0.00    -0.189 NA
BRANCH  34  35
ATOM     35  C   UNL     1       2.631   0.095  22.508  0.00  0.00    +0.097 C 
ATOM     36  C   UNL     1       2.984   0.838  22.437  0.00  0.00    +0.022 C 
ATOM     37  C   UNL     1       3.739   0.966  22.744  0.00  0.00    +0.002 C 
ATOM     38  C   UNL     1       4.140   0.351  23.121  0.00  0.00    +0.000 C 
ATOM     39  C   UNL     1       3.787  -0.390  23.191  0.00  0.00    +0.002 C 
ATOM     40  C   UNL     1       3.032  -0.519  22.884  0.00  0.00    +0.022 C 
ENDBRANCH  34  35
ENDBRANCH  11  31
BRANCH  13  14
ATOM     14  C   UNL     1      -0.769   1.596  25.051  0.00  0.00    +0.260 C 
ATOM     15  O   UNL     1      -0.802   1.611  25.875  0.00  0.00    -0.272 OA
ATOM     16  N   UNL     1      -1.191   2.151  24.610  0.00  0.00    -0.196 NA
BRANCH  16  17
ATOM     17  C   UNL     1      -1.646   2.722  24.993  0.00  0.00    +0.179 C 
BRANCH  17  28
ATOM     28  C   UNL     1      -1.322   3.462  25.161  0.00  0.00    +0.281 C 
ATOM     29  N   UNL     1      -1.393   3.782  25.917  0.00  0.00    -0.086 NA
ATOM     30  O   UNL     1      -0.928   3.882  24.569  0.00  0.00    -0.270 OA
ENDBRANCH  17  28
BRANCH  17  18
ATOM     18  C   UNL     1      -2.424   2.553  25.210  0.00  0.00    +0.059 C 
BRANCH  18  19
ATOM     19  C   UNL     1      -3.033   2.637  24.660  0.00  0.00    +0.001 A 
ATOM     20  C   UNL     1      -2.952   2.906  23.884  0.00  0.00    +0.095 A 
ATOM     21  N   UNL     1      -3.699   2.902  23.534  0.00  0.00    -0.244 NA
ATOM     22  C   UNL     1      -4.241   2.631  24.093  0.00  0.00    +0.081 A 
ATOM     23  C   UNL     1      -3.829   2.467  24.789  0.00  0.00    +0.015 A 
ATOM     24  C   UNL     1      -4.234   2.183  25.449  0.00  0.00    +0.001 A 
ATOM     25  C   UNL     1      -5.049   2.064  25.415  0.00  0.00    +0.000 A 
ATOM     26  C   UNL     1      -5.461   2.228  24.719  0.00  0.00    +0.002 A 
ATOM     27  C   UNL     1      -5.057   2.512  24.058  0.00  0.00    +0.019 A 
ENDBRANCH  18  19
ENDBRANCH  17  18
ENDBRANCH  16  17
ENDBRANCH  13  14
TORSDOF 8
ENDMDL
MODEL 2
REMARK VINA RESULT:     -10.1      1.382      3.841
REMARK  Name = 
REMARK  8 active torsions:
REMARK  status: ('A' for Active; 'I' for Inactive)
REMARK    1  A    between atoms: C_6  and  C_7
REMARK    2  A    between atoms: C_11  and  N_31
REMARK    3  A    between atoms: C_13  and  C_14
REMARK    4  A    between atoms: N_16  and  C_17
REMARK    5  A    between atoms: C_17  and  C_18
REMARK    6  A    between atoms: C_17  and  C_28
REMARK    7  A    between atoms: C_18  and  C_19
REMARK    8  A    between atoms: N_34  and  C_35
REMARK                            x       y       z     vdW  Elec       q    Type
REMARK                         _______ _______ _______ _____ _____    ______ ____
ROOT
ATOM      7  C   UNL     1       0.037   1.112  23.565  0.00  0.00    +0.265 C 
ATOM      8  O   UNL     1       0.157   1.925  23.499  0.00  0.00    -0.268 OA
ATOM      9  N   UNL     1      -0.637   0.823  23.942  0.00  0.00    -0.266 N 
ATOM     10  C   UNL     1      -0.830   0.028  24.049  0.00  0.00    +0.116 C 
ATOM     11  C   UNL     1      -1.549  -0.008  24.452  0.00  0.00    +0.119 C 
ATOM     12  C   UNL     1      -1.801   0.765  24.594  0.00  0.00    +0.053 C 
ATOM     13  C   UNL     1      -1.237   1.278  24.279  0.00  0.00    +0.156 C 
ENDROOT
BRANCH   7   6
ATOM      1  C   UNL     1       1.819   1.226  23.750  0.00  0.00    +0.131 C 
ATOM      2  N   UNL     1       1.411   0.640  23.338  0.00  0.00    -0.320 N 
ATOM      3  C   UNL     1       1.751   0.002  22.939  0.00  0.00    +0.076 A 
ATOM      4  C   UNL     1       1.142  -0.445  22.608  0.00  0.00    +0.020 A 
ATOM      5  C   UNL     1       0.426  -0.084  22.801  0.00  0.00    +0.023 A 
ATOM      6  C   UNL     1       0.592   0.586  23.253  0.00  0.00    +0.114 A 
ENDBRANCH   7   6
BRANCH  11  31
ATOM     31  N   UNL     1      -1.947  -0.696  24.674  0.00  0.00    -0.187 NA
ATOM     32  C   UNL     1      -1.786  -1.048  25.402  0.00  0.00    +0.339 C 
ATOM     33  O   UNL     1      -1.228  -0.713  25.909  0.00  0.00    -0.249 OA
ATOM     34  N   UNL     1      -2.184  -1.737  25.624  0.00  0.00    -0.189 NA
BRANCH  34  35
ATOM     35  C   UNL     1      -2.743  -2.072  25.118  0.00  0.00    +0.097 C 
ATOM     36  C   UNL     1      -3.526  -1.814  25.140  0.00  0.00    +0.022 C 
ATOM     37  C   UNL     1      -4.085  -2.149  24.634  0.00  0.00    +0.002 C 
ATOM     38  C   UNL     1      -3.859  -2.742  24.105  0.00  0.00    +0.000 C 
ATOM     39  C   UNL     1      -3.077  -2.999  24.084  0.00  0.00    +0.002 C 
ATOM     40  C   UNL     1      -2.517  -2.664  24.590  0.00  0.00    +0.022 C 
ENDBRANCH  34  35
ENDBRANCH  11  31
BRANCH  13  14
ATOM     14  C   UNL     1      -1.268   2.103  24.298  0.00  0.00    +0.260 C 
ATOM     15  O   UNL     1      -1.151   2.535  23.605  0.00  0.00    -0.272 OA
ATOM     16  N   UNL     1      -1.415   2.494  25.009  0.00  0.00    -0.196 NA
BRANCH  16  17
ATOM     17  C   UNL     1      -1.445   3.318  25.027  0.00  0.00    +0.179 C 
BRANCH  17  28
ATOM     28  C   UNL     1      -0.776   3.751  25.241  0.00  0.00    +0.281 C 
ATOM     29  N   UNL     1      -0.571   4.429  24.822  0.00  0.00    -0.086 NA
ATOM     30  O   UNL     1      -0.311   3.502  25.877  0.00  0.00    -0.270 OA
ENDBRANCH  17  28
BRANCH  17  18
ATOM     18  C   UNL     1      -2.145   3.710  24.831  0.00  0.00    +0.059 C 
BRANCH  18  19
ATOM     19  C   UNL     1      -2.748   3.782  25.388  0.00  0.00    +0.001 A 
ATOM     20  C   UNL     1      -2.648   3.923  26.195  0.00  0.00    +0.095 A 
ATOM     21  N   UNL     1      -3.395   3.953  26.543  0.00  0.00    -0.244 NA
ATOM     22  C   UNL     1      -3.957   3.832  25.951  0.00  0.00    +0.081 A 
ATOM     23  C   UNL     1      -3.556   3.726  25.238  0.00  0.00    +0.015 A 
ATOM     24  C   UNL     1      -3.981   3.592  24.543  0.00  0.00    +0.001 A 
ATOM     25  C   UNL     1      -4.805   3.565  24.561  0.00  0.00    +0.000 A 
ATOM     26  C   UNL     1      -5.205   3.670  25.275  0.00  0.00    +0.002 A 
ATOM     27  C   UNL     1      -4.782   3.804  25.970  0.00  0.00    +0.019 A 
ENDBRANCH  18  19
ENDBRANCH  17  18
ENDBRANCH  16  17
ENDBRANCH  13  14
TORSDOF 8
ENDMDL
MODEL 3
REMARK VINA RESULT:      -9.6      1.808      5.821
REMARK  Name = 
REMARK  8 active torsions:
REMARK  status: ('A' for Active; 'I' for Inactive)
REMARK    1  A    between atoms: C_6  and  C_7
REMARK    2  A    between atoms: C_11  and  N_31
REMARK    3  A    between atoms: C_13  and  C_14
REMARK    4  A    between atoms: N_16  and  C_17
REMARK    5  A    between atoms: C_17  and  C_18
REMARK    6  A    between atoms: C_17  and  C_28
REMARK    7  A    between atoms: C_18  and  C_19
REMARK    8  A    between atoms: N_34  and  C_35
REMARK                            x       y       z     vdW  Elec       q    Type
REMARK                         _______ _______ _______ _____ _____    ______ ____
ROOT
ATOM      7  C   UNL     1      -0.920   2.561  24.971  0.00  0.00    +0.265 C 
ATOM      8  O   UNL     1      -0.254   2.075  24.997  0.00  0.00    -0.268 OA
ATOM      9  N   UNL     1      -1.674   2.227  24.940  0.00  0.00    -0.266 N 
ATOM     10  C   UNL     1      -2.387   2.641  24.912  0.00  0.00    +0.116 C 
ATOM     11  C   UNL     1      -3.001   2.089  24.887  0.00  0.00    +0.119 C 
ATOM     12  C   UNL     1      -2.666   1.335  24.899  0.00  0.00    +0.053 C 
ATOM     13  C   UNL     1      -1.846   1.420  24.932  0.00  0.00    +0.156 C 
ENDROOT
BRANCH   7   6
ATOM      1  C   UNL     1      -0.036   3.535  23.750  0.00  0.00    +0.131 C 
ATOM      2  N   UNL     1      -0.427   3.829  24.414  0.00  0.00    -0.320 N 
ATOM      3  C   UNL     1      -0.479   4.623  24.633  0.00  0.00    +0.076 A 
ATOM      4  C   UNL     1      -0.918   4.665  25.331  0.00  0.00    +0.020 A 
ATOM      5  C   UNL     1      -1.136   3.899  25.542  0.00  0.00    +0.023 A 
ATOM      6  C   UNL     1      -0.833   3.382  24.976  0.00  0.00    +0.114 A 
ENDBRANCH   7   6
BRANCH  11  31
ATOM     31  N   UNL     1      -3.807   2.262  24.855  0.00  0.00    -0.187 NA
ATOM     32  C   UNL     1      -4.136   2.566  24.162  0.00  0.00    +0.339 C 
ATOM     33  O   UNL     1      -3.660   2.696  23.501  0.00  0.00    -0.249 OA
ATOM     34  N   UNL     1      -4.942   2.739  24.130  0.00  0.00    -0.189 NA
BRANCH  34  35
ATOM     35  C   UNL     1      -5.419   2.608  24.790  0.00  0.00    +0.097 C 
ATOM     36  C   UNL     1      -5.829   1.896  24.869  0.00  0.00    +0.022 C 
ATOM     37  C   UNL     1      -6.306   1.765  25.529  0.00  0.00    +0.002 C 
ATOM     38  C   UNL     1      -6.372   2.347  26.112  0.00  0.00    +0.000 C 
ATOM     39  C   UNL     1      -5.962   3.057  26.033  0.00  0.00    +0.002 C 
ATOM     40  C   UNL     1      -5.485   3.189  25.372  0.00  0.00    +0.022 C 
ENDBRANCH  34  35
ENDBRANCH  11  31
BRANCH  13  14
ATOM     14  C   UNL     1      -1.295   0.806  24.953  0.00  0.00    +0.260 C 
ATOM     15  O   UNL     1      -0.701   0.805  25.525  0.00  0.00    -0.272 OA
ATOM     16  N   UNL     1      -1.339   0.193  24.403  0.00  0.00    -0.196 NA
BRANCH  16  17
ATOM     17  C   UNL     1      -0.789  -0.420  24.424  0.00  0.00    +0.179 C 
BRANCH  17  28
ATOM     28  C   UNL     1      -0.088  -0.360  23.992  0.00  0.00    +0.281 C 
ATOM     29  N   UNL     1       0.629  -0.579  24.335  0.00  0.00    -0.086 NA
ATOM     30  O   UNL     1      -0.106  -0.079  23.216  0.00  0.00    -0.270 OA
ENDBRANCH  17  28
BRANCH  17  18
ATOM     18  C   UNL     1      -0.938  -1.094  24.876  0.00  0.00    +0.059 C 
BRANCH  18  19
ATOM     19  C   UNL     1      -1.402  -1.703  24.570  0.00  0.00    +0.001 A 
ATOM     20  C   UNL     1      -1.253  -2.123  23.874  0.00  0.00    +0.095 A 
ATOM     21  N   UNL     1      -1.855  -2.678  23.779  0.00  0.00    -0.244 NA
ATOM     22  C   UNL     1      -2.375  -2.603  24.414  0.00  0.00    +0.081 A 
ATOM     23  C   UNL     1      -2.095  -2.000  24.903  0.00  0.00    +0.015 A 
ATOM     24  C   UNL     1      -2.508  -1.800  25.588  0.00  0.00    +0.001 A 
ATOM     25  C   UNL     1      -3.201  -2.202  25.785  0.00  0.00    +0.000 A 
ATOM     26  C   UNL     1      -3.481  -2.804  25.296  0.00  0.00    +0.002 A 
ATOM     27  C   UNL     1      -3.068  -3.005  24.611  0.00  0.00    +0.019 A 
ENDBRANCH  18  19
ENDBRANCH  17  18
ENDBRANCH  16  17
ENDBRANCH  13  14
TORSDOF 8
ENDMDL
MODEL 4
REMARK VINA RESULT:      -9.3      1.175      6.138
REMARK  Name = 
REMARK  8 active torsions:
REMARK  status: ('A' for Active; 'I' for Inactive)
REMARK    1  A    between atoms: C_6  and  C_7
REMARK    2  A    between atoms: C_11  and  N_31
REMARK    3  A    between atoms: C_13  and  C_14
REMARK    4  A    between atoms: N_16  and  C_17
REMARK    5  A    between atoms: C_17  and  C_18
REMARK    6  A    between atoms: C_17  and  C_28
REMARK    7  A    between atoms: C_18  and  C_19
REMARK    8  A    between atoms: N_34  and  C_35
REMARK                            x       y       z     vdW  Elec       q    Type
REMARK                         _______ _______ _______ _____ _____    ______ ____
ROOT
ATOM      7  C   UNL     1      -0.871   2.590  25.026  0.00  0.00    +0.265 C 
ATOM      8  O   UNL     1      -0.169   2.161  25.069  0.00  0.00    -0.268 OA
ATOM      9  N   UNL     1      -1.594   2.196  24.983  0.00  0.00    -0.266 N 
ATOM     10  C   UNL     1      -2.338   2.550  24.938  0.00  0.00    +0.116 C 
ATOM     11  C   UNL     1      -2.904   1.950  24.905  0.00  0.00    +0.119 C 
ATOM     12  C   UNL     1      -2.509   1.225  24.929  0.00  0.00    +0.053 C 
ATOM     13  C   UNL     1      -1.700   1.377  24.977  0.00  0.00    +0.156 C 
ENDROOT
BRANCH   7   6
ATOM      1  C   UNL     1      -0.023   3.626  23.831  0.00  0.00    +0.131 C 
ATOM      2  N   UNL     1      -0.461   3.891  24.477  0.00  0.00    -0.320 N 
ATOM      3  C   UNL     1      -0.586   4.679  24.687  0.00  0.00    +0.076 A 
ATOM      4  C   UNL     1      -1.054   4.690  25.367  0.00  0.00    +0.020 A 
ATOM      5  C   UNL     1      -1.218   3.910  25.577  0.00  0.00    +0.023 A 
ATOM      6  C   UNL     1      -0.851   3.415  25.027  0.00  0.00    +0.114 A 
ENDBRANCH   7   6
BRANCH  11  31
ATOM     31  N   UNL     1      -3.721   2.056  24.856  0.00  0.00    -0.187 NA
ATOM     32  C   UNL     1      -4.072   2.225  24.129  0.00  0.00    +0.339 C 
ATOM     33  O   UNL     1      -3.606   2.287  23.450  0.00  0.00    -0.249 OA
ATOM     34  N   UNL     1      -4.889   2.331  24.080  0.00  0.00    -0.189 NA
BRANCH  34  35
ATOM     35  C   UNL     1      -5.354   2.269  24.758  0.00  0.00    +0.097 C 
ATOM     36  C   UNL     1      -5.454   2.923  25.251  0.00  0.00    +0.022 C 
ATOM     37  C   UNL     1      -5.920   2.861  25.930  0.00  0.00    +0.002 C 
ATOM     38  C   UNL     1      -6.285   2.144  26.114  0.00  0.00    +0.000 C 
ATOM     39  C   UNL     1      -6.185   1.491  25.621  0.00  0.00    +0.002 C 
ATOM     40  C   UNL     1      -5.719   1.553  24.943  0.00  0.00    +0.022 C 
ENDBRANCH  34  35
ENDBRANCH  11  31
BRANCH  13  14
ATOM     14  C   UNL     1      -1.102   0.810  25.014  0.00  0.00    +0.260 C 
ATOM     15  O   UNL     1      -0.609   0.773  25.674  0.00  0.00    -0.272 OA
ATOM     16  N   UNL     1      -0.996   0.281  24.390  0.00  0.00    -0.196 NA
BRANCH  16  17
ATOM     17  C   UNL     1      -0.398  -0.285  24.426  0.00  0.00    +0.179 C 
BRANCH  17  28
ATOM     28  C   UNL     1      -0.563  -1.041  24.714  0.00  0.00    +0.281 C 
ATOM     29  N   UNL     1      -1.197  -1.470  24.409  0.00  0.00    -0.086 NA
ATOM     30  O   UNL     1      -0.093  -1.366  25.310  0.00  0.00    -0.270 OA
ENDBRANCH  17  28
BRANCH  17  18
ATOM     18  C   UNL     1       0.365  -0.097  24.175  0.00  0.00    +0.059 C 
BRANCH  18  19
ATOM     19  C   UNL     1       0.574  -0.193  23.383  0.00  0.00    +0.001 A 
ATOM     20  C   UNL     1       0.075  -0.446  22.776  0.00  0.00    +0.095 A 
ATOM     21  N   UNL     1       0.512  -0.462  22.077  0.00  0.00    -0.244 NA
ATOM     22  C   UNL     1       1.280  -0.219  22.251  0.00  0.00    +0.081 A 
ATOM     23  C   UNL     1       1.319  -0.053  23.058  0.00  0.00    +0.015 A 
ATOM     24  C   UNL     1       2.028   0.204  23.392  0.00  0.00    +0.001 A 
ATOM     25  C   UNL     1       2.698   0.295  22.920  0.00  0.00    +0.000 A 
ATOM     26  C   UNL     1       2.659   0.129  22.113  0.00  0.00    +0.002 A 
ATOM     27  C   UNL     1       1.951  -0.128  21.778  0.00  0.00    +0.019 A 
ENDBRANCH  18  19
ENDBRANCH  17  18
ENDBRANCH  16  17
ENDBRANCH  13  14
TORSDOF 8
ENDMDL
MODEL 5
REMARK VINA RESULT:      -8.9      1.929      6.219
REMARK  Name = 
REMARK  8 active torsions:
REMARK  status: ('A' for Active; 'I' for Inactive)
REMARK    1  A    between atoms: C_6  and  C_7
REMARK    2  A    between atoms: C_11  and  N_31
REMARK    3  A    between atoms: C_13  and  C_14
REMARK    4  A    between atoms: N_16  and  C_17
REMARK    5  A    between atoms: C_17  and  C_18
REMARK    6  A    between atoms: C_17  and  C_28
REMARK    7  A    between atoms: C_18  and  C_19
REMARK    8  A    between atoms: N_34  and  C_35
REMARK                            x       y       z     vdW  Elec       q    Type
REMARK                         _______ _______ _______ _____ _____    ______ ____
ROOT
ATOM      7  C   UNL     1       0.340   1.626  24.459  0.00  0.00    +0.265 C 
ATOM      8  O   UNL     1       0.987   1.886  24.020  0.00  0.00    -0.268 OA
ATOM      9  N   UNL     1       0.011   0.884  24.310  0.00  0.00    -0.266 N 
ATOM     10  C   UNL     1      -0.634   0.552  24.703  0.00  0.00    +0.116 C 
ATOM     11  C   UNL     1      -0.775  -0.193  24.377  0.00  0.00    +0.119 C 
ATOM     12  C   UNL     1      -0.216  -0.321  23.783  0.00  0.00    +0.053 C 
ATOM     13  C   UNL     1       0.269   0.344  23.742  0.00  0.00    +0.156 C 
ENDROOT
BRANCH   7   6
ATOM      1  C   UNL     1      -0.519   3.181  24.201  0.00  0.00    +0.131 C 
ATOM      2  N   UNL     1      -0.374   2.822  24.929  0.00  0.00    -0.320 N 
ATOM      3  C   UNL     1      -0.599   3.116  25.667  0.00  0.00    +0.076 A 
ATOM      4  C   UNL     1      -0.343   2.582  26.242  0.00  0.00    +0.020 A 
ATOM      5  C   UNL     1       0.040   1.959  25.860  0.00  0.00    +0.023 A 
ATOM      6  C   UNL     1       0.020   2.107  25.048  0.00  0.00    +0.114 A 
ENDBRANCH   7   6
BRANCH  11  31
ATOM     31  N   UNL     1      -1.369  -0.719  24.605  0.00  0.00    -0.187 NA
ATOM     32  C   UNL     1      -1.191  -1.349  25.107  0.00  0.00    +0.339 C 
ATOM     33  O   UNL     1      -0.420  -1.455  25.380  0.00  0.00    -0.249 OA
ATOM     34  N   UNL     1      -1.786  -1.874  25.335  0.00  0.00    -0.189 NA
BRANCH  34  35
ATOM     35  C   UNL     1      -2.557  -1.768  25.062  0.00  0.00    +0.097 C 
ATOM     36  C   UNL     1      -2.820  -2.183  24.400  0.00  0.00    +0.022 C 
ATOM     37  C   UNL     1      -3.592  -2.078  24.126  0.00  0.00    +0.002 C 
ATOM     38  C   UNL     1      -4.099  -1.556  24.516  0.00  0.00    +0.000 C 
ATOM     39  C   UNL     1      -3.836  -1.142  25.178  0.00  0.00    +0.002 C 
ATOM     40  C   UNL     1      -3.064  -1.248  25.452  0.00  0.00    +0.022 C 
ENDBRANCH  34  35
ENDBRANCH  11  31
BRANCH  13  14
ATOM     14  C   UNL     1       0.902   0.452  23.223  0.00  0.00    +0.260 C 
ATOM     15  O   UNL     1       0.992   1.170  22.826  0.00  0.00    -0.272 OA
ATOM     16  N   UNL     1       1.443  -0.158  23.101  0.00  0.00    -0.196 NA
BRANCH  16  17
ATOM     17  C   UNL     1       2.075  -0.050  22.582  0.00  0.00    +0.179 C 
BRANCH  17  28
ATOM     28  C   UNL     1       1.990  -0.242  21.784  0.00  0.00    +0.281 C 
ATOM     29  N   UNL     1       1.439  -0.809  21.551  0.00  0.00    -0.086 NA
ATOM     30  O   UNL     1       2.459   0.135  21.218  0.00  0.00    -0.270 OA
ENDBRANCH  17  28
BRANCH  17  18
ATOM     18  C   UNL     1       2.792   0.249  22.861  0.00  0.00    +0.059 C 
BRANCH  18  19
ATOM     19  C   UNL     1       3.354  -0.261  23.184  0.00  0.00    +0.001 A 
ATOM     20  C   UNL     1       3.237  -1.056  23.372  0.00  0.00    +0.095 A 
ATOM     21  N   UNL     1       3.943  -1.351  23.679  0.00  0.00    -0.244 NA
ATOM     22  C   UNL     1       4.496  -0.740  23.681  0.00  0.00    +0.081 A 
ATOM     23  C   UNL     1       4.132  -0.066  23.375  0.00  0.00    +0.015 A 
ATOM     24  C   UNL     1       4.558   0.638  23.309  0.00  0.00    +0.001 A 
ATOM     25  C   UNL     1       5.345   0.669  23.550  0.00  0.00    +0.000 A 
ATOM     26  C   UNL     1       5.709  -0.005  23.857  0.00  0.00    +0.002 A 
ATOM     27  C   UNL     1       5.285  -0.710  23.922  0.00  0.00    +0.019 A 
ENDBRANCH  18  19
ENDBRANCH  17  18
ENDBRANCH  16  17
ENDBRANCH  13  14
TORSDOF 8
ENDMDL
MODEL 6
REMARK VINA RESULT:      -8.3      1.583      3.694
REMARK  Name = 
REMARK  8 active torsions:
REMARK  status: ('A' for Active; 'I' for Inactive)
REMARK    1  A    between atoms: C_6  and  C_7
REMARK    2  A    between atoms: C_11  and  N_31
REMARK    3  A    between atoms: C_13  and  C_14
REMARK    4  A    between atoms: N_16  and  C_17
REMARK    5  A    between atoms: C_17  and  C_18
REMARK    6  A    between atoms: C_17  and  C_28
REMARK    7  A    between atoms: C_18  and  C_19
REMARK    8  A    between atoms: N_34  and  C_35
REMARK                            x       y       z     vdW  Elec       q    Type
REMARK                         _______ _______ _______ _____ _____    ______ ____
ROOT
ATOM      7  C   UNL     1      -1.773   2.784  24.318  0.00  0.00    +0.265 C 
ATOM      8  O   UNL     1      -2.587   2.867  24.418  0.00  0.00    -0.268 OA
ATOM      9  N   UNL     1      -1.457   2.055  24.098  0.00  0.00    -0.266 N 
ATOM     10  C   UNL     1      -0.657   1.889  23.978  0.00  0.00    +0.116 C 
ATOM     11  C   UNL     1      -0.591   1.094  23.764  0.00  0.00    +0.119 C 
ATOM     12  C   UNL     1      -1.350   0.770  23.751  0.00  0.00    +0.053 C 
ATOM     13  C   UNL     1      -1.884   1.363  23.957  0.00  0.00    +0.156 C 
ENDROOT
BRANCH   7   6
ATOM      1  C   UNL     1      -1.767   3.856  25.758  0.00  0.00    +0.131 C 
ATOM      2  N   UNL     1      -1.272   3.922  25.102  0.00  0.00    -0.320 N 
ATOM      3  C   UNL     1      -0.686   4.494  24.993  0.00  0.00    +0.076 A 
ATOM      4  C   UNL     1      -0.327   4.354  24.263  0.00  0.00    +0.020 A 
ATOM      5  C   UNL     1      -0.690   3.697  23.922  0.00  0.00    +0.023 A 
ATOM      6  C   UNL     1      -1.274   3.430  24.440  0.00  0.00    +0.114 A 
ENDBRANCH   7   6
BRANCH  11  31
ATOM     31  N   UNL     1       0.111   0.695  23.593  0.00  0.00    -0.187 NA
ATOM     32  C   UNL     1       0.278  -0.022  23.966  0.00  0.00    +0.339 C 
ATOM     33  O   UNL     1      -0.255  -0.339  24.509  0.00  0.00    -0.249 OA
ATOM     34  N   UNL     1       0.980  -0.421  23.795  0.00  0.00    -0.189 NA
BRANCH  34  35
ATOM     35  C   UNL     1       1.514  -0.103  23.251  0.00  0.00    +0.097 C 
ATOM     36  C   UNL     1       1.490  -0.342  22.462  0.00  0.00    +0.022 C 
ATOM     37  C   UNL     1       2.023  -0.025  21.918  0.00  0.00    +0.002 C 
ATOM     38  C   UNL     1       2.581   0.532  22.165  0.00  0.00    +0.000 C 
ATOM     39  C   UNL     1       2.604   0.771  22.953  0.00  0.00    +0.002 C 
ATOM     40  C   UNL     1       2.070   0.453  23.498  0.00  0.00    +0.022 C 
ENDBRANCH  34  35
ENDBRANCH  11  31
BRANCH  13  14
ATOM     14  C   UNL     1      -2.704   1.279  24.013  0.00  0.00    +0.260 C 
ATOM     15  O   UNL     1      -3.193   1.627  23.447  0.00  0.00    -0.272 OA
ATOM     16  N   UNL     1      -3.033   0.848  24.635  0.00  0.00    -0.196 NA
BRANCH  16  17
ATOM     17  C   UNL     1      -3.851   0.765  24.691  0.00  0.00    +0.179 C 
BRANCH  17  28
ATOM     28  C   UNL     1      -4.311   1.393  24.965  0.00  0.00    +0.281 C 
ATOM     29  N   UNL     1      -4.901   1.713  24.486  0.00  0.00    -0.086 NA
ATOM     30  O   UNL     1      -4.180   1.701  25.720  0.00  0.00    -0.270 OA
ENDBRANCH  17  28
BRANCH  17  18
ATOM     18  C   UNL     1      -4.210   0.055  24.472  0.00  0.00    +0.059 C 
BRANCH  18  19
ATOM     19  C   UNL     1      -4.000  -0.647  24.851  0.00  0.00    +0.001 A 
ATOM     20  C   UNL     1      -3.753  -0.721  25.635  0.00  0.00    +0.095 A 
ATOM     21  N   UNL     1      -3.600  -1.518  25.780  0.00  0.00    -0.244 NA
ATOM     22  C   UNL     1      -3.753  -1.937  25.087  0.00  0.00    +0.081 A 
ATOM     23  C   UNL     1      -4.000  -1.399  24.512  0.00  0.00    +0.015 A 
ATOM     24  C   UNL     1      -4.192  -1.664  23.755  0.00  0.00    +0.001 A 
ATOM     25  C   UNL     1      -4.138  -2.466  23.572  0.00  0.00    +0.000 A 
ATOM     26  C   UNL     1      -3.891  -3.004  24.147  0.00  0.00    +0.002 A 
ATOM     27  C   UNL     1      -3.698  -2.740  24.904  0.00  0.00    +0.019 A 
ENDBRANCH  18  19
ENDBRANCH  17  18
ENDBRANCH  16  17
ENDBRANCH  13  14
TORSDOF 8
ENDMDL
MODEL 7
REMARK VINA RESULT:      -8.3      1.169      3.031
REMARK  Name = 
REMARK  8 active torsions:
REMARK  status: ('A' for Active; 'I' for Inactive)
REMARK    1  A    between atoms: C_6  and  C_7
REMARK    2  A    between atoms: C_11  and  N_31
REMARK    3  A    between atoms: C_13  and  C_14
REMARK    4  A    between atoms: N_16  and  C_17
REMARK    5  A    between atoms: C_17  and  C_18
REMARK    6  A    between atoms: C_17  and  C_28
REMARK    7  A    between atoms: C_18  and  C_19
REMARK    8  A    between atoms: N_34  and  C_35
REMARK                            x       y       z     vdW  Elec       q    Type
REMARK                         _______ _______ _______ _____ _____    ______ ____
ROOT
ATOM      7  C   UNL     1      -0.727   1.231  25.115  0.00  0.00    +0.265 C 
ATOM      8  O   UNL     1      -1.379   0.937  25.524  0.00  0.00    -0.268 OA
ATOM      9  N   UNL     1      -0.243   0.719  24.686  0.00  0.00    -0.266 N 
ATOM     10  C   UNL     1       0.425   0.933  24.251  0.00  0.00    +0.116 C 
ATOM     11  C   UNL     1       0.738   0.248  23.913  0.00  0.00    +0.119 C 
ATOM     12  C   UNL     1       0.263  -0.388  24.139  0.00  0.00    +0.053 C 
ATOM     13  C   UNL     1      -0.343  -0.097  24.616  0.00  0.00    +0.156 C 
ENDROOT
BRANCH   7   6
ATOM      1  C   UNL     1      -1.695   2.531  24.343  0.00  0.00    +0.131 C 
ATOM      2  N   UNL     1      -1.003   2.636  24.779  0.00  0.00    -0.320 N 
ATOM      3  C   UNL     1      -0.635   3.357  24.936  0.00  0.00    +0.076 A 
ATOM      4  C   UNL     1       0.039   3.206  25.389  0.00  0.00    +0.020 A 
ATOM      5  C   UNL     1       0.086   2.392  25.511  0.00  0.00    +0.023 A 
ATOM      6  C   UNL     1      -0.558   2.039  25.134  0.00  0.00    +0.114 A 
ENDBRANCH   7   6
BRANCH  11  31
ATOM     31  N   UNL     1       1.408   0.207  23.433  0.00  0.00    -0.187 NA
ATOM     32  C   UNL     1       1.332   0.017  22.634  0.00  0.00    +0.339 C 
ATOM     33  O   UNL     1       0.586  -0.133  22.315  0.00  0.00    -0.249 OA
ATOM     34  N   UNL     1       2.002  -0.024  22.155  0.00  0.00    -0.189 NA
BRANCH  34  35
ATOM     35  C   UNL     1       2.748   0.126  22.474  0.00  0.00    +0.097 C 
ATOM     36  C   UNL     1       3.065   0.887  22.441  0.00  0.00    +0.022 C 
ATOM     37  C   UNL     1       3.811   1.037  22.760  0.00  0.00    +0.002 C 
ATOM     38  C   UNL     1       4.239   0.425  23.113  0.00  0.00    +0.000 C 
ATOM     39  C   UNL     1       3.922  -0.334  23.146  0.00  0.00    +0.002 C 
ATOM     40  C   UNL     1       3.176  -0.485  22.826  0.00  0.00    +0.022 C 
ENDBRANCH  34  35
ENDBRANCH  11  31
BRANCH  13  14
ATOM     14  C   UNL     1      -0.944  -0.544  24.964  0.00  0.00    +0.260 C 
ATOM     15  O   UNL     1      -0.965  -0.640  25.783  0.00  0.00    -0.272 OA
ATOM     16  N   UNL     1      -1.523  -0.894  24.492  0.00  0.00    -0.196 NA
BRANCH  16  17
ATOM     17  C   UNL     1      -2.123  -1.341  24.839  0.00  0.00    +0.179 C 
BRANCH  17  28
ATOM     28  C   UNL     1      -2.056  -2.163  24.876  0.00  0.00    +0.281 C 
ATOM     29  N   UNL     1      -1.811  -2.587  24.214  0.00  0.00    -0.086 NA
ATOM     30  O   UNL     1      -2.235  -2.559  25.578  0.00  0.00    -0.270 OA
ENDBRANCH  17  28
BRANCH  17  18
ATOM     18  C   UNL     1      -2.789  -0.966  25.149  0.00  0.00    +0.059 C 
BRANCH  18  19
ATOM     19  C   UNL     1      -3.430  -0.792  24.660  0.00  0.00    +0.001 A 
ATOM     20  C   UNL     1      -3.585  -1.132  23.924  0.00  0.00    +0.095 A 
ATOM     21  N   UNL     1      -4.279  -0.798  23.630  0.00  0.00    -0.244 NA
ATOM     22  C   UNL     1      -4.554  -0.253  24.184  0.00  0.00    +0.081 A 
ATOM     23  C   UNL     1      -4.029  -0.249  24.821  0.00  0.00    +0.015 A 
ATOM     24  C   UNL     1      -4.166   0.248  25.465  0.00  0.00    +0.001 A 
ATOM     25  C   UNL     1      -4.826   0.742  25.472  0.00  0.00    +0.000 A 
ATOM     26  C   UNL     1      -5.351   0.739  24.835  0.00  0.00    +0.002 A 
ATOM     27  C   UNL     1      -5.215   0.242  24.191  0.00  0.00    +0.019 A 
ENDBRANCH  18  19
ENDBRANCH  17  18
ENDBRANCH  16  17
ENDBRANCH  13  14
TORSDOF 8
ENDMDL
MODEL 8
REMARK VINA RESULT:      -8.1      2.125      5.169
REMARK  Name = 
REMARK  8 active torsions:
REMARK  status: ('A' for Active; 'I' for Inactive)
REMARK    1  A    between atoms: C_6  and  C_7
REMARK    2  A    between atoms: C_11  and  N_31
REMARK    3  A    between atoms: C_13  and  C_14
REMARK    4  A    between atoms: N_16  and  C_17
REMARK    5  A    between atoms: C_17  and  C_18
REMARK    6  A    between atoms: C_17  and  C_28
REMARK    7  A    between atoms: C_18  and  C_19
REMARK    8  A    between atoms: N_34  and  C_35
REMARK                            x       y       z     vdW  Elec       q    Type
REMARK                         _______ _______ _______ _____ _____    ______ ____
ROOT
ATOM      7  C   UNL     1      -4.702   2.208  24.905  0.00  0.00    +0.265 C 
ATOM      8  O   UNL     1      -4.425   2.981  24.830  0.00  0.00    -0.268 OA
ATOM      9  N   UNL     1      -4.172   1.577  24.896  0.00  0.00    -0.266 N 
ATOM     10  C   UNL     1      -4.367   0.778  24.964  0.00  0.00    +0.116 C 
ATOM     11  C   UNL     1      -3.668   0.341  24.928  0.00  0.00    +0.119 C 
ATOM     12  C   UNL     1      -3.041   0.870  24.836  0.00  0.00    +0.053 C 
ATOM     13  C   UNL     1      -3.352   1.633  24.817  0.00  0.00    +0.156 C 
ENDROOT
BRANCH   7   6
ATOM      1  C   UNL     1      -5.739   2.777  26.255  0.00  0.00    +0.131 C 
ATOM      2  N   UNL     1      -5.987   2.328  25.609  0.00  0.00    -0.320 N 
ATOM      3  C   UNL     1      -6.756   2.061  25.471  0.00  0.00    +0.076 A 
ATOM      4  C   UNL     1      -6.754   1.634  24.765  0.00  0.00    +0.020 A 
ATOM      5  C   UNL     1      -5.985   1.638  24.467  0.00  0.00    +0.023 A 
ATOM      6  C   UNL     1      -5.511   2.066  24.989  0.00  0.00    +0.114 A 
ENDBRANCH   7   6
BRANCH  11  31
ATOM     31  N   UNL     1      -3.607  -0.481  24.974  0.00  0.00    -0.187 NA
ATOM     32  C   UNL     1      -3.661  -0.857  25.706  0.00  0.00    +0.339 C 
ATOM     33  O   UNL     1      -3.775  -0.413  26.392  0.00  0.00    -0.249 OA
ATOM     34  N   UNL     1      -3.600  -1.679  25.752  0.00  0.00    -0.189 NA
BRANCH  34  35
ATOM     35  C   UNL     1      -3.485  -2.124  25.067  0.00  0.00    +0.097 C 
ATOM     36  C   UNL     1      -2.727  -2.375  24.861  0.00  0.00    +0.022 C 
ATOM     37  C   UNL     1      -2.612  -2.820  24.175  0.00  0.00    +0.002 C 
ATOM     38  C   UNL     1      -3.257  -3.013  23.696  0.00  0.00    +0.000 C 
ATOM     39  C   UNL     1      -4.014  -2.761  23.903  0.00  0.00    +0.002 C 
ATOM     40  C   UNL     1      -4.129  -2.316  24.589  0.00  0.00    +0.022 C 
ENDBRANCH  34  35
ENDBRANCH  11  31
BRANCH  13  14
ATOM     14  C   UNL     1      -2.920   2.331  24.733  0.00  0.00    +0.260 C 
ATOM     15  O   UNL     1      -3.080   2.842  24.105  0.00  0.00    -0.272 OA
ATOM     16  N   UNL     1      -2.327   2.517  25.276  0.00  0.00    -0.196 NA
BRANCH  16  17
ATOM     17  C   UNL     1      -1.896   3.215  25.191  0.00  0.00    +0.179 C 
BRANCH  17  28
ATOM     28  C   UNL     1      -2.140   3.900  25.581  0.00  0.00    +0.281 C 
ATOM     29  N   UNL     1      -2.157   4.620  25.180  0.00  0.00    -0.086 NA
ATOM     30  O   UNL     1      -2.368   3.864  26.374  0.00  0.00    -0.270 OA
ENDBRANCH  17  28
BRANCH  17  18
ATOM     18  C   UNL     1      -1.220   3.228  24.718  0.00  0.00    +0.059 C 
BRANCH  18  19
ATOM     19  C   UNL     1      -0.537   2.835  24.962  0.00  0.00    +0.001 A 
ATOM     20  C   UNL     1      -0.215   2.848  25.722  0.00  0.00    +0.095 A 
ATOM     21  N   UNL     1       0.464   2.381  25.719  0.00  0.00    -0.244 NA
ATOM     22  C   UNL     1       0.563   2.079  24.958  0.00  0.00    +0.081 A 
ATOM     23  C   UNL     1      -0.056   2.359  24.491  0.00  0.00    +0.015 A 
ATOM     24  C   UNL     1      -0.102   2.145  23.695  0.00  0.00    +0.001 A 
ATOM     25  C   UNL     1       0.471   1.651  23.368  0.00  0.00    +0.000 A 
ATOM     26  C   UNL     1       1.090   1.371  23.835  0.00  0.00    +0.002 A 
ATOM     27  C   UNL     1       1.137   1.584  24.631  0.00  0.00    +0.019 A 
ENDBRANCH  18  19
ENDBRANCH  17  18
ENDBRANCH  16  17
ENDBRANCH  13  14
TORSDOF 8
ENDMDL
MODEL 9
REMARK VINA RESULT:      -8.1      1.674      5.693
REMARK  Name = 
REMARK  8 active torsions:
REMARK  status: ('A' for Active; 'I' for Inactive)
REMARK    1  A    between atoms: C_6  and  C_7
REMARK    2  A    between atoms: C_11  and  N_31
REMARK    3  A    between atoms: C_13  and  C_14
REMARK    4  A    between atoms: N_16  and  C_17
REMARK    5  A    between atoms: C_17  and  C_18
REMARK    6  A    between atoms: C_17  and  C_28
REMARK    7  A    between atoms: C_18  and  C_19
REMARK    8  A    between atoms: N_34  and  C_35
REMARK                            x       y       z     vdW  Elec       q    Type
REMARK                         _______ _______ _______ _____ _____    ______ ____
ROOT
ATOM      7  C   UNL     1      -1.053  -0.594  24.248  0.00  0.00    +0.265 C 
ATOM      8  O   UNL     1      -0.630  -1.166  23.832  0.00  0.00    -0.268 OA
ATOM      9  N   UNL     1      -0.734   0.158  24.358  0.00  0.00    -0.266 N 
ATOM     10  C   UNL     1      -1.091   0.783  24.761  0.00  0.00    +0.116 C 
ATOM     11  C   UNL     1      -0.578   1.429  24.736  0.00  0.00    +0.119 C 
ATOM     12  C   UNL     1       0.097   1.202  24.319  0.00  0.00    +0.053 C 
ATOM     13  C   UNL     1       0.001   0.417  24.085  0.00  0.00    +0.156 C 
ENDROOT
BRANCH   7   6
ATOM      1  C   UNL     1      -1.434  -1.939  25.374  0.00  0.00    +0.131 C 
ATOM      2  N   UNL     1      -1.972  -1.393  25.072  0.00  0.00    -0.320 N 
ATOM      3  C   UNL     1      -2.781  -1.369  25.236  0.00  0.00    +0.076 A 
ATOM      4  C   UNL     1      -3.106  -0.735  24.818  0.00  0.00    +0.020 A 
ATOM      5  C   UNL     1      -2.499  -0.368  24.398  0.00  0.00    +0.023 A 
ATOM      6  C   UNL     1      -1.798  -0.774  24.555  0.00  0.00    +0.114 A 
ENDBRANCH   7   6
BRANCH  11  31
ATOM     31  N   UNL     1      -0.715   2.171  25.071  0.00  0.00    -0.187 NA
ATOM     32  C   UNL     1      -0.410   2.349  25.817  0.00  0.00    +0.339 C 
ATOM     33  O   UNL     1       0.032   1.787  26.228  0.00  0.00    -0.249 OA
ATOM     34  N   UNL     1      -0.548   3.091  26.151  0.00  0.00    -0.189 NA
BRANCH  34  35
ATOM     35  C   UNL     1      -0.990   3.653  25.740  0.00  0.00    +0.097 C 
ATOM     36  C   UNL     1      -0.611   4.194  25.245  0.00  0.00    +0.022 C 
ATOM     37  C   UNL     1      -1.053   4.757  24.834  0.00  0.00    +0.002 C 
ATOM     38  C   UNL     1      -1.874   4.778  24.918  0.00  0.00    +0.000 C 
ATOM     39  C   UNL     1      -2.251   4.238  25.413  0.00  0.00    +0.002 C 
ATOM     40  C   UNL     1      -1.810   3.675  25.825  0.00  0.00    +0.022 C 
ENDBRANCH  34  35
ENDBRANCH  11  31
BRANCH  13  14
ATOM     14  C   UNL     1       0.544  -0.031  23.654  0.00  0.00    +0.260 C 
ATOM     15  O   UNL     1       0.572  -0.849  23.750  0.00  0.00    -0.272 OA
ATOM     16  N   UNL     1       1.058   0.341  23.126  0.00  0.00    -0.196 NA
BRANCH  16  17
ATOM     17  C   UNL     1       1.600  -0.107  22.696  0.00  0.00    +0.179 C 
BRANCH  17  28
ATOM     28  C   UNL     1       1.426  -0.331  21.921  0.00  0.00    +0.281 C 
ATOM     29  N   UNL     1       1.636  -1.081  21.651  0.00  0.00    -0.086 NA
ATOM     30  O   UNL     1       1.040   0.197  21.417  0.00  0.00    -0.270 OA
ENDBRANCH  17  28
BRANCH  17  18
ATOM     18  C   UNL     1       2.317  -0.331  23.039  0.00  0.00    +0.059 C 
BRANCH  18  19
ATOM     19  C   UNL     1       2.972   0.167  22.988  0.00  0.00    +0.001 A 
ATOM     20  C   UNL     1       2.976   0.935  22.686  0.00  0.00    +0.095 A 
ATOM     21  N   UNL     1       3.745   1.227  22.741  0.00  0.00    -0.244 NA
ATOM     22  C   UNL     1       4.217   0.640  23.077  0.00  0.00    +0.081 A 
ATOM     23  C   UNL     1       3.739  -0.015  23.229  0.00  0.00    +0.015 A 
ATOM     24  C   UNL     1       4.065  -0.692  23.569  0.00  0.00    +0.001 A 
ATOM     25  C   UNL     1       4.868  -0.715  23.755  0.00  0.00    +0.000 A 
ATOM     26  C   UNL     1       5.346  -0.060  23.603  0.00  0.00    +0.002 A 
ATOM     27  C   UNL     1       5.021   0.618  23.263  0.00  0.00    +0.019 A 
ENDBRANCH  18  19
ENDBRANCH  17  18
ENDBRANCH  16  17
ENDBRANCH  13  14
TORSDOF 8
ENDMDL
MODEL 10
REMARK VINA RESULT:      -7.9      1.852      2.919
REMARK  Name = 
REMARK  8 active torsions:
REMARK  status: ('A' for Active; 'I' for Inactive)
REMARK    1  A    between atoms: C_6  and  C_7
REMARK    2  A    between atoms: C_11  and  N_31
REMARK    3  A    between atoms: C_13  and  C_14
REMARK    4  A    between atoms: N_16  and  C_17
REMARK    5  A    between atoms: C_17  and  C_18
REMARK    6  A    between atoms: C_17  and  C_28
REMARK    7  A    between atoms: C_18  and  C_19
REMARK    8  A    between atoms: N_34  and  C_35
REMARK                            x       y       z     vdW  Elec       q    Type
REMARK                         _______ _______ _______ _____ _____    ______ ____
ROOT
ATOM      7  C   UNL     1      -3.754  -0.982  24.835  0.00  0.00    +0.265 C 
ATOM      8  O   UNL     1      -4.448  -0.610  25.079  0.00  0.00    -0.268 OA
ATOM      9  N   UNL     1      -3.062  -0.543  24.739  0.00  0.00    -0.266 N 
ATOM     10  C   UNL     1      -2.330  -0.838  24.499  0.00  0.00    +0.116 C 
ATOM     11  C   UNL     1      -1.796  -0.209  24.478  0.00  0.00    +0.119 C 
ATOM     12  C   UNL     1      -2.199   0.475  24.705  0.00  0.00    +0.053 C 
ATOM     13  C   UNL     1      -2.981   0.268  24.866  0.00  0.00    +0.156 C 
ENDROOT
BRANCH   7   6
ATOM      1  C   UNL     1      -4.555  -1.805  23.455  0.00  0.00    +0.131 C 
ATOM      2  N   UNL     1      -4.119  -2.171  24.052  0.00  0.00    -0.320 N 
ATOM      3  C   UNL     1      -3.976  -2.981  24.119  0.00  0.00    +0.076 A 
ATOM      4  C   UNL     1      -3.518  -3.103  24.796  0.00  0.00    +0.020 A 
ATOM      5  C   UNL     1      -3.380  -2.370  25.146  0.00  0.00    +0.023 A 
ATOM      6  C   UNL     1      -3.751  -1.794  24.686  0.00  0.00    +0.114 A 
ENDBRANCH   7   6
BRANCH  11  31
ATOM     31  N   UNL     1      -0.999  -0.256  24.267  0.00  0.00    -0.187 NA
ATOM     32  C   UNL     1      -0.452  -0.574  24.795  0.00  0.00    +0.339 C 
ATOM     33  O   UNL     1      -0.699  -0.846  25.533  0.00  0.00    -0.249 OA
ATOM     34  N   UNL     1       0.345  -0.621  24.584  0.00  0.00    -0.189 NA
BRANCH  34  35
ATOM     35  C   UNL     1       0.593  -0.349  23.846  0.00  0.00    +0.097 C 
ATOM     36  C   UNL     1       0.860   0.427  23.761  0.00  0.00    +0.022 C 
ATOM     37  C   UNL     1       1.109   0.700  23.023  0.00  0.00    +0.002 C 
ATOM     38  C   UNL     1       1.089   0.195  22.370  0.00  0.00    +0.000 C 
ATOM     39  C   UNL     1       0.822  -0.580  22.455  0.00  0.00    +0.002 C 
ATOM     40  C   UNL     1       0.573  -0.853  23.194  0.00  0.00    +0.022 C 
ENDBRANCH  34  35
ENDBRANCH  11  31
BRANCH  13  14
ATOM     14  C   UNL     1      -3.578   0.783  25.111  0.00  0.00    +0.260 C 
ATOM     15  O   UNL     1      -4.003   0.623  25.800  0.00  0.00    -0.272 OA
ATOM     16  N   UNL     1      -3.749   1.457  24.668  0.00  0.00    -0.196 NA
BRANCH  16  17
ATOM     17  C   UNL     1      -4.345   1.971  24.913  0.00  0.00    +0.179 C 
BRANCH  17  28
ATOM     28  C   UNL     1      -5.133   1.806  24.728  0.00  0.00    +0.281 C 
ATOM     29  N   UNL     1      -5.705   1.808  25.321  0.00  0.00    -0.086 NA
ATOM     30  O   UNL     1      -5.346   1.640  23.948  0.00  0.00    -0.270 OA
ENDBRANCH  17  28
BRANCH  17  18
ATOM     18  C   UNL     1      -4.155   2.649  25.343  0.00  0.00    +0.059 C 
BRANCH  18  19
ATOM     19  C   UNL     1      -3.780   3.282  24.971  0.00  0.00    +0.001 A 
ATOM     20  C   UNL     1      -3.934   3.558  24.208  0.00  0.00    +0.095 A 
ATOM     21  N   UNL     1      -3.433   4.196  24.062  0.00  0.00    -0.244 NA
ATOM     22  C   UNL     1      -2.970   4.316  24.733  0.00  0.00    +0.081 A 
ATOM     23  C   UNL     1      -3.184   3.751  25.294  0.00  0.00    +0.015 A 
ATOM     24  C   UNL     1      -2.807   3.736  26.029  0.00  0.00    +0.001 A 
ATOM     25  C   UNL     1      -2.218   4.286  26.201  0.00  0.00    +0.000 A 
ATOM     26  C   UNL     1      -2.004   4.851  25.640  0.00  0.00    +0.002 A 
ATOM     27  C   UNL     1      -2.379   4.867  24.905  0.00  0.00    +0.019 A 
ENDBRANCH  18  19
ENDBRANCH  17  18
ENDBRANCH  16  17
ENDBRANCH  13  14
TORSDOF 8
ENDMDL
