MODEL 1
REMARK VINA RESULT:     -15.0      0.000      0.000
REMARK  Name = 
REMARK  6 active torsions:
REMARK  status: ('A' for Active; 'I' for Inactive)
REMARK    1  A    between atoms: C_2  and  C_3
REMARK    2  A    between atoms: C_11  and  C_12
REMARK    3  A    between atoms: C_12  and  C_13
REMARK    4  A    between atoms: N_15  and  C_16
REMARK    5  A    between atoms: C_16  and  C_17
REMARK    6  A    between atoms: C_26  and  C_28
REMARK                            x       y       z     vdW  Elec       q    Type
REMARK                         _______ _______ _______ _____ _____    ______ ____
ROOT
ATOM      1  C   UNL     1      -2.430  -2.705  24.586  0.00  0.00    +0.005 C 
ATOM      2  C   UNL     1      -2.739  -1.940  24.536  0.00  0.00    +0.059 C 
ATOM      5  C   UNL     1      -3.421  -2.380  24.390  0.00  0.00    +0.154 C 
ATOM      6  O   UNL     1      -3.388  -3.204  24.383  0.00  0.00    -0.223 OA
ATOM      7  C   UNL     1      -4.137  -1.995  24.251  0.00  0.00    +0.033 C 
ATOM      8  C   UNL     1      -4.170  -1.171  24.258  0.00  0.00    +0.003 C 
ATOM      9  C   UNL     1      -3.488  -0.732  24.404  0.00  0.00    +0.006 C 
ATOM     10  C   UNL     1      -4.204  -0.346  24.266  0.00  0.00    +0.000 C 
ATOM     11  C   UNL     1      -3.521   0.093  24.411  0.00  0.00    +0.050 C 
ATOM     19  C   UNL     1      -2.839   0.532  24.557  0.00  0.00    +0.063 A 
ATOM     20  C   UNL     1      -2.122   0.147  24.696  0.00  0.00    +0.023 A 
ATOM     21  C   UNL     1      -2.089  -0.677  24.689  0.00  0.00    +0.034 C 
ATOM     22  C   UNL     1      -2.772  -1.117  24.543  0.00  0.00    +0.010 C 
ATOM     23  S   UNL     1      -1.544   0.722  24.823  0.00  0.00    -0.054 S 
ATOM     24  C   UNL     1      -1.904   1.463  24.763  0.00  0.00    +0.185 A 
ATOM     25  N   UNL     1      -1.529   2.192  24.851  0.00  0.00    -0.154 NA
ATOM     26  C   UNL     1      -1.962   2.890  24.775  0.00  0.00    +0.247 C 
ATOM     27  O   UNL     1      -2.770   2.859  24.610  0.00  0.00    -0.273 OA
ATOM     34  N   UNL     1      -2.703   1.345  24.599  0.00  0.00    -0.227 NA
ENDROOT
BRANCH  26  28
ATOM     28  C   UNL     1      -1.587   3.619  24.863  0.00  0.00    +0.079 C 
ATOM     29  C   UNL     1      -1.987   4.249  25.217  0.00  0.00    +0.009 C 
ATOM     30  C   UNL     1      -1.612   4.978  25.306  0.00  0.00    +0.000 C 
ATOM     31  C   UNL     1      -0.837   5.078  25.041  0.00  0.00    +0.000 C 
ATOM     32  C   UNL     1      -0.437   4.450  24.688  0.00  0.00    +0.000 C 
ATOM     33  C   UNL     1      -0.812   3.720  24.599  0.00  0.00    +0.009 C 
ENDBRANCH  26  28
BRANCH   2   3
ATOM      3  C   UNL     1      -1.948  -1.766  24.700  0.00  0.00    +0.184 C 
ATOM      4  O   UNL     1      -1.405  -2.378  24.802  0.00  0.00    -0.220 OA
ENDBRANCH   2   3
BRANCH  11  12
ATOM     12  C   UNL     1      -4.237   0.477  24.273  0.00  0.00    +0.093 C 
BRANCH  12  13
ATOM     13  C   UNL     1      -4.692   0.746  24.907  0.00  0.00    +0.243 C 
ATOM     14  O   UNL     1      -4.685   0.335  25.622  0.00  0.00    -0.273 OA
ATOM     15  N   UNL     1      -5.154   1.425  24.826  0.00  0.00    -0.191 NA
BRANCH  15  16
ATOM     16  C   UNL     1      -5.608   1.693  25.460  0.00  0.00    +0.191 C 
BRANCH  16  17
ATOM     17  C   UNL     1      -5.775   2.497  25.537  0.00  0.00    -0.054 C 
ATOM     18  C   UNL     1      -5.942   3.302  25.614  0.00  0.00    -0.012 C 
ENDBRANCH  16  17
ENDBRANCH  15  16
ENDBRANCH  12  13
ENDBRANCH  11  12
TORSDOF 6
ENDMDL
MODEL 2
REMARK VINA RESULT:     -14.2      1.197      4.901
REMARK  Name = 
REMARK  6 active torsions:
REMARK  status: ('A' for Active; 'I' for Inactive)
REMARK    1  A    between atoms: C_2  and  C_3
REMARK    2  A    between atoms: C_11  and  C_12
REMARK    3  A    between atoms: C_12  and  C_13
REMARK    4  A    between atoms: N_15  and  C_16
REMARK    5  A    between atoms: C_16  and  C_17
REMARK    6  A    between atoms: C_26  and  C_28
REMARK                            x       y       z     vdW  Elec       q    Type
REMARK                         _______ _______ _______ _____ _____    ______ ____
ROOT
ATOM      1  C   UNL     1      -0.275   4.427  24.524  0.00  0.00    +0.005 C 
ATOM      2  C   UNL     1      -0.943   3.989  24.734  0.00  0.00    +0.059 C 
ATOM      5  C   UNL     1      -1.156   4.727  25.032  0.00  0.00    +0.154 C 
ATOM      6  O   UNL     1      -0.644   5.369  24.952  0.00  0.00    -0.223 OA
ATOM      7  C   UNL     1      -1.883   4.823  25.411  0.00  0.00    +0.033 C 
ATOM      8  C   UNL     1      -2.394   4.182  25.492  0.00  0.00    +0.003 C 
ATOM      9  C   UNL     1      -2.180   3.444  25.193  0.00  0.00    +0.006 C 
ATOM     10  C   UNL     1      -2.906   3.539  25.572  0.00  0.00    +0.000 C 
ATOM     11  C   UNL     1      -2.692   2.802  25.273  0.00  0.00    +0.050 C 
ATOM     19  C   UNL     1      -2.478   2.064  24.975  0.00  0.00    +0.063 A 
ATOM     20  C   UNL     1      -1.751   1.967  24.595  0.00  0.00    +0.023 A 
ATOM     21  C   UNL     1      -1.240   2.608  24.515  0.00  0.00    +0.034 C 
ATOM     22  C   UNL     1      -1.454   3.348  24.814  0.00  0.00    +0.010 C 
ATOM     23  S   UNL     1      -1.691   1.179  24.358  0.00  0.00    -0.054 S 
ATOM     24  C   UNL     1      -2.380   0.788  24.591  0.00  0.00    +0.185 A 
ATOM     25  N   UNL     1      -2.551  -0.008  24.465  0.00  0.00    -0.154 NA
ATOM     26  C   UNL     1      -3.266  -0.323  24.730  0.00  0.00    +0.247 C 
ATOM     27  O   UNL     1      -3.809   0.159  25.122  0.00  0.00    -0.273 OA
ATOM     34  N   UNL     1      -2.866   1.335  24.972  0.00  0.00    -0.227 NA
ENDROOT
BRANCH  26  28
ATOM     28  C   UNL     1      -3.437  -1.120  24.604  0.00  0.00    +0.079 C 
ATOM     29  C   UNL     1      -3.073  -1.699  25.067  0.00  0.00    +0.009 C 
ATOM     30  C   UNL     1      -3.244  -2.496  24.941  0.00  0.00    +0.000 C 
ATOM     31  C   UNL     1      -3.779  -2.715  24.352  0.00  0.00    +0.000 C 
ATOM     32  C   UNL     1      -4.143  -2.137  23.890  0.00  0.00    +0.000 C 
ATOM     33  C   UNL     1      -3.972  -1.340  24.015  0.00  0.00    +0.009 C 
ENDBRANCH  26  28
BRANCH   2   3
ATOM      3  C   UNL     1      -0.496   3.402  24.362  0.00  0.00    +0.184 C 
ATOM      4  O   UNL     1       0.197   3.603  23.963  0.00  0.00    -0.220 OA
ENDBRANCH   2   3
BRANCH  11  12
ATOM     12  C   UNL     1      -3.418   2.898  25.652  0.00  0.00    +0.093 C 
BRANCH  12  13
ATOM     13  C   UNL     1      -4.108   2.983  25.208  0.00  0.00    +0.243 C 
ATOM     14  O   UNL     1      -4.076   3.329  24.460  0.00  0.00    -0.273 OA
ATOM     15  N   UNL     1      -4.830   2.722  25.511  0.00  0.00    -0.191 NA
BRANCH  15  16
ATOM     16  C   UNL     1      -5.519   2.807  25.067  0.00  0.00    +0.191 C 
BRANCH  16  17
ATOM     17  C   UNL     1      -6.129   2.258  25.144  0.00  0.00    -0.054 C 
ATOM     18  C   UNL     1      -6.740   1.708  25.220  0.00  0.00    -0.012 C 
ENDBRANCH  16  17
ENDBRANCH  15  16
ENDBRANCH  12  13
ENDBRANCH  11  12
TORSDOF 6
ENDMDL
MODEL 3
REMARK VINA RESULT:     -13.4      1.647      5.686
REMARK  Name = 
REMARK  6 active torsions:
REMARK  status: ('A' for Active; 'I' for Inactive)
REMARK    1  A    between atoms: C_2  and  C_3
REMARK    2  A    between atoms: C_11  and  C_12
REMARK    3  A    between atoms: C_12  and  C_13
REMARK    4  A    between atoms: N_15  and  C_16
REMARK    5  A    between atoms: C_16  and  C_17
REMARK    6  A    between atoms: C_26  and  C_28
REMARK                            x       y       z     vdW  Elec       q    Type
REMARK                         _______ _______ _______ _____ _____    ______ ____
ROOT
ATOM      1  C   UNL     1      -2.361   4.760  25.366  0.00  0.00    +0.005 C 
ATOM      2  C   UNL     1      -2.055   4.006  25.222  0.00  0.00    +0.059 C 
ATOM      5  C   UNL     1      -1.357   4.445  25.231  0.00  0.00    +0.154 C 
ATOM      6  O   UNL     1      -1.382   5.259  25.361  0.00  0.00    -0.223 OA
ATOM      7  C   UNL     1      -0.633   4.068  25.110  0.00  0.00    +0.033 C 
ATOM      8  C   UNL     1      -0.608   3.254  24.981  0.00  0.00    +0.003 C 
ATOM      9  C   UNL     1      -1.307   2.816  24.971  0.00  0.00    +0.006 C 
ATOM     10  C   UNL     1      -0.583   2.439  24.851  0.00  0.00    +0.000 C 
ATOM     11  C   UNL     1      -1.282   2.002  24.841  0.00  0.00    +0.050 C 
ATOM     19  C   UNL     1      -1.980   1.564  24.832  0.00  0.00    +0.063 A 
ATOM     20  C   UNL     1      -2.705   1.940  24.953  0.00  0.00    +0.023 A 
ATOM     21  C   UNL     1      -2.730   2.754  25.083  0.00  0.00    +0.034 C 
ATOM     22  C   UNL     1      -2.030   3.193  25.092  0.00  0.00    +0.010 C 
ATOM     23  S   UNL     1      -3.299   1.369  24.914  0.00  0.00    -0.054 S 
ATOM     24  C   UNL     1      -2.941   0.639  24.769  0.00  0.00    +0.185 A 
ATOM     25  N   UNL     1      -3.331  -0.083  24.689  0.00  0.00    -0.154 NA
ATOM     26  C   UNL     1      -2.898  -0.771  24.544  0.00  0.00    +0.247 C 
ATOM     27  O   UNL     1      -2.076  -0.736  24.479  0.00  0.00    -0.273 OA
ATOM     34  N   UNL     1      -2.127   0.759  24.718  0.00  0.00    -0.227 NA
ENDROOT
BRANCH  26  28
ATOM     28  C   UNL     1      -3.288  -1.494  24.464  0.00  0.00    +0.079 C 
ATOM     29  C   UNL     1      -3.056  -2.140  24.922  0.00  0.00    +0.009 C 
ATOM     30  C   UNL     1      -3.446  -2.863  24.842  0.00  0.00    +0.000 C 
ATOM     31  C   UNL     1      -4.067  -2.940  24.304  0.00  0.00    +0.000 C 
ATOM     32  C   UNL     1      -4.298  -2.294  23.847  0.00  0.00    +0.000 C 
ATOM     33  C   UNL     1      -3.909  -1.571  23.926  0.00  0.00    +0.009 C 
ENDBRANCH  26  28
BRANCH   2   3
ATOM      3  C   UNL     1      -2.861   3.830  25.263  0.00  0.00    +0.184 C 
ATOM      4  O   UNL     1      -3.403   4.421  25.456  0.00  0.00    -0.220 OA
ENDBRANCH   2   3
BRANCH  11  12
ATOM     12  C   UNL     1      -0.558   1.626  24.721  0.00  0.00    +0.093 C 
BRANCH  12  13
ATOM     13  C   UNL     1      -0.330   1.404  23.960  0.00  0.00    +0.243 C 
ATOM     14  O   UNL     1      -0.709   1.730  23.304  0.00  0.00    -0.273 OA
ATOM     15  N   UNL     1       0.278   0.855  23.853  0.00  0.00    -0.191 NA
BRANCH  15  16
ATOM     16  C   UNL     1       0.506   0.634  23.093  0.00  0.00    +0.191 C 
BRANCH  16  17
ATOM     17  C   UNL     1       1.186   0.182  22.981  0.00  0.00    -0.054 C 
ATOM     18  C   UNL     1       1.868  -0.271  22.869  0.00  0.00    -0.012 C 
ENDBRANCH  16  17
ENDBRANCH  15  16
ENDBRANCH  12  13
ENDBRANCH  11  12
TORSDOF 6
ENDMDL
MODEL 4
REMARK VINA RESULT:     -13.1      1.738      3.337
REMARK  Name = 
REMARK  6 active torsions:
REMARK  status: ('A' for Active; 'I' for Inactive)
REMARK    1  A    between atoms: C_2  and  C_3
REMARK    2  A    between atoms: C_11  and  C_12
REMARK    3  A    between atoms: C_12  and  C_13
REMARK    4  A    between atoms: N_15  and  C_16
REMARK    5  A    between atoms: C_16  and  C_17
REMARK    6  A    between atoms: C_26  and  C_28
REMARK                            x       y       z     vdW  Elec       q    Type
REMARK                         _______ _______ _______ _____ _____    ______ ____
ROOT
ATOM      1  C   UNL     1      -3.632  -2.254  24.763  0.00  0.00    +0.005 C 
ATOM      2  C   UNL     1      -2.993  -1.732  24.726  0.00  0.00    +0.059 C 
ATOM      5  C   UNL     1      -2.600  -2.448  24.615  0.00  0.00    +0.154 C 
ATOM      6  O   UNL     1      -3.024  -3.156  24.609  0.00  0.00    -0.223 OA
ATOM      7  C   UNL     1      -1.782  -2.456  24.511  0.00  0.00    +0.033 C 
ATOM      8  C   UNL     1      -1.358  -1.750  24.518  0.00  0.00    +0.003 C 
ATOM      9  C   UNL     1      -1.751  -1.033  24.628  0.00  0.00    +0.006 C 
ATOM     10  C   UNL     1      -0.933  -1.041  24.524  0.00  0.00    +0.000 C 
ATOM     11  C   UNL     1      -1.327  -0.326  24.635  0.00  0.00    +0.050 C 
ATOM     19  C   UNL     1      -1.721   0.390  24.746  0.00  0.00    +0.063 A 
ATOM     20  C   UNL     1      -2.540   0.399  24.850  0.00  0.00    +0.023 A 
ATOM     21  C   UNL     1      -2.964  -0.308  24.844  0.00  0.00    +0.034 C 
ATOM     22  C   UNL     1      -2.570  -1.025  24.733  0.00  0.00    +0.010 C 
ATOM     23  S   UNL     1      -2.776   1.184  24.947  0.00  0.00    -0.054 S 
ATOM     24  C   UNL     1      -2.103   1.660  24.903  0.00  0.00    +0.185 A 
ATOM     25  N   UNL     1      -2.086   2.482  24.970  0.00  0.00    -0.154 NA
ATOM     26  C   UNL     1      -1.368   2.885  24.914  0.00  0.00    +0.247 C 
ATOM     27  O   UNL     1      -0.668   2.467  24.789  0.00  0.00    -0.273 OA
ATOM     34  N   UNL     1      -1.451   1.170  24.778  0.00  0.00    -0.227 NA
ENDROOT
BRANCH  26  28
ATOM     28  C   UNL     1      -1.351   3.707  24.982  0.00  0.00    +0.079 C 
ATOM     29  C   UNL     1      -0.718   4.134  24.667  0.00  0.00    +0.009 C 
ATOM     30  C   UNL     1      -0.701   4.956  24.735  0.00  0.00    +0.000 C 
ATOM     31  C   UNL     1      -1.317   5.351  25.117  0.00  0.00    +0.000 C 
ATOM     32  C   UNL     1      -1.949   4.925  25.431  0.00  0.00    +0.000 C 
ATOM     33  C   UNL     1      -1.967   4.103  25.363  0.00  0.00    +0.009 C 
ENDBRANCH  26  28
BRANCH   2   3
ATOM      3  C   UNL     1      -3.610  -1.197  24.850  0.00  0.00    +0.184 C 
ATOM      4  O   UNL     1      -4.392  -1.458  24.834  0.00  0.00    -0.220 OA
ENDBRANCH   2   3
BRANCH  11  12
ATOM     12  C   UNL     1      -0.509  -0.335  24.531  0.00  0.00    +0.093 C 
BRANCH  12  13
ATOM     13  C   UNL     1      -0.186  -0.175  23.789  0.00  0.00    +0.243 C 
ATOM     14  O   UNL     1      -0.681  -0.073  23.137  0.00  0.00    -0.273 OA
ATOM     15  N   UNL     1       0.633  -0.117  23.698  0.00  0.00    -0.191 NA
BRANCH  15  16
ATOM     16  C   UNL     1       0.956   0.043  22.957  0.00  0.00    +0.191 C 
BRANCH  16  17
ATOM     17  C   UNL     1       1.773   0.096  22.866  0.00  0.00    -0.054 C 
ATOM     18  C   UNL     1       2.592   0.150  22.774  0.00  0.00    -0.012 C 
ENDBRANCH  16  17
ENDBRANCH  15  16
ENDBRANCH  12  13
ENDBRANCH  11  12
TORSDOF 6
ENDMDL
MODEL 5
REMARK VINA RESULT:     -12.8      1.869      4.150
REMARK  Name = 
REMARK  6 active torsions:
REMARK  status: ('A' for Active; 'I' for Inactive)
REMARK    1  A    between atoms: C_2  and  C_3
REMARK    2  A    between atoms: C_11  and  C_12
REMARK    3  A    between atoms: C_12  and  C_13
REMARK    4  A    between atoms: N_15  and  C_16
REMARK    5  A    between atoms: C_16  and  C_17
REMARK    6  A    between atoms: C_26  and  C_28
REMARK                            x       y       z     vdW  Elec       q    Type
REMARK                         _______ _______ _______ _____ _____    ______ ____
ROOT
ATOM      1  C   UNL     1      -5.123   3.698  25.722  0.00  0.00    +0.005 C 
ATOM      2  C   UNL     1      -4.779   3.015  25.412  0.00  0.00    +0.059 C 
ATOM      5  C   UNL     1      -5.562   2.763  25.478  0.00  0.00    +0.154 C 
ATOM      6  O   UNL     1      -6.136   3.276  25.774  0.00  0.00    -0.223 OA
ATOM      7  C   UNL     1      -5.769   1.999  25.249  0.00  0.00    +0.033 C 
ATOM      8  C   UNL     1      -5.195   1.487  24.953  0.00  0.00    +0.003 C 
ATOM      9  C   UNL     1      -4.412   1.738  24.887  0.00  0.00    +0.006 C 
ATOM     10  C   UNL     1      -4.620   0.973  24.657  0.00  0.00    +0.000 C 
ATOM     11  C   UNL     1      -3.838   1.225  24.591  0.00  0.00    +0.050 C 
ATOM     19  C   UNL     1      -3.055   1.477  24.525  0.00  0.00    +0.063 A 
ATOM     20  C   UNL     1      -2.847   2.242  24.754  0.00  0.00    +0.023 A 
ATOM     21  C   UNL     1      -3.421   2.754  25.050  0.00  0.00    +0.034 C 
ATOM     22  C   UNL     1      -4.205   2.503  25.116  0.00  0.00    +0.010 C 
ATOM     23  S   UNL     1      -2.037   2.335  24.626  0.00  0.00    -0.054 S 
ATOM     24  C   UNL     1      -1.745   1.627  24.318  0.00  0.00    +0.185 A 
ATOM     25  N   UNL     1      -0.961   1.477  24.109  0.00  0.00    -0.154 NA
ATOM     26  C   UNL     1      -0.749   0.739  23.806  0.00  0.00    +0.247 C 
ATOM     27  O   UNL     1      -1.321   0.152  23.711  0.00  0.00    -0.273 OA
ATOM     34  N   UNL     1      -2.373   1.097  24.255  0.00  0.00    -0.227 NA
ENDROOT
BRANCH  26  28
ATOM     28  C   UNL     1       0.034   0.589  23.597  0.00  0.00    +0.079 C 
ATOM     29  C   UNL     1       0.228  -0.105  23.193  0.00  0.00    +0.009 C 
ATOM     30  C   UNL     1       1.012  -0.254  22.984  0.00  0.00    +0.000 C 
ATOM     31  C   UNL     1       1.602   0.288  23.179  0.00  0.00    +0.000 C 
ATOM     32  C   UNL     1       1.409   0.980  23.582  0.00  0.00    +0.000 C 
ATOM     33  C   UNL     1       0.625   1.131  23.791  0.00  0.00    +0.009 C 
ENDBRANCH  26  28
BRANCH   2   3
ATOM      3  C   UNL     1      -4.115   3.504  25.453  0.00  0.00    +0.184 C 
ATOM      4  O   UNL     1      -4.179   4.257  25.784  0.00  0.00    -0.220 OA
ENDBRANCH   2   3
BRANCH  11  12
ATOM     12  C   UNL     1      -4.046   0.461  24.362  0.00  0.00    +0.093 C 
BRANCH  12  13
ATOM     13  C   UNL     1      -3.894  -0.177  24.863  0.00  0.00    +0.243 C 
ATOM     14  O   UNL     1      -3.815  -0.053  25.675  0.00  0.00    -0.273 OA
ATOM     15  N   UNL     1      -3.821  -0.938  24.553  0.00  0.00    -0.191 NA
BRANCH  15  16
ATOM     16  C   UNL     1      -3.669  -1.575  25.054  0.00  0.00    +0.191 C 
BRANCH  16  17
ATOM     17  C   UNL     1      -3.553  -2.328  24.740  0.00  0.00    -0.054 C 
ATOM     18  C   UNL     1      -3.436  -3.082  24.425  0.00  0.00    -0.012 C 
ENDBRANCH  16  17
ENDBRANCH  15  16
ENDBRANCH  12  13
ENDBRANCH  11  12
TORSDOF 6
ENDMDL
MODEL 6
REMARK VINA RESULT:     -12.5      1.625      5.423
REMARK  Name = 
REMARK  6 active torsions:
REMARK  status: ('A' for Active; 'I' for Inactive)
REMARK    1  A    between atoms: C_2  and  C_3
REMARK    2  A    between atoms: C_11  and  C_12
REMARK    3  A    between atoms: C_12  and  C_13
REMARK    4  A    between atoms: N_15  and  C_16
REMARK    5  A    between atoms: C_16  and  C_17
REMARK    6  A    between atoms: C_26  and  C_28
REMARK                            x       y       z     vdW  Elec       q    Type
REMARK                         _______ _______ _______ _____ _____    ______ ____
ROOT
ATOM      1  C   UNL     1      -5.483   3.977  25.654  0.00  0.00    +0.005 C 
ATOM      2  C   UNL     1      -4.935   3.464  25.309  0.00  0.00    +0.059 C 
ATOM      5  C   UNL     1      -4.587   4.189  25.127  0.00  0.00    +0.154 C 
ATOM      6  O   UNL     1      -4.946   4.892  25.367  0.00  0.00    -0.223 OA
ATOM      7  C   UNL     1      -3.878   4.211  24.705  0.00  0.00    +0.033 C 
ATOM      8  C   UNL     1      -3.520   3.509  24.465  0.00  0.00    +0.003 C 
ATOM      9  C   UNL     1      -3.868   2.784  24.647  0.00  0.00    +0.006 C 
ATOM     10  C   UNL     1      -3.160   2.805  24.225  0.00  0.00    +0.000 C 
ATOM     11  C   UNL     1      -3.509   2.081  24.407  0.00  0.00    +0.050 C 
ATOM     19  C   UNL     1      -3.858   1.357  24.589  0.00  0.00    +0.063 A 
ATOM     20  C   UNL     1      -4.567   1.334  25.011  0.00  0.00    +0.023 A 
ATOM     21  C   UNL     1      -4.926   2.037  25.251  0.00  0.00    +0.034 C 
ATOM     22  C   UNL     1      -4.577   2.762  25.069  0.00  0.00    +0.010 C 
ATOM     23  S   UNL     1      -4.781   0.543  25.109  0.00  0.00    -0.054 S 
ATOM     24  C   UNL     1      -4.204   0.076  24.748  0.00  0.00    +0.185 A 
ATOM     25  N   UNL     1      -4.198  -0.748  24.715  0.00  0.00    -0.154 NA
ATOM     26  C   UNL     1      -3.581  -1.141  24.332  0.00  0.00    +0.247 C 
ATOM     27  O   UNL     1      -2.971  -0.710  23.983  0.00  0.00    -0.273 OA
ATOM     34  N   UNL     1      -3.634   0.578  24.426  0.00  0.00    -0.227 NA
ENDROOT
BRANCH  26  28
ATOM     28  C   UNL     1      -3.576  -1.965  24.299  0.00  0.00    +0.079 C 
ATOM     29  C   UNL     1      -3.012  -2.391  24.725  0.00  0.00    +0.009 C 
ATOM     30  C   UNL     1      -3.007  -3.215  24.692  0.00  0.00    +0.000 C 
ATOM     31  C   UNL     1      -3.565  -3.614  24.233  0.00  0.00    +0.000 C 
ATOM     32  C   UNL     1      -4.128  -3.188  23.808  0.00  0.00    +0.000 C 
ATOM     33  C   UNL     1      -4.134  -2.364  23.840  0.00  0.00    +0.009 C 
ENDBRANCH  26  28
BRANCH   2   3
ATOM      3  C   UNL     1      -5.475   2.917  25.611  0.00  0.00    +0.184 C 
ATOM      4  O   UNL     1      -6.106   3.175  26.076  0.00  0.00    -0.220 OA
ENDBRANCH   2   3
BRANCH  11  12
ATOM     12  C   UNL     1      -2.801   2.103  23.985  0.00  0.00    +0.093 C 
BRANCH  12  13
ATOM     13  C   UNL     1      -2.086   1.961  24.371  0.00  0.00    +0.243 C 
ATOM     14  O   UNL     1      -2.016   2.114  25.178  0.00  0.00    -0.273 OA
ATOM     15  N   UNL     1      -1.440   1.666  23.950  0.00  0.00    -0.191 NA
BRANCH  15  16
ATOM     16  C   UNL     1      -0.725   1.525  24.335  0.00  0.00    +0.191 C 
BRANCH  16  17
ATOM     17  C   UNL     1      -0.157   1.041  23.986  0.00  0.00    -0.054 C 
ATOM     18  C   UNL     1       0.413   0.557  23.635  0.00  0.00    -0.012 C 
ENDBRANCH  16  17
ENDBRANCH  15  16
ENDBRANCH  12  13
ENDBRANCH  11  12
TORSDOF 6
ENDMDL
MODEL 7
REMARK VINA RESULT:     -12.5      1.485      3.083
REMARK  Name = 
REMARK  6 active torsions:
REMARK  status: ('A' for Active; 'I' for Inactive)
REMARK    1  A    between atoms: C_2  and  C_3
REMARK    2  A    between atoms: C_11  and  C_12
REMARK    3  A    between atoms: C_12  and  C_13
REMARK    4  A    between atoms: N_15  and  C_16
REMARK    5  A    between atoms: C_16  and  C_17
REMARK    6  A    between atoms: C_26  and  C_28
REMARK                            x       y       z     vdW  Elec       q    Type
REMARK                         _______ _______ _______ _____ _____    ______ ____
ROOT
ATOM      1  C   UNL     1      -3.715  -3.027  23.950  0.00  0.00    +0.005 C 
ATOM      2  C   UNL     1      -3.449  -2.319  24.282  0.00  0.00    +0.059 C 
ATOM      5  C   UNL     1      -2.803  -2.805  24.445  0.00  0.00    +0.154 C 
ATOM      6  O   UNL     1      -2.811  -3.596  24.210  0.00  0.00    -0.223 OA
ATOM      7  C   UNL     1      -2.149  -2.499  24.843  0.00  0.00    +0.033 C 
ATOM      8  C   UNL     1      -2.140  -1.709  25.077  0.00  0.00    +0.003 C 
ATOM      9  C   UNL     1      -2.787  -1.224  24.914  0.00  0.00    +0.006 C 
ATOM     10  C   UNL     1      -2.132  -0.918  25.313  0.00  0.00    +0.000 C 
ATOM     11  C   UNL     1      -2.779  -0.433  25.149  0.00  0.00    +0.050 C 
ATOM     19  C   UNL     1      -3.425   0.052  24.986  0.00  0.00    +0.063 A 
ATOM     20  C   UNL     1      -4.080  -0.253  24.588  0.00  0.00    +0.023 A 
ATOM     21  C   UNL     1      -4.088  -1.043  24.353  0.00  0.00    +0.034 C 
ATOM     22  C   UNL     1      -3.441  -1.529  24.516  0.00  0.00    +0.010 C 
ATOM     23  S   UNL     1      -4.633   0.354  24.504  0.00  0.00    -0.054 S 
ATOM     24  C   UNL     1      -4.320   1.034  24.851  0.00  0.00    +0.185 A 
ATOM     25  N   UNL     1      -4.689   1.771  24.892  0.00  0.00    -0.154 NA
ATOM     26  C   UNL     1      -4.305   2.404  25.258  0.00  0.00    +0.247 C 
ATOM     27  O   UNL     1      -3.554   2.300  25.582  0.00  0.00    -0.273 OA
ATOM     34  N   UNL     1      -3.574   0.848  25.149  0.00  0.00    -0.227 NA
ENDROOT
BRANCH  26  28
ATOM     28  C   UNL     1      -4.675   3.141  25.299  0.00  0.00    +0.079 C 
ATOM     29  C   UNL     1      -4.303   3.806  24.981  0.00  0.00    +0.009 C 
ATOM     30  C   UNL     1      -4.672   4.542  25.022  0.00  0.00    +0.000 C 
ATOM     31  C   UNL     1      -5.412   4.614  25.380  0.00  0.00    +0.000 C 
ATOM     32  C   UNL     1      -5.783   3.950  25.697  0.00  0.00    +0.000 C 
ATOM     33  C   UNL     1      -5.414   3.212  25.657  0.00  0.00    +0.009 C 
ENDBRANCH  26  28
BRANCH   2   3
ATOM      3  C   UNL     1      -4.188  -2.080  24.003  0.00  0.00    +0.184 C 
ATOM      4  O   UNL     1      -4.658  -2.606  23.576  0.00  0.00    -0.220 OA
ENDBRANCH   2   3
BRANCH  11  12
ATOM     12  C   UNL     1      -2.124  -0.128  25.547  0.00  0.00    +0.093 C 
BRANCH  12  13
ATOM     13  C   UNL     1      -1.572   0.333  25.142  0.00  0.00    +0.243 C 
ATOM     14  O   UNL     1      -1.488   0.253  24.326  0.00  0.00    -0.273 OA
ATOM     15  N   UNL     1      -1.104   0.875  25.554  0.00  0.00    -0.191 NA
BRANCH  15  16
ATOM     16  C   UNL     1      -0.553   1.335  25.149  0.00  0.00    +0.191 C 
BRANCH  16  17
ATOM     17  C   UNL     1      -0.207   1.985  25.519  0.00  0.00    -0.054 C 
ATOM     18  C   UNL     1       0.139   2.636  25.891  0.00  0.00    -0.012 C 
ENDBRANCH  16  17
ENDBRANCH  15  16
ENDBRANCH  12  13
ENDBRANCH  11  12
TORSDOF 6
ENDMDL
