MODEL 1
REMARK VINA RESULT:     -10.9      0.000      0.000
REMARK  Name = 
REMARK  6 active torsions:
REMARK  status: ('A' for Active; 'I' for Inactive)
REMARK    1  A    between atoms: C_2  and  N_4
REMARK    2  A    between atoms: C_5  and  O_7
REMARK    3  A    between atoms: O_7  and  C_8
REMARK    4  A    between atoms: C_8  and  C_9
REMARK    5  A    between atoms: C_16  and  C_17
REMARK    6  A    between atoms: C_19  and  C_23
REMARK                            x       y       z     vdW  Elec       q    Type
REMARK                         _______ _______ _______ _____ _____    ______ ____
ROOT
ATOM      9  C   UNL     1       0.845   0.600  23.509  0.00  0.00    +0.102 C 
ATOM     10  C   UNL     1       0.400   1.140  23.850  0.00  0.00    +0.020 C 
ATOM     11  C   UNL     1      -0.325   1.008  24.185  0.00  0.00    +0.010 C 
ATOM     12  C   UNL     1      -0.677   1.759  24.525  0.00  0.00    +0.018 C 
ATOM     13  C   UNL     1      -0.225   1.398  24.220  0.00  0.00    +0.072 C 
ATOM     14  N   UNL     1       0.106   0.474  23.853  0.00  0.00    -0.270 NA
ATOM     15  C   UNL     1      -0.405  -0.276  23.946  0.00  0.00    +0.078 C 
ATOM     16  C   UNL     1      -0.811   0.282  24.272  0.00  0.00    +0.056 C 
ENDROOT
BRANCH  16  17
ATOM     17  C   UNL     1      -1.552   0.217  24.629  0.00  0.00    +0.058 A 
ATOM     18  C   UNL     1      -2.220   0.664  24.446  0.00  0.00    +0.035 A 
ATOM     19  C   UNL     1      -2.835   0.416  24.936  0.00  0.00    +0.102 A 
ATOM     20  N   UNL     1      -2.547  -0.184  25.423  0.00  0.00    -0.170 NA
ATOM     21  N   UNL     1      -1.754  -0.307  25.233  0.00  0.00    -0.253 N 
ATOM     22  C   UNL     1      -1.250  -0.858  25.585  0.00  0.00    +0.153 C 
BRANCH  19  23
ATOM     23  C   UNL     1      -3.604   0.716  24.940  0.00  0.00    +0.019 A 
ATOM     24  C   UNL     1      -3.737   1.506  25.139  0.00  0.00    +0.002 A 
ATOM     25  C   UNL     1      -4.506   1.806  25.143  0.00  0.00    +0.000 A 
ATOM     26  C   UNL     1      -5.141   1.316  24.947  0.00  0.00    +0.000 A 
ATOM     27  C   UNL     1      -5.909   1.616  24.950  0.00  0.00    +0.000 A 
ATOM     28  C   UNL     1      -6.043   2.406  25.150  0.00  0.00    +0.000 A 
ATOM     29  C   UNL     1      -5.408   2.895  25.345  0.00  0.00    +0.000 A 
ATOM     30  C   UNL     1      -4.640   2.595  25.342  0.00  0.00    +0.000 A 
ATOM     31  C   UNL     1      -5.007   0.527  24.747  0.00  0.00    +0.000 A 
ATOM     32  C   UNL     1      -4.238   0.226  24.744  0.00  0.00    +0.002 A 
ENDBRANCH  19  23
ENDBRANCH  16  17
BRANCH   9   8
ATOM      8  C   UNL     1       1.524   0.349  23.114  0.00  0.00    +0.226 C 
BRANCH   8   7
ATOM      7  O   UNL     1       2.190   0.837  23.086  0.00  0.00    -0.432 OA
BRANCH   7   5
ATOM      4  N   UNL     1       3.615   0.941  23.087  0.00  0.00    -0.170 NA
ATOM      5  C   UNL     1       2.930   0.514  22.916  0.00  0.00    +0.421 C 
ATOM      6  O   UNL     1       2.985  -0.236  22.575  0.00  0.00    -0.225 OA
BRANCH   4   2
ATOM      1  C   UNL     1       4.588   0.510  22.134  0.00  0.00    +0.024 C 
ATOM      2  C   UNL     1       4.355   0.619  22.917  0.00  0.00    +0.099 C 
ATOM      3  C   UNL     1       4.862   0.406  23.532  0.00  0.00    +0.024 C 
ENDBRANCH   4   2
ENDBRANCH   7   5
ENDBRANCH   8   7
ENDBRANCH   9   8
TORSDOF 6
ENDMDL
MODEL 2
REMARK VINA RESULT:     -10.7      0.762      1.109
REMARK  Name = 
REMARK  6 active torsions:
REMARK  status: ('A' for Active; 'I' for Inactive)
REMARK    1  A    between atoms: C_2  and  N_4
REMARK    2  A    between atoms: C_5  and  O_7
REMARK    3  A    between atoms: O_7  and  C_8
REMARK    4  A    between atoms: C_8  and  C_9
REMARK    5  A    between atoms: C_16  and  C_17
REMARK    6  A    between atoms: C_19  and  C_23
REMARK                            x       y       z     vdW  Elec       q    Type
REMARK                         _______ _______ _______ _____ _____    ______ ____
ROOT
ATOM      9  C   UNL     1       0.906   0.002  23.150  0.00  0.00    +0.102 C 
ATOM     10  C   UNL     1       0.375  -0.396  23.556  0.00  0.00    +0.020 C 
ATOM     11  C   UNL     1      -0.246  -0.070  23.963  0.00  0.00    +0.010 C 
ATOM     12  C   UNL     1      -0.745  -0.697  24.366  0.00  0.00    +0.018 C 
ATOM     13  C   UNL     1      -0.251  -0.473  24.001  0.00  0.00    +0.072 C 
ATOM     14  N   UNL     1       0.272   0.324  23.567  0.00  0.00    -0.270 NA
ATOM     15  C   UNL     1      -0.004   1.186  23.689  0.00  0.00    +0.078 C 
ATOM     16  C   UNL     1      -0.506   0.760  24.076  0.00  0.00    +0.056 C 
ENDROOT
BRANCH  16  17
ATOM     17  C   UNL     1      -1.156   1.025  24.509  0.00  0.00    +0.058 A 
ATOM     18  C   UNL     1      -1.949   0.898  24.321  0.00  0.00    +0.035 A 
ATOM     19  C   UNL     1      -2.410   1.258  24.902  0.00  0.00    +0.102 A 
ATOM     20  N   UNL     1      -1.901   1.609  25.449  0.00  0.00    -0.170 NA
ATOM     21  N   UNL     1      -1.127   1.465  25.206  0.00  0.00    -0.253 N 
ATOM     22  C   UNL     1      -0.442   1.716  25.592  0.00  0.00    +0.153 C 
BRANCH  19  23
ATOM     23  C   UNL     1      -3.234   1.267  24.931  0.00  0.00    +0.019 A 
ATOM     24  C   UNL     1      -3.636   1.985  24.995  0.00  0.00    +0.002 A 
ATOM     25  C   UNL     1      -4.462   1.993  25.024  0.00  0.00    +0.000 A 
ATOM     26  C   UNL     1      -4.883   1.285  24.990  0.00  0.00    +0.000 A 
ATOM     27  C   UNL     1      -5.707   1.293  25.019  0.00  0.00    +0.000 A 
ATOM     28  C   UNL     1      -6.111   2.011  25.082  0.00  0.00    +0.000 A 
ATOM     29  C   UNL     1      -5.689   2.719  25.116  0.00  0.00    +0.000 A 
ATOM     30  C   UNL     1      -4.864   2.710  25.087  0.00  0.00    +0.000 A 
ATOM     31  C   UNL     1      -4.480   0.567  24.926  0.00  0.00    +0.000 A 
ATOM     32  C   UNL     1      -3.655   0.558  24.897  0.00  0.00    +0.002 A 
ENDBRANCH  19  23
ENDBRANCH  16  17
BRANCH   9   8
ATOM      8  C   UNL     1       1.578   0.057  22.674  0.00  0.00    +0.226 C 
BRANCH   8   7
ATOM      7  O   UNL     1       2.294  -0.263  22.932  0.00  0.00    -0.432 OA
BRANCH   7   5
ATOM      4  N   UNL     1       3.623   0.175  23.219  0.00  0.00    -0.170 NA
ATOM      5  C   UNL     1       3.007   0.068  22.682  0.00  0.00    +0.421 C 
ATOM      6  O   UNL     1       3.104   0.291  21.893  0.00  0.00    -0.225 OA
BRANCH   4   2
ATOM      1  C   UNL     1       4.339   1.229  22.574  0.00  0.00    +0.024 C 
ATOM      2  C   UNL     1       4.337   0.506  22.969  0.00  0.00    +0.099 C 
ATOM      3  C   UNL     1       5.046   0.111  23.114  0.00  0.00    +0.024 C 
ENDBRANCH   4   2
ENDBRANCH   7   5
ENDBRANCH   8   7
ENDBRANCH   9   8
TORSDOF 6
ENDMDL
