MODEL 1
REMARK VINA RESULT:     -10.9      0.000      0.000
REMARK  Name = 
REMARK  3 active torsions:
REMARK  status: ('A' for Active; 'I' for Inactive)
REMARK    1  A    between atoms: N_2  and  C_4
REMARK    2  A    between atoms: C_6  and  C_10
REMARK    3  A    between atoms: C_13  and  C_15
REMARK                            x       y       z     vdW  Elec       q    Type
REMARK                         _______ _______ _______ _____ _____    ______ ____
ROOT
ATOM     10  C   UNL     1      -4.187   1.782  24.860  0.00  0.00    +0.203 A 
ATOM     11  N   UNL     1      -4.958   1.573  25.065  0.00  0.00    -0.056 NA
ATOM     12  O   UNL     1      -4.987   0.752  25.142  0.00  0.00    -0.336 OA
ATOM     13  C   UNL     1      -4.235   0.453  24.984  0.00  0.00    +0.253 A 
ATOM     14  N   UNL     1      -3.739   1.090  24.809  0.00  0.00    -0.190 NA
ENDROOT
BRANCH  13  15
ATOM     15  C   UNL     1      -4.016  -0.341  24.998  0.00  0.00    +0.158 C 
ATOM     16  C   UNL     1      -4.195  -0.830  24.358  0.00  0.00    +0.074 C 
ATOM     17  C   UNL     1      -3.976  -1.625  24.372  0.00  0.00    +0.078 A 
ATOM     18  C   UNL     1      -3.577  -1.932  25.026  0.00  0.00    +0.092 A 
ATOM     19  C   UNL     1      -3.397  -1.443  25.666  0.00  0.00    +0.136 C 
ATOM     20  N   UNL     1      -3.617  -0.648  25.652  0.00  0.00    -0.203 NA
ATOM     21  N   UNL     1      -3.431  -2.731  24.885  0.00  0.00    -0.226 NA
ATOM     22  C   UNL     1      -3.740  -2.919  24.143  0.00  0.00    +0.198 A 
ATOM     23  N   UNL     1      -4.077  -2.236  23.827  0.00  0.00    -0.227 NA
ENDBRANCH  13  15
BRANCH  10   6
ATOM      4  C   UNL     1      -3.198   3.701  25.181  0.00  0.00    +0.143 A 
ATOM      5  C   UNL     1      -3.475   2.935  25.312  0.00  0.00    +0.027 A 
ATOM      6  C   UNL     1      -3.911   2.548  24.728  0.00  0.00    +0.041 A 
ATOM      7  C   UNL     1      -4.070   2.927  24.013  0.00  0.00    +0.003 A 
ATOM      8  C   UNL     1      -3.794   3.694  23.881  0.00  0.00    +0.002 A 
ATOM      9  C   UNL     1      -3.358   4.081  24.466  0.00  0.00    +0.024 A 
BRANCH   4   2
ATOM      1  O   UNL     1      -3.108   4.258  26.493  0.00  0.00    -0.126 OA
ATOM      2  N   UNL     1      -2.762   4.088  25.764  0.00  0.00    +0.058 N 
ATOM      3  O   UNL     1      -1.980   4.305  25.618  0.00  0.00    -0.126 OA
ENDBRANCH   4   2
ENDBRANCH  10   6
TORSDOF 3
ENDMDL
MODEL 2
REMARK VINA RESULT:     -10.6      1.876      4.910
REMARK  Name = 
REMARK  3 active torsions:
REMARK  status: ('A' for Active; 'I' for Inactive)
REMARK    1  A    between atoms: N_2  and  C_4
REMARK    2  A    between atoms: C_6  and  C_10
REMARK    3  A    between atoms: C_13  and  C_15
REMARK                            x       y       z     vdW  Elec       q    Type
REMARK                         _______ _______ _______ _____ _____    ______ ____
ROOT
ATOM     10  C   UNL     1      -3.744  -0.255  24.171  0.00  0.00    +0.203 A 
ATOM     11  N   UNL     1      -3.502   0.239  23.557  0.00  0.00    -0.056 NA
ATOM     12  O   UNL     1      -3.807   0.992  23.701  0.00  0.00    -0.336 OA
ATOM     13  C   UNL     1      -4.238   0.964  24.404  0.00  0.00    +0.253 A 
ATOM     14  N   UNL     1      -4.199   0.193  24.695  0.00  0.00    -0.190 NA
ENDROOT
BRANCH  13  15
ATOM     15  C   UNL     1      -4.636   1.595  24.754  0.00  0.00    +0.158 C 
ATOM     16  C   UNL     1      -4.244   2.307  24.889  0.00  0.00    +0.074 C 
ATOM     17  C   UNL     1      -4.642   2.939  25.240  0.00  0.00    +0.078 A 
ATOM     18  C   UNL     1      -5.435   2.858  25.455  0.00  0.00    +0.092 A 
ATOM     19  C   UNL     1      -5.828   2.145  25.319  0.00  0.00    +0.136 C 
ATOM     20  N   UNL     1      -5.429   1.514  24.969  0.00  0.00    -0.203 NA
ATOM     21  N   UNL     1      -5.683   3.570  25.788  0.00  0.00    -0.226 NA
ATOM     22  C   UNL     1      -5.044   4.092  25.779  0.00  0.00    +0.198 A 
ATOM     23  N   UNL     1      -4.401   3.701  25.440  0.00  0.00    -0.227 NA
ENDBRANCH  13  15
BRANCH  10   6
ATOM      4  C   UNL     1      -2.610  -2.091  24.497  0.00  0.00    +0.143 A 
ATOM      5  C   UNL     1      -2.791  -1.290  24.418  0.00  0.00    +0.027 A 
ATOM      6  C   UNL     1      -3.564  -1.057  24.249  0.00  0.00    +0.041 A 
ATOM      7  C   UNL     1      -4.156  -1.623  24.159  0.00  0.00    +0.003 A 
ATOM      8  C   UNL     1      -3.975  -2.425  24.237  0.00  0.00    +0.002 A 
ATOM      9  C   UNL     1      -3.202  -2.659  24.406  0.00  0.00    +0.024 A 
BRANCH   4   2
ATOM      1  O   UNL     1      -1.452  -2.027  25.331  0.00  0.00    -0.126 OA
ATOM      2  N   UNL     1      -1.837  -2.325  24.666  0.00  0.00    +0.058 N 
ATOM      3  O   UNL     1      -1.450  -2.857  24.168  0.00  0.00    -0.126 OA
ENDBRANCH   4   2
ENDBRANCH  10   6
TORSDOF 3
ENDMDL
MODEL 3
REMARK VINA RESULT:     -10.2      1.810      5.026
REMARK  Name = 
REMARK  3 active torsions:
REMARK  status: ('A' for Active; 'I' for Inactive)
REMARK    1  A    between atoms: N_2  and  C_4
REMARK    2  A    between atoms: C_6  and  C_10
REMARK    3  A    between atoms: C_13  and  C_15
REMARK                            x       y       z     vdW  Elec       q    Type
REMARK                         _______ _______ _______ _____ _____    ______ ____
ROOT
ATOM     10  C   UNL     1      -3.332   0.263  24.280  0.00  0.00    +0.203 A 
ATOM     11  N   UNL     1      -3.573   0.601  23.568  0.00  0.00    -0.056 NA
ATOM     12  O   UNL     1      -3.514   1.421  23.643  0.00  0.00    -0.336 OA
ATOM     13  C   UNL     1      -3.237   1.589  24.401  0.00  0.00    +0.253 A 
ATOM     14  N   UNL     1      -3.124   0.873  24.796  0.00  0.00    -0.190 NA
ENDROOT
BRANCH  13  15
ATOM     15  C   UNL     1      -3.097   2.341  24.710  0.00  0.00    +0.158 C 
ATOM     16  C   UNL     1      -2.346   2.676  24.655  0.00  0.00    +0.074 C 
ATOM     17  C   UNL     1      -2.205   3.428  24.965  0.00  0.00    +0.078 A 
ATOM     18  C   UNL     1      -2.817   3.844  25.329  0.00  0.00    +0.092 A 
ATOM     19  C   UNL     1      -3.569   3.509  25.384  0.00  0.00    +0.136 C 
ATOM     20  N   UNL     1      -3.708   2.757  25.075  0.00  0.00    -0.203 NA
ATOM     21  N   UNL     1      -2.517   4.569  25.582  0.00  0.00    -0.226 NA
ATOM     22  C   UNL     1      -1.719   4.602  25.374  0.00  0.00    +0.198 A 
ATOM     23  N   UNL     1      -1.527   3.896  24.992  0.00  0.00    -0.227 NA
ENDBRANCH  13  15
BRANCH  10   6
ATOM      4  C   UNL     1      -2.549  -1.745  24.624  0.00  0.00    +0.143 A 
ATOM      5  C   UNL     1      -2.578  -0.939  24.455  0.00  0.00    +0.027 A 
ATOM      6  C   UNL     1      -3.303  -0.545  24.449  0.00  0.00    +0.041 A 
ATOM      7  C   UNL     1      -3.998  -0.957  24.612  0.00  0.00    +0.003 A 
ATOM      8  C   UNL     1      -3.970  -1.764  24.781  0.00  0.00    +0.002 A 
ATOM      9  C   UNL     1      -3.244  -2.159  24.787  0.00  0.00    +0.024 A 
BRANCH   4   2
ATOM      1  O   UNL     1      -1.215  -1.876  25.118  0.00  0.00    -0.126 OA
ATOM      2  N   UNL     1      -1.824  -2.140  24.629  0.00  0.00    +0.058 N 
ATOM      3  O   UNL     1      -1.710  -2.799  24.146  0.00  0.00    -0.126 OA
ENDBRANCH   4   2
ENDBRANCH  10   6
TORSDOF 3
ENDMDL
MODEL 4
REMARK VINA RESULT:      -9.9      2.199      2.754
REMARK  Name = 
REMARK  3 active torsions:
REMARK  status: ('A' for Active; 'I' for Inactive)
REMARK    1  A    between atoms: N_2  and  C_4
REMARK    2  A    between atoms: C_6  and  C_10
REMARK    3  A    between atoms: C_13  and  C_15
REMARK                            x       y       z     vdW  Elec       q    Type
REMARK                         _______ _______ _______ _____ _____    ______ ____
ROOT
ATOM     10  C   UNL     1      -3.376   2.008  24.292  0.00  0.00    +0.203 A 
ATOM     11  N   UNL     1      -3.292   1.887  23.481  0.00  0.00    -0.056 NA
ATOM     12  O   UNL     1      -2.692   1.333  23.367  0.00  0.00    -0.336 OA
ATOM     13  C   UNL     1      -2.404   1.112  24.108  0.00  0.00    +0.253 A 
ATOM     14  N   UNL     1      -2.827   1.529  24.680  0.00  0.00    -0.190 NA
ENDROOT
BRANCH  13  15
ATOM     15  C   UNL     1      -1.800   0.569  24.251  0.00  0.00    +0.158 C 
ATOM     16  C   UNL     1      -1.968  -0.146  24.625  0.00  0.00    +0.074 C 
ATOM     17  C   UNL     1      -1.364  -0.689  24.769  0.00  0.00    +0.078 A 
ATOM     18  C   UNL     1      -0.591  -0.517  24.538  0.00  0.00    +0.092 A 
ATOM     19  C   UNL     1      -0.422   0.199  24.163  0.00  0.00    +0.136 C 
ATOM     20  N   UNL     1      -1.027   0.742  24.020  0.00  0.00    -0.203 NA
ATOM     21  N   UNL     1      -0.113  -1.154  24.751  0.00  0.00    -0.226 NA
ATOM     22  C   UNL     1      -0.590  -1.720  25.114  0.00  0.00    +0.198 A 
ATOM     23  N   UNL     1      -1.363  -1.433  25.125  0.00  0.00    -0.227 NA
ENDBRANCH  13  15
BRANCH  10   6
ATOM      4  C   UNL     1      -5.144   2.728  25.351  0.00  0.00    +0.143 A 
ATOM      5  C   UNL     1      -4.606   2.218  24.989  0.00  0.00    +0.027 A 
ATOM      6  C   UNL     1      -3.914   2.519  24.654  0.00  0.00    +0.041 A 
ATOM      7  C   UNL     1      -3.762   3.329  24.680  0.00  0.00    +0.003 A 
ATOM      8  C   UNL     1      -4.300   3.839  25.042  0.00  0.00    +0.002 A 
ATOM      9  C   UNL     1      -4.992   3.539  25.377  0.00  0.00    +0.024 A 
BRANCH   4   2
ATOM      1  O   UNL     1      -6.375   2.015  25.219  0.00  0.00    -0.126 OA
ATOM      2  N   UNL     1      -5.836   2.428  25.686  0.00  0.00    +0.058 N 
ATOM      3  O   UNL     1      -5.987   2.541  26.489  0.00  0.00    -0.126 OA
ENDBRANCH   4   2
ENDBRANCH  10   6
TORSDOF 3
ENDMDL
