MODEL 1
REMARK VINA RESULT:      -8.6      0.000      0.000
REMARK  Name = 
REMARK  6 active torsions:
REMARK  status: ('A' for Active; 'I' for Inactive)
REMARK    1  A    between atoms: O_2  and  C_3
REMARK    2  A    between atoms: C_6  and  C_9
REMARK    3  A    between atoms: N_11  and  C_12
REMARK    4  A    between atoms: C_16  and  O_20
REMARK    5  A    between atoms: O_20  and  C_21
REMARK    6  A    between atoms: N_23  and  C_24
REMARK                            x       y       z     vdW  Elec       q    Type
REMARK                         _______ _______ _______ _____ _____    ______ ____
ROOT
ATOM     12  C   UNL     1      -0.569   0.593  23.845  0.00  0.00    +0.155 C 
ATOM     13  C   UNL     1      -0.786   0.029  24.406  0.00  0.00    +0.166 C 
ATOM     14  O   UNL     1      -1.601   0.085  24.521  0.00  0.00    -0.348 OA
ATOM     15  C   UNL     1      -1.888   0.683  24.031  0.00  0.00    +0.186 C 
ATOM     16  C   UNL     1      -2.568   1.088  23.799  0.00  0.00    +0.229 C 
ATOM     17  C   UNL     1      -2.350   1.652  23.237  0.00  0.00    +0.188 C 
ATOM     18  O   UNL     1      -1.536   1.596  23.123  0.00  0.00    -0.348 OA
ATOM     19  C   UNL     1      -1.249   0.997  23.613  0.00  0.00    +0.168 C 
ENDROOT
BRANCH  12  11
ATOM      9  C   UNL     1       0.688   0.092  23.383  0.00  0.00    +0.265 C 
ATOM     10  O   UNL     1       0.415  -0.681  23.482  0.00  0.00    -0.268 OA
ATOM     11  N   UNL     1       0.195   0.729  23.565  0.00  0.00    -0.198 NA
BRANCH   9   6
ATOM      3  C   UNL     1       2.979   0.498  22.543  0.00  0.00    +0.139 A 
ATOM      4  C   UNL     1       2.498  -0.061  22.174  0.00  0.00    +0.037 A 
ATOM      5  C   UNL     1       1.734  -0.196  22.454  0.00  0.00    +0.008 A 
ATOM      6  C   UNL     1       1.451   0.227  23.103  0.00  0.00    +0.055 A 
ATOM      7  C   UNL     1       1.932   0.787  23.472  0.00  0.00    +0.008 A 
ATOM      8  C   UNL     1       2.697   0.922  23.192  0.00  0.00    +0.037 A 
BRANCH   3   2
ATOM      1  C   UNL     1       4.385   0.599  22.781  0.00  0.00    +0.252 C 
ATOM      2  O   UNL     1       3.744   0.634  22.263  0.00  0.00    -0.471 OA
ENDBRANCH   3   2
ENDBRANCH   9   6
ENDBRANCH  12  11
BRANCH  16  20
ATOM     20  O   UNL     1      -3.332   0.952  24.079  0.00  0.00    -0.432 OA
BRANCH  20  21
ATOM     21  C   UNL     1      -3.818   1.589  24.277  0.00  0.00    +0.421 C 
ATOM     22  O   UNL     1      -4.022   2.146  23.704  0.00  0.00    -0.225 OA
ATOM     23  N   UNL     1      -4.101   1.668  25.047  0.00  0.00    -0.170 NA
BRANCH  23  24
ATOM     24  C   UNL     1      -4.588   2.305  25.245  0.00  0.00    +0.099 C 
ATOM     25  C   UNL     1      -5.407   2.212  25.252  0.00  0.00    +0.022 C 
ATOM     26  C   UNL     1      -5.893   2.848  25.450  0.00  0.00    +0.002 C 
ATOM     27  C   UNL     1      -5.559   3.578  25.641  0.00  0.00    +0.000 C 
ATOM     28  C   UNL     1      -4.739   3.672  25.634  0.00  0.00    +0.002 C 
ATOM     29  C   UNL     1      -4.254   3.035  25.436  0.00  0.00    +0.022 C 
ENDBRANCH  23  24
ENDBRANCH  20  21
ENDBRANCH  16  20
TORSDOF 6
ENDMDL
MODEL 2
REMARK VINA RESULT:      -8.5      2.987      4.864
REMARK  Name = 
REMARK  6 active torsions:
REMARK  status: ('A' for Active; 'I' for Inactive)
REMARK    1  A    between atoms: O_2  and  C_3
REMARK    2  A    between atoms: C_6  and  C_9
REMARK    3  A    between atoms: N_11  and  C_12
REMARK    4  A    between atoms: C_16  and  O_20
REMARK    5  A    between atoms: O_20  and  C_21
REMARK    6  A    between atoms: N_23  and  C_24
REMARK                            x       y       z     vdW  Elec       q    Type
REMARK                         _______ _______ _______ _____ _____    ______ ____
ROOT
ATOM     12  C   UNL     1      -1.491  -0.085  24.968  0.00  0.00    +0.155 C 
ATOM     13  C   UNL     1      -1.329   0.101  25.755  0.00  0.00    +0.166 C 
ATOM     14  O   UNL     1      -0.902   0.806  25.766  0.00  0.00    -0.348 OA
ATOM     15  C   UNL     1      -0.800   1.056  24.988  0.00  0.00    +0.186 C 
ATOM     16  C   UNL     1      -0.473   1.645  24.512  0.00  0.00    +0.229 C 
ATOM     17  C   UNL     1      -0.634   1.459  23.725  0.00  0.00    +0.188 C 
ATOM     18  O   UNL     1      -1.062   0.754  23.714  0.00  0.00    -0.348 OA
ATOM     19  C   UNL     1      -1.164   0.504  24.494  0.00  0.00    +0.168 C 
ENDROOT
BRANCH  12  11
ATOM      9  C   UNL     1      -2.663  -0.904  24.995  0.00  0.00    +0.265 C 
ATOM     10  O   UNL     1      -3.001  -0.399  25.554  0.00  0.00    -0.268 OA
ATOM     11  N   UNL     1      -1.908  -0.747  24.702  0.00  0.00    -0.198 NA
BRANCH   9   6
ATOM      3  C   UNL     1      -3.912  -2.885  24.198  0.00  0.00    +0.139 A 
ATOM      4  C   UNL     1      -3.252  -2.982  24.682  0.00  0.00    +0.037 A 
ATOM      5  C   UNL     1      -2.835  -2.322  24.948  0.00  0.00    +0.008 A 
ATOM      6  C   UNL     1      -3.079  -1.564  24.729  0.00  0.00    +0.055 A 
ATOM      7  C   UNL     1      -3.740  -1.468  24.245  0.00  0.00    +0.008 A 
ATOM      8  C   UNL     1      -4.157  -2.129  23.979  0.00  0.00    +0.037 A 
BRANCH   3   2
ATOM      1  C   UNL     1      -4.725  -3.521  23.209  0.00  0.00    +0.252 C 
ATOM      2  O   UNL     1      -4.329  -3.546  23.932  0.00  0.00    -0.471 OA
ENDBRANCH   3   2
ENDBRANCH   9   6
ENDBRANCH  12  11
BRANCH  16  20
ATOM     20  O   UNL     1      -0.056   2.307  24.778  0.00  0.00    -0.432 OA
BRANCH  20  21
ATOM     21  C   UNL     1      -0.367   3.063  24.667  0.00  0.00    +0.421 C 
ATOM     22  O   UNL     1      -0.414   3.382  23.908  0.00  0.00    -0.225 OA
ATOM     23  N   UNL     1      -0.631   3.500  25.315  0.00  0.00    -0.170 NA
BRANCH  23  24
ATOM     24  C   UNL     1      -0.942   4.256  25.204  0.00  0.00    +0.099 C 
ATOM     25  C   UNL     1      -0.470   4.854  24.890  0.00  0.00    +0.022 C 
ATOM     26  C   UNL     1      -0.781   5.610  24.779  0.00  0.00    +0.002 C 
ATOM     27  C   UNL     1      -1.566   5.767  24.983  0.00  0.00    +0.000 C 
ATOM     28  C   UNL     1      -2.038   5.168  25.297  0.00  0.00    +0.002 C 
ATOM     29  C   UNL     1      -1.726   4.412  25.407  0.00  0.00    +0.022 C 
ENDBRANCH  23  24
ENDBRANCH  20  21
ENDBRANCH  16  20
TORSDOF 6
ENDMDL
MODEL 3
REMARK VINA RESULT:      -8.3      3.868      5.022
REMARK  Name = 
REMARK  6 active torsions:
REMARK  status: ('A' for Active; 'I' for Inactive)
REMARK    1  A    between atoms: O_2  and  C_3
REMARK    2  A    between atoms: C_6  and  C_9
REMARK    3  A    between atoms: N_11  and  C_12
REMARK    4  A    between atoms: C_16  and  O_20
REMARK    5  A    between atoms: O_20  and  C_21
REMARK    6  A    between atoms: N_23  and  C_24
REMARK                            x       y       z     vdW  Elec       q    Type
REMARK                         _______ _______ _______ _____ _____    ______ ____
ROOT
ATOM     12  C   UNL     1      -4.357   0.761  24.756  0.00  0.00    +0.155 C 
ATOM     13  C   UNL     1      -4.686   1.035  25.461  0.00  0.00    +0.166 C 
ATOM     14  O   UNL     1      -4.595   1.854  25.482  0.00  0.00    -0.348 OA
ATOM     15  C   UNL     1      -4.210   2.087  24.792  0.00  0.00    +0.186 C 
ATOM     16  C   UNL     1      -3.915   2.736  24.377  0.00  0.00    +0.229 C 
ATOM     17  C   UNL     1      -3.586   2.463  23.673  0.00  0.00    +0.188 C 
ATOM     18  O   UNL     1      -3.677   1.643  23.651  0.00  0.00    -0.348 OA
ATOM     19  C   UNL     1      -4.063   1.411  24.343  0.00  0.00    +0.168 C 
ENDROOT
BRANCH  12  11
ATOM      9  C   UNL     1      -3.948  -0.592  24.974  0.00  0.00    +0.265 C 
ATOM     10  O   UNL     1      -3.599  -0.370  25.689  0.00  0.00    -0.268 OA
ATOM     11  N   UNL     1      -4.327  -0.026  24.508  0.00  0.00    -0.198 NA
BRANCH   9   6
ATOM      3  C   UNL     1      -3.858  -2.950  24.232  0.00  0.00    +0.139 A 
ATOM      4  C   UNL     1      -3.470  -2.720  24.922  0.00  0.00    +0.037 A 
ATOM      5  C   UNL     1      -3.500  -1.934  25.170  0.00  0.00    +0.008 A 
ATOM      6  C   UNL     1      -3.918  -1.377  24.727  0.00  0.00    +0.055 A 
ATOM      7  C   UNL     1      -4.306  -1.607  24.036  0.00  0.00    +0.008 A 
ATOM      8  C   UNL     1      -4.276  -2.394  23.788  0.00  0.00    +0.037 A 
BRANCH   3   2
ATOM      1  C   UNL     1      -3.184  -4.007  23.546  0.00  0.00    +0.252 C 
ATOM      2  O   UNL     1      -3.828  -3.737  23.984  0.00  0.00    -0.471 OA
ENDBRANCH   3   2
ENDBRANCH   9   6
ENDBRANCH  12  11
BRANCH  16  20
ATOM     20  O   UNL     1      -3.945   3.523  24.625  0.00  0.00    -0.432 OA
BRANCH  20  21
ATOM     21  C   UNL     1      -3.278   4.004  24.555  0.00  0.00    +0.421 C 
ATOM     22  O   UNL     1      -3.146   4.427  23.860  0.00  0.00    -0.225 OA
ATOM     23  N   UNL     1      -2.744   4.061  25.180  0.00  0.00    -0.170 NA
BRANCH  23  24
ATOM     24  C   UNL     1      -2.076   4.542  25.111  0.00  0.00    +0.099 C 
ATOM     25  C   UNL     1      -1.335   4.203  24.987  0.00  0.00    +0.022 C 
ATOM     26  C   UNL     1      -0.668   4.683  24.917  0.00  0.00    +0.002 C 
ATOM     27  C   UNL     1      -0.743   5.503  24.971  0.00  0.00    +0.000 C 
ATOM     28  C   UNL     1      -1.485   5.843  25.095  0.00  0.00    +0.002 C 
ATOM     29  C   UNL     1      -2.152   5.361  25.165  0.00  0.00    +0.022 C 
ENDBRANCH  23  24
ENDBRANCH  20  21
ENDBRANCH  16  20
TORSDOF 6
ENDMDL
MODEL 4
REMARK VINA RESULT:      -8.2      1.128      6.611
REMARK  Name = 
REMARK  6 active torsions:
REMARK  status: ('A' for Active; 'I' for Inactive)
REMARK    1  A    between atoms: O_2  and  C_3
REMARK    2  A    between atoms: C_6  and  C_9
REMARK    3  A    between atoms: N_11  and  C_12
REMARK    4  A    between atoms: C_16  and  O_20
REMARK    5  A    between atoms: O_20  and  C_21
REMARK    6  A    between atoms: N_23  and  C_24
REMARK                            x       y       z     vdW  Elec       q    Type
REMARK                         _______ _______ _______ _____ _____    ______ ____
ROOT
ATOM     12  C   UNL     1      -1.641   0.382  24.281  0.00  0.00    +0.155 C 
ATOM     13  C   UNL     1      -1.591  -0.440  24.334  0.00  0.00    +0.166 C 
ATOM     14  O   UNL     1      -0.852  -0.668  24.047  0.00  0.00    -0.348 OA
ATOM     15  C   UNL     1      -0.445   0.011  23.818  0.00  0.00    +0.186 C 
ATOM     16  C   UNL     1       0.262   0.291  23.499  0.00  0.00    +0.229 C 
ATOM     17  C   UNL     1       0.212   1.112  23.446  0.00  0.00    +0.188 C 
ATOM     18  O   UNL     1      -0.527   1.341  23.732  0.00  0.00    -0.348 OA
ATOM     19  C   UNL     1      -0.933   0.660  23.962  0.00  0.00    +0.168 C 
ENDROOT
BRANCH  12  11
ATOM      9  C   UNL     1      -3.051   0.613  24.301  0.00  0.00    +0.265 C 
ATOM     10  O   UNL     1      -3.171  -0.079  23.868  0.00  0.00    -0.268 OA
ATOM     11  N   UNL     1      -2.286   0.844  24.507  0.00  0.00    -0.198 NA
BRANCH   9   6
ATOM      3  C   UNL     1      -4.986   1.998  24.980  0.00  0.00    +0.139 A 
ATOM      4  C   UNL     1      -4.906   1.231  25.272  0.00  0.00    +0.037 A 
ATOM      5  C   UNL     1      -4.261   0.769  25.046  0.00  0.00    +0.008 A 
ATOM      6  C   UNL     1      -3.696   1.075  24.528  0.00  0.00    +0.055 A 
ATOM      7  C   UNL     1      -3.777   1.842  24.236  0.00  0.00    +0.008 A 
ATOM      8  C   UNL     1      -4.422   2.304  24.462  0.00  0.00    +0.037 A 
BRANCH   3   2
ATOM      1  C   UNL     1      -5.512   3.156  25.632  0.00  0.00    +0.252 C 
ATOM      2  O   UNL     1      -5.632   2.460  25.206  0.00  0.00    -0.471 OA
ENDBRANCH   3   2
ENDBRANCH   9   6
ENDBRANCH  12  11
BRANCH  16  20
ATOM     20  O   UNL     1       0.907  -0.171  23.272  0.00  0.00    -0.432 OA
BRANCH  20  21
ATOM     21  C   UNL     1       1.669   0.147  23.287  0.00  0.00    +0.421 C 
ATOM     22  O   UNL     1       1.825   0.819  23.739  0.00  0.00    -0.225 OA
ATOM     23  N   UNL     1       2.272  -0.206  22.850  0.00  0.00    -0.170 NA
BRANCH  23  24
ATOM     24  C   UNL     1       3.033   0.112  22.865  0.00  0.00    +0.099 C 
ATOM     25  C   UNL     1       3.204   0.794  22.433  0.00  0.00    +0.022 C 
ATOM     26  C   UNL     1       3.965   1.112  22.448  0.00  0.00    +0.002 C 
ATOM     27  C   UNL     1       4.556   0.748  22.895  0.00  0.00    +0.000 C 
ATOM     28  C   UNL     1       4.385   0.066  23.328  0.00  0.00    +0.002 C 
ATOM     29  C   UNL     1       3.623  -0.251  23.312  0.00  0.00    +0.022 C 
ENDBRANCH  23  24
ENDBRANCH  20  21
ENDBRANCH  16  20
TORSDOF 6
ENDMDL
MODEL 5
REMARK VINA RESULT:      -8.0      2.513      6.830
REMARK  Name = 
REMARK  6 active torsions:
REMARK  status: ('A' for Active; 'I' for Inactive)
REMARK    1  A    between atoms: O_2  and  C_3
REMARK    2  A    between atoms: C_6  and  C_9
REMARK    3  A    between atoms: N_11  and  C_12
REMARK    4  A    between atoms: C_16  and  O_20
REMARK    5  A    between atoms: O_20  and  C_21
REMARK    6  A    between atoms: N_23  and  C_24
REMARK                            x       y       z     vdW  Elec       q    Type
REMARK                         _______ _______ _______ _____ _____    ______ ____
ROOT
ATOM     12  C   UNL     1      -0.105   0.295  23.785  0.00  0.00    +0.155 C 
ATOM     13  C   UNL     1       0.061   0.989  24.198  0.00  0.00    +0.166 C 
ATOM     14  O   UNL     1       0.815   1.242  23.979  0.00  0.00    -0.348 OA
ATOM     15  C   UNL     1       1.115   0.704  23.431  0.00  0.00    +0.186 C 
ATOM     16  C   UNL     1       1.766   0.527  22.956  0.00  0.00    +0.229 C 
ATOM     17  C   UNL     1       1.600  -0.167  22.543  0.00  0.00    +0.188 C 
ATOM     18  O   UNL     1       0.846  -0.420  22.762  0.00  0.00    -0.348 OA
ATOM     19  C   UNL     1       0.546   0.119  23.311  0.00  0.00    +0.168 C 
ENDROOT
BRANCH  12  11
ATOM      9  C   UNL     1      -1.136  -0.302  24.574  0.00  0.00    +0.265 C 
ATOM     10  O   UNL     1      -0.775  -0.017  25.260  0.00  0.00    -0.268 OA
ATOM     11  N   UNL     1      -0.801  -0.146  23.837  0.00  0.00    -0.198 NA
BRANCH   9   6
ATOM      3  C   UNL     1      -3.222  -1.623  24.732  0.00  0.00    +0.139 A 
ATOM      4  C   UNL     1      -2.491  -2.005  24.735  0.00  0.00    +0.037 A 
ATOM      5  C   UNL     1      -1.796  -1.565  24.683  0.00  0.00    +0.008 A 
ATOM      6  C   UNL     1      -1.831  -0.742  24.627  0.00  0.00    +0.055 A 
ATOM      7  C   UNL     1      -2.562  -0.360  24.623  0.00  0.00    +0.008 A 
ATOM      8  C   UNL     1      -3.258  -0.801  24.676  0.00  0.00    +0.037 A 
BRANCH   3   2
ATOM      1  C   UNL     1      -4.094  -2.628  24.208  0.00  0.00    +0.252 C 
ATOM      2  O   UNL     1      -3.918  -2.064  24.784  0.00  0.00    -0.471 OA
ENDBRANCH   3   2
ENDBRANCH   9   6
ENDBRANCH  12  11
BRANCH  16  20
ATOM     20  O   UNL     1       2.462   0.968  22.904  0.00  0.00    -0.432 OA
BRANCH  20  21
ATOM     21  C   UNL     1       3.193   0.586  22.902  0.00  0.00    +0.421 C 
ATOM     22  O   UNL     1       3.425   0.141  22.248  0.00  0.00    -0.225 OA
ATOM     23  N   UNL     1       3.693   0.650  23.555  0.00  0.00    -0.170 NA
BRANCH  23  24
ATOM     24  C   UNL     1       4.425   0.268  23.554  0.00  0.00    +0.099 C 
ATOM     25  C   UNL     1       5.096   0.662  23.281  0.00  0.00    +0.022 C 
ATOM     26  C   UNL     1       5.826   0.281  23.280  0.00  0.00    +0.002 C 
ATOM     27  C   UNL     1       5.887  -0.496  23.551  0.00  0.00    +0.000 C 
ATOM     28  C   UNL     1       5.216  -0.891  23.824  0.00  0.00    +0.002 C 
ATOM     29  C   UNL     1       4.485  -0.509  23.825  0.00  0.00    +0.022 C 
ENDBRANCH  23  24
ENDBRANCH  20  21
ENDBRANCH  16  20
TORSDOF 6
ENDMDL
MODEL 6
REMARK VINA RESULT:      -7.8      1.834      2.607
REMARK  Name = 
REMARK  6 active torsions:
REMARK  status: ('A' for Active; 'I' for Inactive)
REMARK    1  A    between atoms: O_2  and  C_3
REMARK    2  A    between atoms: C_6  and  C_9
REMARK    3  A    between atoms: N_11  and  C_12
REMARK    4  A    between atoms: C_16  and  O_20
REMARK    5  A    between atoms: O_20  and  C_21
REMARK    6  A    between atoms: N_23  and  C_24
REMARK                            x       y       z     vdW  Elec       q    Type
REMARK                         _______ _______ _______ _____ _____    ______ ____
ROOT
ATOM     12  C   UNL     1       1.143   0.385  23.262  0.00  0.00    +0.155 C 
ATOM     13  C   UNL     1       0.748  -0.062  22.692  0.00  0.00    +0.166 C 
ATOM     14  O   UNL     1      -0.058   0.096  22.759  0.00  0.00    -0.348 OA
ATOM     15  C   UNL     1      -0.163   0.640  23.369  0.00  0.00    +0.186 C 
ATOM     16  C   UNL     1      -0.725   1.074  23.789  0.00  0.00    +0.229 C 
ATOM     17  C   UNL     1      -0.330   1.521  24.359  0.00  0.00    +0.188 C 
ATOM     18  O   UNL     1       0.476   1.363  24.292  0.00  0.00    -0.348 OA
ATOM     19  C   UNL     1       0.580   0.818  23.681  0.00  0.00    +0.168 C 
ENDROOT
BRANCH  12  11
ATOM      9  C   UNL     1       2.476   0.203  22.778  0.00  0.00    +0.265 C 
ATOM     10  O   UNL     1       2.177  -0.000  22.035  0.00  0.00    -0.268 OA
ATOM     11  N   UNL     1       1.958   0.396  23.391  0.00  0.00    -0.198 NA
BRANCH   9   6
ATOM      3  C   UNL     1       4.919   0.236  23.163  0.00  0.00    +0.139 A 
ATOM      4  C   UNL     1       4.544   0.896  22.840  0.00  0.00    +0.037 A 
ATOM      5  C   UNL     1       3.730   0.885  22.711  0.00  0.00    +0.008 A 
ATOM      6  C   UNL     1       3.290   0.214  22.906  0.00  0.00    +0.055 A 
ATOM      7  C   UNL     1       3.665  -0.445  23.229  0.00  0.00    +0.008 A 
ATOM      8  C   UNL     1       4.480  -0.435  23.358  0.00  0.00    +0.037 A 
BRANCH   3   2
ATOM      1  C   UNL     1       6.056  -0.157  23.935  0.00  0.00    +0.252 C 
ATOM      2  O   UNL     1       5.735   0.247  23.292  0.00  0.00    -0.471 OA
ENDBRANCH   3   2
ENDBRANCH   9   6
ENDBRANCH  12  11
BRANCH  16  20
ATOM     20  O   UNL     1      -1.540   1.063  23.660  0.00  0.00    -0.432 OA
BRANCH  20  21
ATOM     21  C   UNL     1      -2.045   0.754  24.235  0.00  0.00    +0.421 C 
ATOM     22  O   UNL     1      -2.054   1.078  24.993  0.00  0.00    -0.225 OA
ATOM     23  N   UNL     1      -2.540   0.120  24.052  0.00  0.00    -0.170 NA
BRANCH  23  24
ATOM     24  C   UNL     1      -3.045  -0.189  24.627  0.00  0.00    +0.099 C 
ATOM     25  C   UNL     1      -3.779   0.161  24.763  0.00  0.00    +0.022 C 
ATOM     26  C   UNL     1      -4.283  -0.148  25.337  0.00  0.00    +0.002 C 
ATOM     27  C   UNL     1      -4.053  -0.809  25.776  0.00  0.00    +0.000 C 
ATOM     28  C   UNL     1      -3.318  -1.159  25.640  0.00  0.00    +0.002 C 
ATOM     29  C   UNL     1      -2.814  -0.849  25.065  0.00  0.00    +0.022 C 
ENDBRANCH  23  24
ENDBRANCH  20  21
ENDBRANCH  16  20
TORSDOF 6
ENDMDL
