MODEL 1
REMARK VINA RESULT:      -8.6      0.000      0.000
REMARK  Name = 
REMARK  7 active torsions:
REMARK  status: ('A' for Active; 'I' for Inactive)
REMARK    1  A    between atoms: C_2  and  O_17
REMARK    2  A    between atoms: N_3  and  C_4
REMARK    3  A    between atoms: C_7  and  O_8
REMARK    4  A    between atoms: O_8  and  C_9
REMARK    5  A    between atoms: O_17  and  C_18
REMARK    6  A    between atoms: C_22  and  N_26
REMARK    7  A    between atoms: C_27  and  C_29
REMARK                            x       y       z     vdW  Elec       q    Type
REMARK                         _______ _______ _______ _____ _____    ______ ____
ROOT
ATOM     17  O   UNL     1      -0.552   0.411  23.335  0.00  0.00    -0.432 OA
ENDROOT
BRANCH  17  18
ATOM     18  C   UNL     1       0.242   0.602  23.453  0.00  0.00    +0.229 C 
ATOM     19  C   UNL     1       0.531   1.164  23.984  0.00  0.00    +0.188 C 
ATOM     20  O   UNL     1       1.353   1.174  23.920  0.00  0.00    -0.348 OA
ATOM     21  C   UNL     1       1.572   0.619  23.351  0.00  0.00    +0.168 C 
ATOM     22  C   UNL     1       2.215   0.282  22.958  0.00  0.00    +0.155 C 
ATOM     23  C   UNL     1       1.926  -0.280  22.428  0.00  0.00    +0.166 C 
ATOM     24  O   UNL     1       1.104  -0.290  22.492  0.00  0.00    -0.348 OA
ATOM     25  C   UNL     1       0.885   0.266  23.062  0.00  0.00    +0.186 C 
BRANCH  22  26
ATOM     26  N   UNL     1       3.009   0.473  23.077  0.00  0.00    -0.198 NA
ATOM     27  C   UNL     1       3.565  -0.125  23.190  0.00  0.00    +0.271 C 
ATOM     28  O   UNL     1       3.328  -0.915  23.185  0.00  0.00    -0.268 OA
BRANCH  27  29
ATOM     29  C   UNL     1       4.359   0.066  23.308  0.00  0.00    +0.084 A 
ATOM     30  C   UNL     1       4.708   0.799  23.162  0.00  0.00    +0.012 A 
ATOM     31  C   UNL     1       5.508   0.744  23.357  0.00  0.00    +0.008 A 
ATOM     32  C   UNL     1       5.653  -0.022  23.623  0.00  0.00    +0.036 A 
ATOM     33  S   UNL     1       4.943  -0.441  23.593  0.00  0.00    -0.082 S 
ENDBRANCH  27  29
ENDBRANCH  22  26
ENDBRANCH  17  18
BRANCH  17   2
ATOM      1  O   UNL     1      -1.018   1.762  23.335  0.00  0.00    -0.224 OA
ATOM      2  C   UNL     1      -1.140   0.963  23.507  0.00  0.00    +0.425 C 
ATOM      3  N   UNL     1      -1.849   0.719  23.849  0.00  0.00    -0.142 NA
BRANCH   3   4
ATOM      4  C   UNL     1      -2.437   1.272  24.021  0.00  0.00    +0.077 A 
ATOM      5  C   UNL     1      -2.473   1.619  24.768  0.00  0.00    +0.020 A 
ATOM      6  C   UNL     1      -3.061   2.172  24.939  0.00  0.00    +0.039 A 
ATOM      7  C   UNL     1      -3.614   2.378  24.363  0.00  0.00    +0.145 A 
ATOM     15  C   UNL     1      -3.579   2.031  23.615  0.00  0.00    +0.039 A 
ATOM     16  C   UNL     1      -2.990   1.478  23.444  0.00  0.00    +0.020 A 
BRANCH   7   8
ATOM      8  O   UNL     1      -4.202   2.930  24.534  0.00  0.00    -0.453 OA
BRANCH   8   9
ATOM      9  C   UNL     1      -4.867   2.705  24.967  0.00  0.00    +0.145 A 
ATOM     10  C   UNL     1      -5.425   2.199  24.632  0.00  0.00    +0.037 A 
ATOM     11  C   UNL     1      -6.090   1.974  25.066  0.00  0.00    +0.003 A 
ATOM     12  C   UNL     1      -6.196   2.255  25.834  0.00  0.00    +0.000 A 
ATOM     13  C   UNL     1      -5.637   2.762  26.169  0.00  0.00    +0.003 A 
ATOM     14  C   UNL     1      -4.972   2.987  25.735  0.00  0.00    +0.037 A 
ENDBRANCH   8   9
ENDBRANCH   7   8
ENDBRANCH   3   4
ENDBRANCH  17   2
TORSDOF 7
ENDMDL
MODEL 2
REMARK VINA RESULT:      -8.3      2.161      7.408
REMARK  Name = 
REMARK  7 active torsions:
REMARK  status: ('A' for Active; 'I' for Inactive)
REMARK    1  A    between atoms: C_2  and  O_17
REMARK    2  A    between atoms: N_3  and  C_4
REMARK    3  A    between atoms: C_7  and  O_8
REMARK    4  A    between atoms: O_8  and  C_9
REMARK    5  A    between atoms: O_17  and  C_18
REMARK    6  A    between atoms: C_22  and  N_26
REMARK    7  A    between atoms: C_27  and  C_29
REMARK                            x       y       z     vdW  Elec       q    Type
REMARK                         _______ _______ _______ _____ _____    ______ ____
ROOT
ATOM     17  O   UNL     1      -0.508  -0.337  23.777  0.00  0.00    -0.432 OA
ENDROOT
BRANCH  17  18
ATOM     18  C   UNL     1      -0.934   0.210  24.225  0.00  0.00    +0.229 C 
ATOM     19  C   UNL     1      -0.653   0.624  24.880  0.00  0.00    +0.188 C 
ATOM     20  O   UNL     1      -1.261   1.108  25.155  0.00  0.00    -0.348 OA
ATOM     21  C   UNL     1      -1.918   0.995  24.670  0.00  0.00    +0.168 C 
ATOM     22  C   UNL     1      -2.700   1.223  24.539  0.00  0.00    +0.155 C 
ATOM     23  C   UNL     1      -2.981   0.809  23.883  0.00  0.00    +0.166 C 
ATOM     24  O   UNL     1      -2.372   0.325  23.609  0.00  0.00    -0.348 OA
ATOM     25  C   UNL     1      -1.715   0.439  24.095  0.00  0.00    +0.186 C 
BRANCH  22  26
ATOM     26  N   UNL     1      -3.126   1.770  24.987  0.00  0.00    -0.198 NA
ATOM     27  C   UNL     1      -3.751   2.185  24.644  0.00  0.00    +0.271 C 
ATOM     28  O   UNL     1      -3.951   2.053  23.855  0.00  0.00    -0.268 OA
BRANCH  27  29
ATOM     29  C   UNL     1      -4.178   2.732  25.092  0.00  0.00    +0.084 A 
ATOM     30  C   UNL     1      -3.897   3.456  25.367  0.00  0.00    +0.012 A 
ATOM     31  C   UNL     1      -4.505   3.823  25.788  0.00  0.00    +0.008 A 
ATOM     32  C   UNL     1      -5.162   3.324  25.772  0.00  0.00    +0.036 A 
ATOM     33  S   UNL     1      -4.959   2.650  25.341  0.00  0.00    -0.082 S 
ENDBRANCH  27  29
ENDBRANCH  22  26
ENDBRANCH  17  18
BRANCH  17   2
ATOM      1  O   UNL     1       0.839  -0.476  24.237  0.00  0.00    -0.224 OA
ATOM      2  C   UNL     1       0.302  -0.231  23.659  0.00  0.00    +0.425 C 
ATOM      3  N   UNL     1       0.576   0.117  22.963  0.00  0.00    -0.142 NA
BRANCH   3   4
ATOM      4  C   UNL     1       1.385   0.222  22.844  0.00  0.00    +0.077 A 
ATOM      5  C   UNL     1       1.801  -0.293  22.354  0.00  0.00    +0.020 A 
ATOM      6  C   UNL     1       2.611  -0.188  22.235  0.00  0.00    +0.039 A 
ATOM      7  C   UNL     1       3.004   0.434  22.607  0.00  0.00    +0.145 A 
ATOM     15  C   UNL     1       2.589   0.950  23.099  0.00  0.00    +0.039 A 
ATOM     16  C   UNL     1       1.779   0.844  23.217  0.00  0.00    +0.020 A 
BRANCH   7   8
ATOM      8  O   UNL     1       3.814   0.540  22.489  0.00  0.00    -0.453 OA
BRANCH   8   9
ATOM      9  C   UNL     1       4.353   0.250  23.042  0.00  0.00    +0.145 A 
ATOM     10  C   UNL     1       4.380  -0.558  23.208  0.00  0.00    +0.037 A 
ATOM     11  C   UNL     1       4.919  -0.847  23.761  0.00  0.00    +0.003 A 
ATOM     12  C   UNL     1       5.432  -0.329  24.148  0.00  0.00    +0.000 A 
ATOM     13  C   UNL     1       5.406   0.479  23.982  0.00  0.00    +0.003 A 
ATOM     14  C   UNL     1       4.866   0.768  23.428  0.00  0.00    +0.037 A 
ENDBRANCH   8   9
ENDBRANCH   7   8
ENDBRANCH   3   4
ENDBRANCH  17   2
TORSDOF 7
ENDMDL
MODEL 3
REMARK VINA RESULT:      -5.8     17.120     18.084
REMARK  Name = 
REMARK  7 active torsions:
REMARK  status: ('A' for Active; 'I' for Inactive)
REMARK    1  A    between atoms: C_2  and  O_17
REMARK    2  A    between atoms: N_3  and  C_4
REMARK    3  A    between atoms: C_7  and  O_8
REMARK    4  A    between atoms: O_8  and  C_9
REMARK    5  A    between atoms: O_17  and  C_18
REMARK    6  A    between atoms: C_22  and  N_26
REMARK    7  A    between atoms: C_27  and  C_29
REMARK                            x       y       z     vdW  Elec       q    Type
REMARK                         _______ _______ _______ _____ _____    ______ ____
ROOT
ATOM     17  O   UNL     1      -7.032 -10.222  10.118  0.00  0.00    -0.432 OA
ENDROOT
BRANCH  17  18
ATOM     18  C   UNL     1      -6.215 -10.194  10.232  0.00  0.00    +0.229 C 
ATOM     19  C   UNL     1      -5.656  -9.959   9.674  0.00  0.00    +0.188 C 
ATOM     20  O   UNL     1      -4.910 -10.015  10.022  0.00  0.00    -0.348 OA
ATOM     21  C   UNL     1      -5.008 -10.285  10.795  0.00  0.00    +0.168 C 
ATOM     22  C   UNL     1      -4.609 -10.486  11.488  0.00  0.00    +0.155 C 
ATOM     23  C   UNL     1      -5.169 -10.721  12.046  0.00  0.00    +0.166 C 
ATOM     24  O   UNL     1      -5.914 -10.665  11.698  0.00  0.00    -0.348 OA
ATOM     25  C   UNL     1      -5.815 -10.395  10.925  0.00  0.00    +0.186 C 
BRANCH  22  26
ATOM     26  N   UNL     1      -3.792 -10.458  11.602  0.00  0.00    -0.198 NA
ATOM     27  C   UNL     1      -3.484 -10.413  12.366  0.00  0.00    +0.271 C 
ATOM     28  O   UNL     1      -3.992 -10.397  13.016  0.00  0.00    -0.268 OA
BRANCH  27  29
ATOM     29  C   UNL     1      -2.667 -10.384  12.480  0.00  0.00    +0.084 A 
ATOM     30  C   UNL     1      -2.098 -10.291  11.891  0.00  0.00    +0.012 A 
ATOM     31  C   UNL     1      -1.355 -10.293  12.250  0.00  0.00    +0.008 A 
ATOM     32  C   UNL     1      -1.466 -10.388  13.062  0.00  0.00    +0.036 A 
ATOM     33  S   UNL     1      -2.277 -10.444  13.204  0.00  0.00    -0.082 S 
ENDBRANCH  27  29
ENDBRANCH  22  26
ENDBRANCH  17  18
BRANCH  17   2
ATOM      1  O   UNL     1      -7.280  -9.647   8.833  0.00  0.00    -0.224 OA
ATOM      2  C   UNL     1      -7.404  -9.653   9.650  0.00  0.00    +0.425 C 
ATOM      3  N   UNL     1      -7.898  -9.092   9.996  0.00  0.00    -0.142 NA
BRANCH   3   4
ATOM      4  C   UNL     1      -8.270  -8.523   9.528  0.00  0.00    +0.077 A 
ATOM      5  C   UNL     1      -7.855  -7.854   9.285  0.00  0.00    +0.020 A 
ATOM      6  C   UNL     1      -8.226  -7.285   8.816  0.00  0.00    +0.039 A 
ATOM      7  C   UNL     1      -9.013  -7.386   8.592  0.00  0.00    +0.145 A 
ATOM     15  C   UNL     1      -9.429  -8.056   8.835  0.00  0.00    +0.039 A 
ATOM     16  C   UNL     1      -9.057  -8.625   9.304  0.00  0.00    +0.020 A 
BRANCH   7   8
ATOM      8  O   UNL     1      -9.386  -6.818   8.124  0.00  0.00    -0.453 OA
BRANCH   8   9
ATOM      9  C   UNL     1      -9.669  -6.123   8.465  0.00  0.00    +0.145 A 
ATOM     10  C   UNL     1      -9.187  -5.455   8.501  0.00  0.00    +0.037 A 
ATOM     11  C   UNL     1      -9.471  -4.760   8.843  0.00  0.00    +0.003 A 
ATOM     12  C   UNL     1     -10.237  -4.733   9.148  0.00  0.00    +0.000 A 
ATOM     13  C   UNL     1     -10.720  -5.401   9.112  0.00  0.00    +0.003 A 
ATOM     14  C   UNL     1     -10.435  -6.097   8.770  0.00  0.00    +0.037 A 
ENDBRANCH   8   9
ENDBRANCH   7   8
ENDBRANCH   3   4
ENDBRANCH  17   2
TORSDOF 7
ENDMDL
MODEL 4
REMARK VINA RESULT:      -5.3     15.696     16.629
REMARK  Name = 
REMARK  7 active torsions:
REMARK  status: ('A' for Active; 'I' for Inactive)
REMARK    1  A    between atoms: C_2  and  O_17
REMARK    2  A    between atoms: N_3  and  C_4
REMARK    3  A    between atoms: C_7  and  O_8
REMARK    4  A    between atoms: O_8  and  C_9
REMARK    5  A    between atoms: O_17  and  C_18
REMARK    6  A    between atoms: C_22  and  N_26
REMARK    7  A    between atoms: C_27  and  C_29
REMARK                            x       y       z     vdW  Elec       q    Type
REMARK                         _______ _______ _______ _____ _____    ______ ____
ROOT
ATOM     17  O   UNL     1      -8.797  -9.753  13.353  0.00  0.00    -0.432 OA
ENDROOT
BRANCH  17  18
ATOM     18  C   UNL     1      -8.012  -9.767  13.098  0.00  0.00    +0.229 C 
ATOM     19  C   UNL     1      -7.359  -9.986  13.551  0.00  0.00    +0.188 C 
ATOM     20  O   UNL     1      -6.687  -9.918  13.079  0.00  0.00    -0.348 OA
ATOM     21  C   UNL     1      -6.924  -9.656  12.334  0.00  0.00    +0.168 C 
ATOM     22  C   UNL     1      -6.655  -9.452  11.581  0.00  0.00    +0.155 C 
ATOM     23  C   UNL     1      -7.308  -9.232  11.128  0.00  0.00    +0.166 C 
ATOM     24  O   UNL     1      -7.981  -9.301  11.600  0.00  0.00    -0.348 OA
ATOM     25  C   UNL     1      -7.743  -9.563  12.346  0.00  0.00    +0.186 C 
BRANCH  22  26
ATOM     26  N   UNL     1      -5.870  -9.465  11.326  0.00  0.00    -0.198 NA
ATOM     27  C   UNL     1      -5.689  -9.292  10.540  0.00  0.00    +0.271 C 
ATOM     28  O   UNL     1      -6.291  -9.107  10.008  0.00  0.00    -0.268 OA
BRANCH  27  29
ATOM     29  C   UNL     1      -4.904  -9.305  10.286  0.00  0.00    +0.084 A 
ATOM     30  C   UNL     1      -4.530  -9.931   9.900  0.00  0.00    +0.012 A 
ATOM     31  C   UNL     1      -3.750  -9.707   9.748  0.00  0.00    +0.008 A 
ATOM     32  C   UNL     1      -3.643  -8.944  10.040  0.00  0.00    +0.036 A 
ATOM     33  S   UNL     1      -4.356  -8.696  10.373  0.00  0.00    -0.082 S 
ENDBRANCH  27  29
ENDBRANCH  22  26
ENDBRANCH  17  18
BRANCH  17   2
ATOM      1  O   UNL     1      -8.593 -10.181  14.701  0.00  0.00    -0.224 OA
ATOM      2  C   UNL     1      -8.969  -9.687  14.157  0.00  0.00    +0.425 C 
ATOM      3  N   UNL     1      -9.516  -9.128  14.417  0.00  0.00    -0.142 NA
BRANCH   3   4
ATOM      4  C   UNL     1      -9.689  -9.061  15.221  0.00  0.00    +0.077 A 
ATOM      5  C   UNL     1     -10.350  -9.441  15.535  0.00  0.00    +0.020 A 
ATOM      6  C   UNL     1     -10.522  -9.375  16.339  0.00  0.00    +0.039 A 
ATOM      7  C   UNL     1     -10.032  -8.927  16.830  0.00  0.00    +0.145 A 
ATOM     15  C   UNL     1      -9.370  -8.547  16.516  0.00  0.00    +0.039 A 
ATOM     16  C   UNL     1      -9.199  -8.614  15.712  0.00  0.00    +0.020 A 
BRANCH   7   8
ATOM      8  O   UNL     1     -10.203  -8.860  17.634  0.00  0.00    -0.453 OA
BRANCH   8   9
ATOM      9  C   UNL     1     -10.076  -9.501  18.138  0.00  0.00    +0.145 A 
ATOM     10  C   UNL     1      -9.310  -9.782  18.261  0.00  0.00    +0.037 A 
ATOM     11  C   UNL     1      -9.182 -10.422  18.765  0.00  0.00    +0.003 A 
ATOM     12  C   UNL     1      -9.821 -10.781  19.146  0.00  0.00    +0.000 A 
ATOM     13  C   UNL     1     -10.586 -10.500  19.023  0.00  0.00    +0.003 A 
ATOM     14  C   UNL     1     -10.713  -9.859  18.518  0.00  0.00    +0.037 A 
ENDBRANCH   8   9
ENDBRANCH   7   8
ENDBRANCH   3   4
ENDBRANCH  17   2
TORSDOF 7
ENDMDL
