REMARK  Name = 
REMARK  6 active torsions:
REMARK  status: ('A' for Active; 'I' for Inactive)
REMARK    1  A    between atoms: C_2  and  N_4
REMARK    2  A    between atoms: N_7  and  C_8
REMARK    3  A    between atoms: C_8  and  C_9
REMARK    4  A    between atoms: C_16  and  C_17
REMARK    5  A    between atoms: C_19  and  C_24
REMARK    6  A    between atoms: C_27  and  N_30
REMARK                            x       y       z     vdW  Elec       q    Type
REMARK                         _______ _______ _______ _____ _____    ______ ____
ROOT
ATOM      9  C   UNL     1       1.814  -2.106   0.000  0.00  0.00    +0.079 C 
ATOM     10  C   UNL     1       1.661  -1.343   0.000  0.00  0.00    +0.018 C 
ATOM     11  C   UNL     1       0.923  -1.010   0.000  0.00  0.00    +0.010 C 
ATOM     12  C   UNL     1       0.961  -0.114   0.000  0.00  0.00    +0.018 C 
ATOM     13  C   UNL     1       1.205  -0.720   0.000  0.00  0.00    +0.072 C 
ATOM     14  N   UNL     1       1.065  -1.759   0.000  0.00  0.00    -0.272 NA
ATOM     15  C   UNL     1       0.226  -2.118   0.000  0.00  0.00    +0.078 C 
ATOM     16  C   UNL     1       0.119  -1.362   0.000  0.00  0.00    +0.056 C 
ENDROOT
BRANCH  16  17
ATOM     17  C   UNL     1      -0.602  -0.960   0.000  0.00  0.00    +0.063 A 
ATOM     18  C   UNL     1      -1.310  -1.384   0.000  0.00  0.00    +0.034 A 
ATOM     19  C   UNL     1      -2.030  -0.982   0.000  0.00  0.00    +0.084 A 
ATOM     20  N   UNL     1      -2.043  -0.157   0.000  0.00  0.00    -0.231 NA
ATOM     21  C   UNL     1      -1.335   0.266   0.000  0.00  0.00    +0.139 A 
ATOM     22  C   UNL     1      -1.347   1.091   0.000  0.00  0.00    +0.074 C 
ATOM     23  N   UNL     1      -0.614  -0.136   0.000  0.00  0.00    -0.235 NA
BRANCH  19  24
ATOM     24  C   UNL     1      -2.739  -1.405   0.000  0.00  0.00    +0.018 A 
ATOM     25  C   UNL     1      -2.726  -2.230   0.000  0.00  0.00    +0.003 A 
ATOM     26  C   UNL     1      -3.434  -2.653   0.000  0.00  0.00    +0.015 A 
ATOM     27  C   UNL     1      -4.155  -2.251   0.000  0.00  0.00    +0.048 A 
ATOM     28  C   UNL     1      -4.167  -1.427   0.000  0.00  0.00    +0.015 A 
ATOM     29  C   UNL     1      -3.459  -1.003   0.000  0.00  0.00    +0.003 A 
BRANCH  27  30
ATOM     30  N   UNL     1      -4.863  -2.675   0.000  0.00  0.00    -0.304 N 
ATOM     31  C   UNL     1      -5.584  -2.273   0.000  0.00  0.00    +0.112 C 
ATOM     32  C   UNL     1      -4.851  -3.499   0.000  0.00  0.00    +0.112 C 
ENDBRANCH  27  30
ENDBRANCH  19  24
ENDBRANCH  16  17
BRANCH   9   8
ATOM      8  C   UNL     1       2.324  -2.754   0.000  0.00  0.00    +0.133 C 
BRANCH   8   7
ATOM      4  N   UNL     1       2.223  -4.934   0.000  0.00  0.00    -0.189 NA
ATOM      5  C   UNL     1       2.529  -4.168   0.000  0.00  0.00    +0.339 C 
ATOM      6  O   UNL     1       3.345  -4.050   0.000  0.00  0.00    -0.249 OA
ATOM      7  N   UNL     1       2.018  -3.520   0.000  0.00  0.00    -0.186 NA
BRANCH   4   2
ATOM      1  C   UNL     1       2.427  -6.348   0.000  0.00  0.00    +0.023 C 
ATOM      2  C   UNL     1       2.733  -5.582   0.000  0.00  0.00    +0.097 C 
ATOM      3  C   UNL     1       3.550  -5.464   0.000  0.00  0.00    +0.023 C 
ENDBRANCH   4   2
ENDBRANCH   8   7
ENDBRANCH   9   8
TORSDOF 6
