MODEL 1
REMARK VINA RESULT:     -10.1      0.000      0.000
REMARK  Name = 
REMARK  8 active torsions:
REMARK  status: ('A' for Active; 'I' for Inactive)
REMARK    1  A    between atoms: C_2  and  C_4
REMARK    2  A    between atoms: C_6  and  C_7
REMARK    3  A    between atoms: C_7  and  C_8
REMARK    4  A    between atoms: N_10  and  C_11
REMARK    5  A    between atoms: C_11  and  C_12
REMARK    6  A    between atoms: C_17  and  C_18
REMARK    7  A    between atoms: C_18  and  N_19
REMARK    8  A    between atoms: C_20  and  C_22
REMARK                            x       y       z     vdW  Elec       q    Type
REMARK                         _______ _______ _______ _____ _____    ______ ____
ROOT
ATOM      4  C   UNL     1      -2.878   2.011  24.763  0.00  0.00    +0.006 C 
ATOM      5  C   UNL     1      -2.232   2.489  24.948  0.00  0.00    +0.005 C 
ATOM      6  C   UNL     1      -1.522   2.148  25.192  0.00  0.00    +0.027 C 
ATOM     14  C   UNL     1      -1.458   1.328  25.251  0.00  0.00    -0.048 C 
ATOM     15  C   UNL     1      -0.747   0.986  25.496  0.00  0.00    +0.026 C 
ATOM     16  C   UNL     1      -2.103   0.849  25.066  0.00  0.00    -0.033 C 
ATOM     17  C   UNL     1      -2.814   1.191  24.822  0.00  0.00    +0.043 C 
ENDROOT
BRANCH   4   2
ATOM      1  C   UNL     1      -3.737   2.465  23.716  0.00  0.00    +0.000 C 
ATOM      2  C   UNL     1      -3.588   2.352  24.519  0.00  0.00    +0.000 C 
ATOM      3  C   UNL     1      -4.149   2.581  25.079  0.00  0.00    +0.000 C 
ENDBRANCH   4   2
BRANCH   6   7
ATOM      7  C   UNL     1      -0.876   2.626  25.378  0.00  0.00    +0.091 C 
BRANCH   7   8
ATOM      8  C   UNL     1      -0.719   3.301  24.930  0.00  0.00    +0.243 C 
ATOM      9  O   UNL     1      -0.403   3.228  24.172  0.00  0.00    -0.273 OA
ATOM     10  N   UNL     1      -0.879   4.049  25.240  0.00  0.00    -0.191 NA
BRANCH  10  11
ATOM     11  C   UNL     1      -0.723   4.723  24.793  0.00  0.00    +0.191 C 
BRANCH  11  12
ATOM     12  C   UNL     1      -1.172   5.406  24.904  0.00  0.00    -0.054 C 
ATOM     13  C   UNL     1      -1.619   6.090  25.015  0.00  0.00    -0.012 C 
ENDBRANCH  11  12
ENDBRANCH  10  11
ENDBRANCH   7   8
ENDBRANCH   6   7
BRANCH  17  18
ATOM     18  C   UNL     1      -3.459   0.712  24.637  0.00  0.00    +0.120 C 
BRANCH  18  19
ATOM     19  N   UNL     1      -3.360  -0.105  24.570  0.00  0.00    -0.200 NA
ATOM     20  C   UNL     1      -4.020  -0.601  24.563  0.00  0.00    +0.283 C 
ATOM     21  O   UNL     1      -4.778  -0.281  24.622  0.00  0.00    -0.267 OA
BRANCH  20  22
ATOM     22  C   UNL     1      -3.921  -1.418  24.496  0.00  0.00    +0.136 A 
ATOM     23  N   UNL     1      -3.569  -1.841  25.110  0.00  0.00    -0.239 NA
ATOM     24  C   UNL     1      -3.470  -2.658  25.043  0.00  0.00    +0.099 A 
ATOM     25  C   UNL     1      -3.723  -3.050  24.363  0.00  0.00    +0.021 A 
ATOM     26  C   UNL     1      -4.075  -2.626  23.749  0.00  0.00    +0.003 A 
ATOM     27  C   UNL     1      -4.174  -1.810  23.816  0.00  0.00    +0.024 A 
ENDBRANCH  20  22
ENDBRANCH  18  19
ENDBRANCH  17  18
TORSDOF 8
ENDMDL
MODEL 2
REMARK VINA RESULT:      -9.9      0.926      5.597
REMARK  Name = 
REMARK  8 active torsions:
REMARK  status: ('A' for Active; 'I' for Inactive)
REMARK    1  A    between atoms: C_2  and  C_4
REMARK    2  A    between atoms: C_6  and  C_7
REMARK    3  A    between atoms: C_7  and  C_8
REMARK    4  A    between atoms: N_10  and  C_11
REMARK    5  A    between atoms: C_11  and  C_12
REMARK    6  A    between atoms: C_17  and  C_18
REMARK    7  A    between atoms: C_18  and  N_19
REMARK    8  A    between atoms: C_20  and  C_22
REMARK                            x       y       z     vdW  Elec       q    Type
REMARK                         _______ _______ _______ _____ _____    ______ ____
ROOT
ATOM      4  C   UNL     1      -2.220   0.529  24.962  0.00  0.00    +0.006 C 
ATOM      5  C   UNL     1      -2.862   0.047  24.770  0.00  0.00    +0.005 C 
ATOM      6  C   UNL     1      -3.613   0.374  24.681  0.00  0.00    +0.027 C 
ATOM     14  C   UNL     1      -3.723   1.185  24.784  0.00  0.00    -0.048 C 
ATOM     15  C   UNL     1      -4.476   1.514  24.696  0.00  0.00    +0.026 C 
ATOM     16  C   UNL     1      -3.083   1.668  24.976  0.00  0.00    -0.033 C 
ATOM     17  C   UNL     1      -2.331   1.340  25.065  0.00  0.00    +0.043 C 
ENDROOT
BRANCH   4   2
ATOM      1  C   UNL     1      -0.946   0.191  24.414  0.00  0.00    +0.000 C 
ATOM      2  C   UNL     1      -1.469   0.201  25.050  0.00  0.00    +0.000 C 
ATOM      3  C   UNL     1      -1.241  -0.117  25.777  0.00  0.00    +0.000 C 
ENDBRANCH   4   2
BRANCH   6   7
ATOM      7  C   UNL     1      -4.254  -0.108  24.489  0.00  0.00    +0.091 C 
BRANCH   7   8
ATOM      8  C   UNL     1      -4.139  -0.787  24.037  0.00  0.00    +0.243 C 
ATOM      9  O   UNL     1      -3.981  -0.723  23.230  0.00  0.00    -0.273 OA
ATOM     10  N   UNL     1      -4.182  -1.532  24.390  0.00  0.00    -0.191 NA
BRANCH  10  11
ATOM     11  C   UNL     1      -4.067  -2.211  23.938  0.00  0.00    +0.191 C 
BRANCH  11  12
ATOM     12  C   UNL     1      -3.740  -2.886  24.282  0.00  0.00    -0.054 C 
ATOM     13  C   UNL     1      -3.414  -3.561  24.627  0.00  0.00    -0.012 C 
ENDBRANCH  11  12
ENDBRANCH  10  11
ENDBRANCH   7   8
ENDBRANCH   6   7
BRANCH  17  18
ATOM     18  C   UNL     1      -1.690   1.823  25.257  0.00  0.00    +0.120 C 
BRANCH  18  19
ATOM     19  N   UNL     1      -1.713   2.627  25.076  0.00  0.00    -0.200 NA
ATOM     20  C   UNL     1      -1.208   3.152  25.466  0.00  0.00    +0.283 C 
ATOM     21  O   UNL     1      -0.681   2.871  26.035  0.00  0.00    -0.267 OA
BRANCH  20  22
ATOM     22  C   UNL     1      -1.231   3.957  25.285  0.00  0.00    +0.136 A 
ATOM     23  N   UNL     1      -1.865   4.419  25.540  0.00  0.00    -0.239 NA
ATOM     24  C   UNL     1      -1.888   5.223  25.360  0.00  0.00    +0.099 A 
ATOM     25  C   UNL     1      -1.276   5.566  24.925  0.00  0.00    +0.021 A 
ATOM     26  C   UNL     1      -0.643   5.104  24.670  0.00  0.00    +0.003 A 
ATOM     27  C   UNL     1      -0.620   4.300  24.850  0.00  0.00    +0.024 A 
ENDBRANCH  20  22
ENDBRANCH  18  19
ENDBRANCH  17  18
TORSDOF 8
ENDMDL
MODEL 3
REMARK VINA RESULT:      -9.8      1.394      1.955
REMARK  Name = 
REMARK  8 active torsions:
REMARK  status: ('A' for Active; 'I' for Inactive)
REMARK    1  A    between atoms: C_2  and  C_4
REMARK    2  A    between atoms: C_6  and  C_7
REMARK    3  A    between atoms: C_7  and  C_8
REMARK    4  A    between atoms: N_10  and  C_11
REMARK    5  A    between atoms: C_11  and  C_12
REMARK    6  A    between atoms: C_17  and  C_18
REMARK    7  A    between atoms: C_18  and  N_19
REMARK    8  A    between atoms: C_20  and  C_22
REMARK                            x       y       z     vdW  Elec       q    Type
REMARK                         _______ _______ _______ _____ _____    ______ ____
ROOT
ATOM      4  C   UNL     1      -3.105   1.967  23.783  0.00  0.00    +0.006 C 
ATOM      5  C   UNL     1      -3.160   2.719  24.120  0.00  0.00    +0.005 C 
ATOM      6  C   UNL     1      -3.740   2.877  24.684  0.00  0.00    +0.027 C 
ATOM     14  C   UNL     1      -4.267   2.284  24.912  0.00  0.00    -0.048 C 
ATOM     15  C   UNL     1      -4.848   2.443  25.477  0.00  0.00    +0.026 C 
ATOM     16  C   UNL     1      -4.213   1.533  24.576  0.00  0.00    -0.033 C 
ATOM     17  C   UNL     1      -3.632   1.374  24.011  0.00  0.00    +0.043 C 
ENDROOT
BRANCH   4   2
ATOM      1  C   UNL     1      -1.785   1.534  23.456  0.00  0.00    +0.000 C 
ATOM      2  C   UNL     1      -2.525   1.809  23.220  0.00  0.00    +0.000 C 
ATOM      3  C   UNL     1      -2.686   1.925  22.419  0.00  0.00    +0.000 C 
ENDBRANCH   4   2
BRANCH   6   7
ATOM      7  C   UNL     1      -3.795   3.629  25.021  0.00  0.00    +0.091 C 
BRANCH   7   8
ATOM      8  C   UNL     1      -3.159   3.939  25.443  0.00  0.00    +0.243 C 
ATOM      9  O   UNL     1      -3.030   3.708  26.224  0.00  0.00    -0.273 OA
ATOM     10  N   UNL     1      -2.650   4.481  25.084  0.00  0.00    -0.191 NA
BRANCH  10  11
ATOM     11  C   UNL     1      -2.014   4.792  25.506  0.00  0.00    +0.191 C 
BRANCH  11  12
ATOM     12  C   UNL     1      -1.368   5.113  25.105  0.00  0.00    -0.054 C 
ATOM     13  C   UNL     1      -0.723   5.434  24.704  0.00  0.00    -0.012 C 
ENDBRANCH  11  12
ENDBRANCH  10  11
ENDBRANCH   7   8
ENDBRANCH   6   7
BRANCH  17  18
ATOM     18  C   UNL     1      -3.578   0.623  23.676  0.00  0.00    +0.120 C 
BRANCH  18  19
ATOM     19  N   UNL     1      -3.498  -0.039  24.160  0.00  0.00    -0.200 NA
ATOM     20  C   UNL     1      -3.712  -0.785  23.878  0.00  0.00    +0.283 C 
ATOM     21  O   UNL     1      -4.006  -0.868  23.112  0.00  0.00    -0.267 OA
BRANCH  20  22
ATOM     22  C   UNL     1      -3.632  -1.449  24.363  0.00  0.00    +0.136 A 
ATOM     23  N   UNL     1      -3.404  -1.358  25.151  0.00  0.00    -0.239 NA
ATOM     24  C   UNL     1      -3.324  -2.020  25.635  0.00  0.00    +0.099 A 
ATOM     25  C   UNL     1      -3.471  -2.774  25.332  0.00  0.00    +0.021 A 
ATOM     26  C   UNL     1      -3.698  -2.864  24.545  0.00  0.00    +0.003 A 
ATOM     27  C   UNL     1      -3.779  -2.202  24.060  0.00  0.00    +0.024 A 
ENDBRANCH  20  22
ENDBRANCH  18  19
ENDBRANCH  17  18
TORSDOF 8
ENDMDL
MODEL 4
REMARK VINA RESULT:      -9.8      1.567      1.961
REMARK  Name = 
REMARK  8 active torsions:
REMARK  status: ('A' for Active; 'I' for Inactive)
REMARK    1  A    between atoms: C_2  and  C_4
REMARK    2  A    between atoms: C_6  and  C_7
REMARK    3  A    between atoms: C_7  and  C_8
REMARK    4  A    between atoms: N_10  and  C_11
REMARK    5  A    between atoms: C_11  and  C_12
REMARK    6  A    between atoms: C_17  and  C_18
REMARK    7  A    between atoms: C_18  and  N_19
REMARK    8  A    between atoms: C_20  and  C_22
REMARK                            x       y       z     vdW  Elec       q    Type
REMARK                         _______ _______ _______ _____ _____    ______ ____
ROOT
ATOM      4  C   UNL     1      -4.683   1.757  24.731  0.00  0.00    +0.006 C 
ATOM      5  C   UNL     1      -4.467   2.493  24.426  0.00  0.00    +0.005 C 
ATOM      6  C   UNL     1      -3.797   2.561  23.950  0.00  0.00    +0.027 C 
ATOM     14  C   UNL     1      -3.342   1.894  23.779  0.00  0.00    -0.048 C 
ATOM     15  C   UNL     1      -2.671   1.963  23.302  0.00  0.00    +0.026 C 
ATOM     16  C   UNL     1      -3.558   1.159  24.083  0.00  0.00    -0.033 C 
ATOM     17  C   UNL     1      -4.228   1.090  24.560  0.00  0.00    +0.043 C 
ENDROOT
BRANCH   4   2
ATOM      1  C   UNL     1      -5.291   1.787  26.023  0.00  0.00    +0.000 C 
ATOM      2  C   UNL     1      -5.353   1.688  25.207  0.00  0.00    +0.000 C 
ATOM      3  C   UNL     1      -6.085   1.521  24.866  0.00  0.00    +0.000 C 
ENDBRANCH   4   2
BRANCH   6   7
ATOM      7  C   UNL     1      -3.580   3.297  23.644  0.00  0.00    +0.091 C 
BRANCH   7   8
ATOM      8  C   UNL     1      -3.422   3.925  24.154  0.00  0.00    +0.243 C 
ATOM      9  O   UNL     1      -4.032   4.425  24.395  0.00  0.00    -0.273 OA
ATOM     10  N   UNL     1      -2.653   4.055  24.423  0.00  0.00    -0.191 NA
BRANCH  10  11
ATOM     11  C   UNL     1      -2.494   4.683  24.933  0.00  0.00    +0.191 C 
BRANCH  11  12
ATOM     12  C   UNL     1      -1.718   4.943  25.039  0.00  0.00    -0.054 C 
ATOM     13  C   UNL     1      -0.942   5.202  25.145  0.00  0.00    -0.012 C 
ENDBRANCH  11  12
ENDBRANCH  10  11
ENDBRANCH   7   8
ENDBRANCH   6   7
BRANCH  17  18
ATOM     18  C   UNL     1      -4.444   0.355  24.865  0.00  0.00    +0.120 C 
BRANCH  18  19
ATOM     19  N   UNL     1      -4.100  -0.332  24.563  0.00  0.00    -0.200 NA
ATOM     20  C   UNL     1      -3.949  -0.971  25.063  0.00  0.00    +0.283 C 
ATOM     21  O   UNL     1      -4.141  -0.923  25.864  0.00  0.00    -0.267 OA
BRANCH  20  22
ATOM     22  C   UNL     1      -3.604  -1.659  24.762  0.00  0.00    +0.136 A 
ATOM     23  N   UNL     1      -2.806  -1.814  24.899  0.00  0.00    -0.239 NA
ATOM     24  C   UNL     1      -2.463  -2.500  24.598  0.00  0.00    +0.099 A 
ATOM     25  C   UNL     1      -2.917  -3.032  24.160  0.00  0.00    +0.021 A 
ATOM     26  C   UNL     1      -3.715  -2.876  24.023  0.00  0.00    +0.003 A 
ATOM     27  C   UNL     1      -4.059  -2.190  24.324  0.00  0.00    +0.024 A 
ENDBRANCH  20  22
ENDBRANCH  18  19
ENDBRANCH  17  18
TORSDOF 8
ENDMDL
MODEL 5
REMARK VINA RESULT:      -9.4      1.273      5.392
REMARK  Name = 
REMARK  8 active torsions:
REMARK  status: ('A' for Active; 'I' for Inactive)
REMARK    1  A    between atoms: C_2  and  C_4
REMARK    2  A    between atoms: C_6  and  C_7
REMARK    3  A    between atoms: C_7  and  C_8
REMARK    4  A    between atoms: N_10  and  C_11
REMARK    5  A    between atoms: C_11  and  C_12
REMARK    6  A    between atoms: C_17  and  C_18
REMARK    7  A    between atoms: C_18  and  N_19
REMARK    8  A    between atoms: C_20  and  C_22
REMARK                            x       y       z     vdW  Elec       q    Type
REMARK                         _______ _______ _______ _____ _____    ______ ____
ROOT
ATOM      4  C   UNL     1      -4.306   1.502  24.694  0.00  0.00    +0.006 C 
ATOM      5  C   UNL     1      -4.361   0.774  24.310  0.00  0.00    +0.005 C 
ATOM      6  C   UNL     1      -3.698   0.450  23.942  0.00  0.00    +0.027 C 
ATOM     14  C   UNL     1      -2.979   0.855  23.957  0.00  0.00    -0.048 C 
ATOM     15  C   UNL     1      -2.315   0.531  23.589  0.00  0.00    +0.026 C 
ATOM     16  C   UNL     1      -2.923   1.583  24.341  0.00  0.00    -0.033 C 
ATOM     17  C   UNL     1      -3.587   1.907  24.710  0.00  0.00    +0.043 C 
ENDROOT
BRANCH   4   2
ATOM      1  C   UNL     1      -5.146   1.626  25.842  0.00  0.00    +0.000 C 
ATOM      2  C   UNL     1      -4.969   1.825  25.062  0.00  0.00    +0.000 C 
ATOM      3  C   UNL     1      -5.455   2.349  24.650  0.00  0.00    +0.000 C 
ENDBRANCH   4   2
BRANCH   6   7
ATOM      7  C   UNL     1      -3.752  -0.278  23.558  0.00  0.00    +0.091 C 
BRANCH   7   8
ATOM      8  C   UNL     1      -4.071  -0.929  23.950  0.00  0.00    +0.243 C 
ATOM      9  O   UNL     1      -4.889  -1.013  24.014  0.00  0.00    -0.273 OA
ATOM     10  N   UNL     1      -3.571  -1.498  24.280  0.00  0.00    -0.191 NA
BRANCH  10  11
ATOM     11  C   UNL     1      -3.890  -2.149  24.672  0.00  0.00    +0.191 C 
BRANCH  11  12
ATOM     12  C   UNL     1      -3.391  -2.706  25.020  0.00  0.00    -0.054 C 
ATOM     13  C   UNL     1      -2.891  -3.263  25.368  0.00  0.00    -0.012 C 
ENDBRANCH  11  12
ENDBRANCH  10  11
ENDBRANCH   7   8
ENDBRANCH   6   7
BRANCH  17  18
ATOM     18  C   UNL     1      -3.531   2.635  25.094  0.00  0.00    +0.120 C 
BRANCH  18  19
ATOM     19  N   UNL     1      -2.900   3.139  24.929  0.00  0.00    -0.200 NA
ATOM     20  C   UNL     1      -2.695   3.732  25.466  0.00  0.00    +0.283 C 
ATOM     21  O   UNL     1      -3.123   3.820  26.166  0.00  0.00    -0.267 OA
BRANCH  20  22
ATOM     22  C   UNL     1      -2.063   4.237  25.301  0.00  0.00    +0.136 A 
ATOM     23  N   UNL     1      -1.300   3.932  25.229  0.00  0.00    -0.239 NA
ATOM     24  C   UNL     1      -0.669   4.436  25.065  0.00  0.00    +0.099 A 
ATOM     25  C   UNL     1      -0.800   5.246  24.973  0.00  0.00    +0.021 A 
ATOM     26  C   UNL     1      -1.563   5.550  25.046  0.00  0.00    +0.003 A 
ATOM     27  C   UNL     1      -2.194   5.046  25.210  0.00  0.00    +0.024 A 
ENDBRANCH  20  22
ENDBRANCH  18  19
ENDBRANCH  17  18
TORSDOF 8
ENDMDL
MODEL 6
REMARK VINA RESULT:      -9.0      2.206      4.211
REMARK  Name = 
REMARK  8 active torsions:
REMARK  status: ('A' for Active; 'I' for Inactive)
REMARK    1  A    between atoms: C_2  and  C_4
REMARK    2  A    between atoms: C_6  and  C_7
REMARK    3  A    between atoms: C_7  and  C_8
REMARK    4  A    between atoms: N_10  and  C_11
REMARK    5  A    between atoms: C_11  and  C_12
REMARK    6  A    between atoms: C_17  and  C_18
REMARK    7  A    between atoms: C_18  and  N_19
REMARK    8  A    between atoms: C_20  and  C_22
REMARK                            x       y       z     vdW  Elec       q    Type
REMARK                         _______ _______ _______ _____ _____    ______ ____
ROOT
ATOM      4  C   UNL     1      -2.865  -0.567  24.748  0.00  0.00    +0.006 C 
ATOM      5  C   UNL     1      -2.074  -0.798  24.795  0.00  0.00    +0.005 C 
ATOM      6  C   UNL     1      -1.496  -0.251  25.012  0.00  0.00    +0.027 C 
ATOM     14  C   UNL     1      -1.709   0.527  25.183  0.00  0.00    -0.048 C 
ATOM     15  C   UNL     1      -1.131   1.075  25.401  0.00  0.00    +0.026 C 
ATOM     16  C   UNL     1      -2.500   0.759  25.137  0.00  0.00    -0.033 C 
ATOM     17  C   UNL     1      -3.078   0.211  24.919  0.00  0.00    +0.043 C 
ENDROOT
BRANCH   4   2
ATOM      1  C   UNL     1      -3.768  -1.617  25.097  0.00  0.00    +0.000 C 
ATOM      2  C   UNL     1      -3.442  -1.114  24.531  0.00  0.00    +0.000 C 
ATOM      3  C   UNL     1      -3.694  -1.158  23.746  0.00  0.00    +0.000 C 
ENDBRANCH   4   2
BRANCH   6   7
ATOM      7  C   UNL     1      -0.705  -0.481  25.059  0.00  0.00    +0.091 C 
BRANCH   7   8
ATOM      8  C   UNL     1      -0.330  -0.805  24.400  0.00  0.00    +0.243 C 
ATOM      9  O   UNL     1      -0.458  -1.595  24.200  0.00  0.00    -0.273 OA
ATOM     10  N   UNL     1       0.174  -0.339  23.942  0.00  0.00    -0.191 NA
BRANCH  10  11
ATOM     11  C   UNL     1       0.549  -0.663  23.283  0.00  0.00    +0.191 C 
BRANCH  11  12
ATOM     12  C   UNL     1       1.188  -0.271  22.937  0.00  0.00    -0.054 C 
ATOM     13  C   UNL     1       1.826   0.120  22.591  0.00  0.00    -0.012 C 
ENDBRANCH  11  12
ENDBRANCH  10  11
ENDBRANCH   7   8
ENDBRANCH   6   7
BRANCH  17  18
ATOM     18  C   UNL     1      -3.868   0.443  24.873  0.00  0.00    +0.120 C 
BRANCH  18  19
ATOM     19  N   UNL     1      -4.083   1.213  25.075  0.00  0.00    -0.200 NA
ATOM     20  C   UNL     1      -4.857   1.471  24.948  0.00  0.00    +0.283 C 
ATOM     21  O   UNL     1      -5.415   0.959  24.620  0.00  0.00    -0.267 OA
BRANCH  20  22
ATOM     22  C   UNL     1      -5.073   2.242  25.150  0.00  0.00    +0.136 A 
ATOM     23  N   UNL     1      -4.697   2.882  24.790  0.00  0.00    -0.239 NA
ATOM     24  C   UNL     1      -4.913   3.652  24.992  0.00  0.00    +0.099 A 
ATOM     25  C   UNL     1      -5.505   3.782  25.553  0.00  0.00    +0.021 A 
ATOM     26  C   UNL     1      -5.880   3.142  25.911  0.00  0.00    +0.003 A 
ATOM     27  C   UNL     1      -5.665   2.372  25.710  0.00  0.00    +0.024 A 
ENDBRANCH  20  22
ENDBRANCH  18  19
ENDBRANCH  17  18
TORSDOF 8
ENDMDL
MODEL 7
REMARK VINA RESULT:      -8.9      2.651      4.109
REMARK  Name = 
REMARK  8 active torsions:
REMARK  status: ('A' for Active; 'I' for Inactive)
REMARK    1  A    between atoms: C_2  and  C_4
REMARK    2  A    between atoms: C_6  and  C_7
REMARK    3  A    between atoms: C_7  and  C_8
REMARK    4  A    between atoms: N_10  and  C_11
REMARK    5  A    between atoms: C_11  and  C_12
REMARK    6  A    between atoms: C_17  and  C_18
REMARK    7  A    between atoms: C_18  and  N_19
REMARK    8  A    between atoms: C_20  and  C_22
REMARK                            x       y       z     vdW  Elec       q    Type
REMARK                         _______ _______ _______ _____ _____    ______ ____
ROOT
ATOM      4  C   UNL     1      -2.106   3.365  24.863  0.00  0.00    +0.006 C 
ATOM      5  C   UNL     1      -2.887   3.626  24.815  0.00  0.00    +0.005 C 
ATOM      6  C   UNL     1      -3.401   3.294  24.263  0.00  0.00    +0.027 C 
ATOM     14  C   UNL     1      -3.135   2.699  23.757  0.00  0.00    -0.048 C 
ATOM     15  C   UNL     1      -3.649   2.367  23.204  0.00  0.00    +0.026 C 
ATOM     16  C   UNL     1      -2.354   2.437  23.804  0.00  0.00    -0.033 C 
ATOM     17  C   UNL     1      -1.840   2.770  24.357  0.00  0.00    +0.043 C 
ENDROOT
BRANCH   4   2
ATOM      1  C   UNL     1      -1.509   3.353  26.160  0.00  0.00    +0.000 C 
ATOM      2  C   UNL     1      -1.592   3.697  25.415  0.00  0.00    +0.000 C 
ATOM      3  C   UNL     1      -1.162   4.374  25.223  0.00  0.00    +0.000 C 
ENDBRANCH   4   2
BRANCH   6   7
ATOM      7  C   UNL     1      -4.182   3.556  24.215  0.00  0.00    +0.091 C 
BRANCH   7   8
ATOM      8  C   UNL     1      -4.645   3.600  24.896  0.00  0.00    +0.243 C 
ATOM      9  O   UNL     1      -4.642   4.287  25.353  0.00  0.00    -0.273 OA
ATOM     10  N   UNL     1      -5.112   2.958  25.120  0.00  0.00    -0.191 NA
BRANCH  10  11
ATOM     11  C   UNL     1      -5.575   3.002  25.801  0.00  0.00    +0.191 C 
BRANCH  11  12
ATOM     12  C   UNL     1      -5.974   2.333  26.074  0.00  0.00    -0.054 C 
ATOM     13  C   UNL     1      -6.371   1.663  26.346  0.00  0.00    -0.012 C 
ENDBRANCH  11  12
ENDBRANCH  10  11
ENDBRANCH   7   8
ENDBRANCH   6   7
BRANCH  17  18
ATOM     18  C   UNL     1      -1.059   2.507  24.404  0.00  0.00    +0.120 C 
BRANCH  18  19
ATOM     19  N   UNL     1      -0.873   1.731  24.194  0.00  0.00    -0.200 NA
ATOM     20  C   UNL     1      -0.083   1.501  24.125  0.00  0.00    +0.283 C 
ATOM     21  O   UNL     1       0.519   2.047  24.266  0.00  0.00    -0.267 OA
BRANCH  20  22
ATOM     22  C   UNL     1       0.104   0.725  23.916  0.00  0.00    +0.136 A 
ATOM     23  N   UNL     1       0.633   0.580  23.300  0.00  0.00    -0.239 NA
ATOM     24  C   UNL     1       0.819  -0.196  23.091  0.00  0.00    +0.099 A 
ATOM     25  C   UNL     1       0.477  -0.826  23.498  0.00  0.00    +0.021 A 
ATOM     26  C   UNL     1      -0.052  -0.681  24.113  0.00  0.00    +0.003 A 
ATOM     27  C   UNL     1      -0.239   0.094  24.322  0.00  0.00    +0.024 A 
ENDBRANCH  20  22
ENDBRANCH  18  19
ENDBRANCH  17  18
TORSDOF 8
ENDMDL
MODEL 8
REMARK VINA RESULT:      -8.5      2.333      4.064
REMARK  Name = 
REMARK  8 active torsions:
REMARK  status: ('A' for Active; 'I' for Inactive)
REMARK    1  A    between atoms: C_2  and  C_4
REMARK    2  A    between atoms: C_6  and  C_7
REMARK    3  A    between atoms: C_7  and  C_8
REMARK    4  A    between atoms: N_10  and  C_11
REMARK    5  A    between atoms: C_11  and  C_12
REMARK    6  A    between atoms: C_17  and  C_18
REMARK    7  A    between atoms: C_18  and  N_19
REMARK    8  A    between atoms: C_20  and  C_22
REMARK                            x       y       z     vdW  Elec       q    Type
REMARK                         _______ _______ _______ _____ _____    ______ ____
ROOT
ATOM      4  C   UNL     1      -0.832   1.988  24.624  0.00  0.00    +0.006 C 
ATOM      5  C   UNL     1      -0.300   1.387  24.434  0.00  0.00    +0.005 C 
ATOM      6  C   UNL     1      -0.566   0.611  24.347  0.00  0.00    +0.027 C 
ATOM     14  C   UNL     1      -1.366   0.436  24.449  0.00  0.00    -0.048 C 
ATOM     15  C   UNL     1      -1.633  -0.340  24.361  0.00  0.00    +0.026 C 
ATOM     16  C   UNL     1      -1.899   1.036  24.638  0.00  0.00    -0.033 C 
ATOM     17  C   UNL     1      -1.632   1.813  24.726  0.00  0.00    +0.043 C 
ENDROOT
BRANCH   4   2
ATOM      1  C   UNL     1      -0.539   3.266  24.058  0.00  0.00    +0.000 C 
ATOM      2  C   UNL     1      -0.566   2.763  24.711  0.00  0.00    +0.000 C 
ATOM      3  C   UNL     1      -0.326   3.036  25.452  0.00  0.00    +0.000 C 
ENDBRANCH   4   2
BRANCH   6   7
ATOM      7  C   UNL     1      -0.034   0.010  24.157  0.00  0.00    +0.091 C 
BRANCH   7   8
ATOM      8  C   UNL     1       0.376   0.031  23.442  0.00  0.00    +0.243 C 
ATOM      9  O   UNL     1      -0.040   0.033  22.729  0.00  0.00    -0.273 OA
ATOM     10  N   UNL     1       1.201   0.051  23.438  0.00  0.00    -0.191 NA
BRANCH  10  11
ATOM     11  C   UNL     1       1.610   0.073  22.723  0.00  0.00    +0.191 C 
BRANCH  11  12
ATOM     12  C   UNL     1       2.421   0.223  22.715  0.00  0.00    -0.054 C 
ATOM     13  C   UNL     1       3.232   0.373  22.707  0.00  0.00    -0.012 C 
ENDBRANCH  11  12
ENDBRANCH  10  11
ENDBRANCH   7   8
ENDBRANCH   6   7
BRANCH  17  18
ATOM     18  C   UNL     1      -2.165   2.413  24.915  0.00  0.00    +0.120 C 
BRANCH  18  19
ATOM     19  N   UNL     1      -2.963   2.235  25.023  0.00  0.00    -0.200 NA
ATOM     20  C   UNL     1      -3.519   2.844  25.067  0.00  0.00    +0.283 C 
ATOM     21  O   UNL     1      -3.277   3.629  25.002  0.00  0.00    -0.267 OA
BRANCH  20  22
ATOM     22  C   UNL     1      -4.318   2.666  25.175  0.00  0.00    +0.136 A 
ATOM     23  N   UNL     1      -4.711   2.929  25.851  0.00  0.00    -0.239 NA
ATOM     24  C   UNL     1      -5.509   2.751  25.959  0.00  0.00    +0.099 A 
ATOM     25  C   UNL     1      -5.914   2.311  25.391  0.00  0.00    +0.021 A 
ATOM     26  C   UNL     1      -5.521   2.048  24.716  0.00  0.00    +0.003 A 
ATOM     27  C   UNL     1      -4.724   2.225  24.607  0.00  0.00    +0.024 A 
ENDBRANCH  20  22
ENDBRANCH  18  19
ENDBRANCH  17  18
TORSDOF 8
ENDMDL
