REMARK  Name = 
REMARK  9 active torsions:
REMARK  status: ('A' for Active; 'I' for Inactive)
REMARK    1  A    between atoms: C_4  and  C_7
REMARK    2  A    between atoms: C_12  and  N_29
REMARK    3  A    between atoms: C_14  and  C_15
REMARK    4  A    between atoms: N_17  and  C_18
REMARK    5  A    between atoms: C_18  and  C_19
REMARK    6  A    between atoms: C_18  and  C_26
REMARK    7  A    between atoms: C_19  and  C_20
REMARK    8  A    between atoms: N_29  and  S_30
REMARK    9  A    between atoms: S_30  and  C_33
REMARK                            x       y       z     vdW  Elec       q    Type
REMARK                         _______ _______ _______ _____ _____    ______ ____
ROOT
ATOM      7  C   UNL     1       2.934  -5.711   0.000  0.00  0.00    +0.268 C 
ATOM      8  O   UNL     1       2.599  -6.465   0.000  0.00  0.00    -0.268 OA
ATOM      9  N   UNL     1       3.755  -5.625   0.000  0.00  0.00    -0.268 N 
ATOM     10  C   UNL     1       4.090  -4.871   0.000  0.00  0.00    +0.096 C 
ATOM     11  C   UNL     1       4.911  -4.785   0.000  0.00  0.00    +0.041 C 
ATOM     12  C   UNL     1       5.396  -5.452   0.000  0.00  0.00    +0.102 C 
ATOM     13  C   UNL     1       5.060  -6.206   0.000  0.00  0.00    +0.049 C 
ATOM     14  C   UNL     1       4.239  -6.292   0.000  0.00  0.00    +0.155 C 
ENDROOT
BRANCH   7   4
ATOM      1  C   UNL     1       2.037  -2.949   0.000  0.00  0.00    +0.059 C 
ATOM      2  C   UNL     1       2.037  -3.774   0.000  0.00  0.00    +0.089 A 
ATOM      3  N   UNL     1       2.704  -4.259   0.000  0.00  0.00    -0.238 NA
ATOM      4  C   UNL     1       2.449  -5.044   0.000  0.00  0.00    +0.141 A 
ATOM      5  C   UNL     1       1.624  -5.044   0.000  0.00  0.00    +0.060 A 
ATOM      6  S   UNL     1       1.369  -4.259   0.000  0.00  0.00    -0.070 S 
ENDBRANCH   7   4
BRANCH  14  15
ATOM     15  C   UNL     1       3.904  -7.046   0.000  0.00  0.00    +0.260 C 
ATOM     16  O   UNL     1       4.389  -7.713   0.000  0.00  0.00    -0.272 OA
ATOM     17  N   UNL     1       3.083  -7.132   0.000  0.00  0.00    -0.196 NA
BRANCH  17  18
ATOM     18  C   UNL     1       2.748  -7.886   0.000  0.00  0.00    +0.179 C 
BRANCH  18  26
ATOM     26  C   UNL     1       3.233  -8.553   0.000  0.00  0.00    +0.281 C 
ATOM     27  N   UNL     1       4.053  -8.467   0.000  0.00  0.00    -0.086 NA
ATOM     28  O   UNL     1       2.897  -9.307   0.000  0.00  0.00    -0.270 OA
ENDBRANCH  18  26
BRANCH  18  19
ATOM     19  C   UNL     1       1.927  -7.972   0.000  0.00  0.00    +0.057 C 
BRANCH  19  20
ATOM     20  C   UNL     1       1.592  -8.726   0.000  0.00  0.00    -0.020 A 
ATOM     21  C   UNL     1       2.077  -9.393   0.000  0.00  0.00    -0.004 A 
ATOM     22  C   UNL     1       1.741 -10.147   0.000  0.00  0.00    -0.000 A 
ATOM     23  C   UNL     1       0.921 -10.233   0.000  0.00  0.00    -0.000 A 
ATOM     24  C   UNL     1       0.436  -9.566   0.000  0.00  0.00    -0.000 A 
ATOM     25  C   UNL     1       0.771  -8.812   0.000  0.00  0.00    -0.004 A 
ENDBRANCH  19  20
ENDBRANCH  18  19
ENDBRANCH  17  18
ENDBRANCH  14  15
BRANCH  12  29
ATOM     29  N   UNL     1       6.216  -5.366   0.000  0.00  0.00    -0.079 NA
BRANCH  29  30
ATOM     30  S   UNL     1       6.552  -4.612   0.000  0.00  0.00    +0.082 S 
ATOM     31  O   UNL     1       7.305  -4.948   0.000  0.00  0.00    -0.151 OA
ATOM     32  O   UNL     1       5.798  -4.277   0.000  0.00  0.00    -0.151 OA
BRANCH  30  33
ATOM     33  C   UNL     1       6.887  -3.859   0.000  0.00  0.00    +0.153 A 
ATOM     34  C   UNL     1       6.475  -3.144   0.000  0.00  0.00    +0.027 A 
ATOM     35  C   UNL     1       7.027  -2.531   0.000  0.00  0.00    +0.009 A 
ATOM     36  C   UNL     1       7.780  -2.867   0.000  0.00  0.00    +0.037 A 
ATOM     37  S   UNL     1       7.694  -3.687   0.000  0.00  0.00    -0.067 S 
ENDBRANCH  30  33
ENDBRANCH  29  30
ENDBRANCH  12  29
TORSDOF 9
