MODEL 1
REMARK VINA RESULT:     -10.1      0.000      0.000
REMARK  Name = 
REMARK  6 active torsions:
REMARK  status: ('A' for Active; 'I' for Inactive)
REMARK    1  A    between atoms: C_2  and  C_4
REMARK    2  A    between atoms: C_4  and  C_5
REMARK    3  A    between atoms: C_5  and  N_6
REMARK    4  A    between atoms: C_7  and  C_9
REMARK    5  A    between atoms: C_11  and  N_12
REMARK    6  A    between atoms: C_13  and  C_15
REMARK                            x       y       z     vdW  Elec       q    Type
REMARK                         _______ _______ _______ _____ _____    ______ ____
ROOT
ATOM      9  C   UNL     1      -4.222   2.809  24.945  0.00  0.00    +0.033 C 
ATOM     10  C   UNL     1      -4.179   2.015  24.727  0.00  0.00    -0.002 C 
ATOM     11  C   UNL     1      -4.748   1.482  24.998  0.00  0.00    +0.150 C 
ATOM     20  C   UNL     1      -5.359   1.743  25.487  0.00  0.00    +0.206 C 
ATOM     21  O   UNL     1      -5.927   1.211  25.757  0.00  0.00    -0.218 OA
ATOM     22  C   UNL     1      -5.401   2.538  25.705  0.00  0.00    +0.189 C 
ATOM     23  O   UNL     1      -6.013   2.800  26.194  0.00  0.00    -0.220 OA
ATOM     24  C   UNL     1      -4.833   3.071  25.434  0.00  0.00    +0.066 C 
ENDROOT
BRANCH   9   7
ATOM      6  N   UNL     1      -3.040   3.580  25.173  0.00  0.00    -0.201 NA
ATOM      7  C   UNL     1      -3.653   3.343  24.674  0.00  0.00    +0.261 C 
ATOM      8  O   UNL     1      -3.697   3.637  23.906  0.00  0.00    -0.269 OA
BRANCH   6   5
ATOM      5  C   UNL     1      -2.471   4.113  24.902  0.00  0.00    +0.125 C 
BRANCH   5   4
ATOM      4  C   UNL     1      -1.867   4.362  25.406  0.00  0.00    +0.112 C 
BRANCH   4   2
ATOM      1  N   UNL     1      -0.560   4.442  24.835  0.00  0.00    -0.088 NA
ATOM      2  C   UNL     1      -1.243   4.814  25.109  0.00  0.00    +0.263 C 
ATOM      3  O   UNL     1      -1.302   5.635  25.087  0.00  0.00    -0.272 OA
ENDBRANCH   4   2
ENDBRANCH   5   4
ENDBRANCH   6   5
ENDBRANCH   9   7
BRANCH  11  12
ATOM     12  N   UNL     1      -4.705   0.687  24.780  0.00  0.00    -0.196 NA
ATOM     13  C   UNL     1      -4.019   0.256  24.926  0.00  0.00    +0.271 C 
ATOM     14  O   UNL     1      -3.373   0.618  25.291  0.00  0.00    -0.268 OA
BRANCH  13  15
ATOM     15  C   UNL     1      -3.976  -0.539  24.708  0.00  0.00    +0.084 A 
ATOM     16  C   UNL     1      -4.253  -0.863  24.002  0.00  0.00    +0.012 A 
ATOM     17  C   UNL     1      -4.098  -1.673  24.015  0.00  0.00    +0.008 A 
ATOM     18  C   UNL     1      -3.724  -1.849  24.728  0.00  0.00    +0.036 A 
ATOM     19  S   UNL     1      -3.649  -1.148  25.158  0.00  0.00    -0.082 S 
ENDBRANCH  13  15
ENDBRANCH  11  12
TORSDOF 6
ENDMDL
MODEL 2
REMARK VINA RESULT:      -9.7      1.773      4.634
REMARK  Name = 
REMARK  6 active torsions:
REMARK  status: ('A' for Active; 'I' for Inactive)
REMARK    1  A    between atoms: C_2  and  C_4
REMARK    2  A    between atoms: C_4  and  C_5
REMARK    3  A    between atoms: C_5  and  N_6
REMARK    4  A    between atoms: C_7  and  C_9
REMARK    5  A    between atoms: C_11  and  N_12
REMARK    6  A    between atoms: C_13  and  C_15
REMARK                            x       y       z     vdW  Elec       q    Type
REMARK                         _______ _______ _______ _____ _____    ______ ____
ROOT
ATOM      9  C   UNL     1      -4.114   1.225  24.605  0.00  0.00    +0.033 C 
ATOM     10  C   UNL     1      -3.579   1.852  24.568  0.00  0.00    -0.002 C 
ATOM     11  C   UNL     1      -3.790   2.591  24.872  0.00  0.00    +0.150 C 
ATOM     20  C   UNL     1      -4.533   2.701  25.212  0.00  0.00    +0.206 C 
ATOM     21  O   UNL     1      -4.743   3.438  25.515  0.00  0.00    -0.218 OA
ATOM     22  C   UNL     1      -5.067   2.072  25.248  0.00  0.00    +0.189 C 
ATOM     23  O   UNL     1      -5.811   2.182  25.588  0.00  0.00    -0.220 OA
ATOM     24  C   UNL     1      -4.857   1.335  24.945  0.00  0.00    +0.066 C 
ENDROOT
BRANCH   9   7
ATOM      6  N   UNL     1      -3.861  -0.168  24.802  0.00  0.00    -0.201 NA
ATOM      7  C   UNL     1      -3.903   0.486  24.301  0.00  0.00    +0.261 C 
ATOM      8  O   UNL     1      -3.736   0.403  23.499  0.00  0.00    -0.269 OA
BRANCH   6   5
ATOM      5  C   UNL     1      -3.651  -0.907  24.499  0.00  0.00    +0.125 C 
BRANCH   5   4
ATOM      4  C   UNL     1      -3.563  -1.551  25.006  0.00  0.00    +0.112 C 
BRANCH   4   2
ATOM      1  N   UNL     1      -2.542  -2.518  24.758  0.00  0.00    -0.088 NA
ATOM      2  C   UNL     1      -3.331  -2.284  24.706  0.00  0.00    +0.263 C 
ATOM      3  O   UNL     1      -3.886  -2.780  24.354  0.00  0.00    -0.272 OA
ENDBRANCH   4   2
ENDBRANCH   5   4
ENDBRANCH   6   5
ENDBRANCH   9   7
BRANCH  11  12
ATOM     12  N   UNL     1      -3.255   3.218  24.835  0.00  0.00    -0.196 NA
ATOM     13  C   UNL     1      -2.516   3.151  25.193  0.00  0.00    +0.271 C 
ATOM     14  O   UNL     1      -2.309   2.457  25.587  0.00  0.00    -0.268 OA
BRANCH  13  15
ATOM     15  C   UNL     1      -1.981   3.780  25.156  0.00  0.00    +0.084 A 
ATOM     16  C   UNL     1      -2.148   4.569  25.329  0.00  0.00    +0.012 A 
ATOM     17  C   UNL     1      -1.457   5.005  25.219  0.00  0.00    +0.008 A 
ATOM     18  C   UNL     1      -0.863   4.486  24.979  0.00  0.00    +0.036 A 
ATOM     19  S   UNL     1      -1.187   3.728  24.940  0.00  0.00    -0.082 S 
ENDBRANCH  13  15
ENDBRANCH  11  12
TORSDOF 6
ENDMDL
MODEL 3
REMARK VINA RESULT:      -8.8      2.476      4.313
REMARK  Name = 
REMARK  6 active torsions:
REMARK  status: ('A' for Active; 'I' for Inactive)
REMARK    1  A    between atoms: C_2  and  C_4
REMARK    2  A    between atoms: C_4  and  C_5
REMARK    3  A    between atoms: C_5  and  N_6
REMARK    4  A    between atoms: C_7  and  C_9
REMARK    5  A    between atoms: C_11  and  N_12
REMARK    6  A    between atoms: C_13  and  C_15
REMARK                            x       y       z     vdW  Elec       q    Type
REMARK                         _______ _______ _______ _____ _____    ______ ____
ROOT
ATOM      9  C   UNL     1      -0.985   2.887  25.135  0.00  0.00    +0.033 C 
ATOM     10  C   UNL     1      -1.789   2.819  25.306  0.00  0.00    -0.002 C 
ATOM     11  C   UNL     1      -2.254   3.497  25.381  0.00  0.00    +0.150 C 
ATOM     20  C   UNL     1      -1.914   4.243  25.285  0.00  0.00    +0.206 C 
ATOM     21  O   UNL     1      -2.378   4.920  25.359  0.00  0.00    -0.218 OA
ATOM     22  C   UNL     1      -1.110   4.310  25.113  0.00  0.00    +0.189 C 
ATOM     23  O   UNL     1      -0.770   5.057  25.017  0.00  0.00    -0.220 OA
ATOM     24  C   UNL     1      -0.645   3.633  25.039  0.00  0.00    +0.066 C 
ENDROOT
BRANCH   9   7
ATOM      6  N   UNL     1      -0.539   1.772  24.361  0.00  0.00    -0.201 NA
ATOM      7  C   UNL     1      -0.520   2.209  25.060  0.00  0.00    +0.261 C 
ATOM      8  O   UNL     1      -0.037   1.969  25.684  0.00  0.00    -0.269 OA
BRANCH   6   5
ATOM      5  C   UNL     1      -0.074   1.094  24.286  0.00  0.00    +0.125 C 
BRANCH   5   4
ATOM      4  C   UNL     1      -0.154   0.611  23.622  0.00  0.00    +0.112 C 
BRANCH   4   2
ATOM      1  N   UNL     1       0.971  -0.075  23.068  0.00  0.00    -0.088 NA
ATOM      2  C   UNL     1       0.303  -0.073  23.553  0.00  0.00    +0.263 C 
ATOM      3  O   UNL     1       0.092  -0.753  23.967  0.00  0.00    -0.272 OA
ENDBRANCH   4   2
ENDBRANCH   5   4
ENDBRANCH   6   5
ENDBRANCH   9   7
BRANCH  11  12
ATOM     12  N   UNL     1      -3.058   3.428  25.552  0.00  0.00    -0.196 NA
ATOM     13  C   UNL     1      -3.564   3.063  25.015  0.00  0.00    +0.271 C 
ATOM     14  O   UNL     1      -3.268   2.765  24.305  0.00  0.00    -0.268 OA
BRANCH  13  15
ATOM     15  C   UNL     1      -4.369   2.994  25.187  0.00  0.00    +0.084 A 
ATOM     16  C   UNL     1      -4.831   3.556  25.576  0.00  0.00    +0.012 A 
ATOM     17  C   UNL     1      -5.600   3.261  25.629  0.00  0.00    +0.008 A 
ATOM     18  C   UNL     1      -5.612   2.517  25.273  0.00  0.00    +0.036 A 
ATOM     19  S   UNL     1      -4.851   2.352  25.000  0.00  0.00    -0.082 S 
ENDBRANCH  13  15
ENDBRANCH  11  12
TORSDOF 6
ENDMDL
MODEL 4
REMARK VINA RESULT:      -8.6      2.590      3.591
REMARK  Name = 
REMARK  6 active torsions:
REMARK  status: ('A' for Active; 'I' for Inactive)
REMARK    1  A    between atoms: C_2  and  C_4
REMARK    2  A    between atoms: C_4  and  C_5
REMARK    3  A    between atoms: C_5  and  N_6
REMARK    4  A    between atoms: C_7  and  C_9
REMARK    5  A    between atoms: C_11  and  N_12
REMARK    6  A    between atoms: C_13  and  C_15
REMARK                            x       y       z     vdW  Elec       q    Type
REMARK                         _______ _______ _______ _____ _____    ______ ____
ROOT
ATOM      9  C   UNL     1      -0.600   1.246  24.909  0.00  0.00    +0.033 C 
ATOM     10  C   UNL     1      -1.089   0.602  25.073  0.00  0.00    -0.002 C 
ATOM     11  C   UNL     1      -0.969  -0.117  24.685  0.00  0.00    +0.150 C 
ATOM     20  C   UNL     1      -0.359  -0.191  24.134  0.00  0.00    +0.206 C 
ATOM     21  O   UNL     1      -0.239  -0.909  23.747  0.00  0.00    -0.218 OA
ATOM     22  C   UNL     1       0.129   0.454  23.970  0.00  0.00    +0.189 C 
ATOM     23  O   UNL     1       0.739   0.379  23.418  0.00  0.00    -0.220 OA
ATOM     24  C   UNL     1       0.009   1.172  24.357  0.00  0.00    +0.066 C 
ENDROOT
BRANCH   9   7
ATOM      6  N   UNL     1      -1.110   2.581  24.910  0.00  0.00    -0.201 NA
ATOM      7  C   UNL     1      -0.721   1.965  25.297  0.00  0.00    +0.261 C 
ATOM      8  O   UNL     1      -0.453   2.066  26.069  0.00  0.00    -0.269 OA
BRANCH   6   5
ATOM      5  C   UNL     1      -1.230   3.300  25.298  0.00  0.00    +0.125 C 
BRANCH   5   4
ATOM      4  C   UNL     1      -1.614   3.918  24.909  0.00  0.00    +0.112 C 
BRANCH   4   2
ATOM      1  N   UNL     1      -2.455   4.634  25.816  0.00  0.00    -0.088 NA
ATOM      2  C   UNL     1      -1.798   4.611  25.319  0.00  0.00    +0.263 C 
ATOM      3  O   UNL     1      -1.324   5.280  25.230  0.00  0.00    -0.272 OA
ENDBRANCH   4   2
ENDBRANCH   5   4
ENDBRANCH   6   5
ENDBRANCH   9   7
BRANCH  11  12
ATOM     12  N   UNL     1      -1.458  -0.760  24.850  0.00  0.00    -0.196 NA
ATOM     13  C   UNL     1      -2.260  -0.726  24.666  0.00  0.00    +0.271 C 
ATOM     14  O   UNL     1      -2.576  -0.048  24.318  0.00  0.00    -0.268 OA
BRANCH  13  15
ATOM     15  C   UNL     1      -2.749  -1.371  24.831  0.00  0.00    +0.084 A 
ATOM     16  C   UNL     1      -2.879  -2.019  24.339  0.00  0.00    +0.012 A 
ATOM     17  C   UNL     1      -3.404  -2.528  24.720  0.00  0.00    +0.008 A 
ATOM     18  C   UNL     1      -3.598  -2.194  25.448  0.00  0.00    +0.036 A 
ATOM     19  S   UNL     1      -3.193  -1.478  25.518  0.00  0.00    -0.082 S 
ENDBRANCH  13  15
ENDBRANCH  11  12
TORSDOF 6
ENDMDL
MODEL 5
REMARK VINA RESULT:      -8.6      1.840      3.052
REMARK  Name = 
REMARK  6 active torsions:
REMARK  status: ('A' for Active; 'I' for Inactive)
REMARK    1  A    between atoms: C_2  and  C_4
REMARK    2  A    between atoms: C_4  and  C_5
REMARK    3  A    between atoms: C_5  and  N_6
REMARK    4  A    between atoms: C_7  and  C_9
REMARK    5  A    between atoms: C_11  and  N_12
REMARK    6  A    between atoms: C_13  and  C_15
REMARK                            x       y       z     vdW  Elec       q    Type
REMARK                         _______ _______ _______ _____ _____    ______ ____
ROOT
ATOM      9  C   UNL     1      -2.576   1.665  24.620  0.00  0.00    +0.033 C 
ATOM     10  C   UNL     1      -2.827   0.900  24.443  0.00  0.00    -0.002 C 
ATOM     11  C   UNL     1      -2.306   0.265  24.527  0.00  0.00    +0.150 C 
ATOM     20  C   UNL     1      -1.535   0.397  24.789  0.00  0.00    +0.206 C 
ATOM     21  O   UNL     1      -1.015  -0.237  24.874  0.00  0.00    -0.218 OA
ATOM     22  C   UNL     1      -1.285   1.163  24.966  0.00  0.00    +0.189 C 
ATOM     23  O   UNL     1      -0.512   1.295  25.228  0.00  0.00    -0.220 OA
ATOM     24  C   UNL     1      -1.805   1.797  24.881  0.00  0.00    +0.066 C 
ENDROOT
BRANCH   9   7
ATOM      6  N   UNL     1      -3.583   2.521  25.164  0.00  0.00    -0.201 NA
ATOM      7  C   UNL     1      -3.097   2.300  24.535  0.00  0.00    +0.261 C 
ATOM      8  O   UNL     1      -3.133   2.712  23.822  0.00  0.00    -0.269 OA
BRANCH   6   5
ATOM      5  C   UNL     1      -4.104   3.156  25.080  0.00  0.00    +0.125 C 
BRANCH   5   4
ATOM      4  C   UNL     1      -4.501   3.454  25.739  0.00  0.00    +0.112 C 
BRANCH   4   2
ATOM      1  N   UNL     1      -5.841   3.030  25.996  0.00  0.00    -0.088 NA
ATOM      2  C   UNL     1      -5.314   3.592  25.702  0.00  0.00    +0.263 C 
ATOM      3  O   UNL     1      -5.598   4.292  25.373  0.00  0.00    -0.272 OA
ENDBRANCH   4   2
ENDBRANCH   5   4
ENDBRANCH   6   5
ENDBRANCH   9   7
BRANCH  11  12
ATOM     12  N   UNL     1      -2.557  -0.500  24.350  0.00  0.00    -0.196 NA
ATOM     13  C   UNL     1      -3.183  -0.836  24.767  0.00  0.00    +0.271 C 
ATOM     14  O   UNL     1      -3.560  -0.407  25.363  0.00  0.00    -0.268 OA
BRANCH  13  15
ATOM     15  C   UNL     1      -3.435  -1.602  24.590  0.00  0.00    +0.084 A 
ATOM     16  C   UNL     1      -3.938  -1.816  23.973  0.00  0.00    +0.012 A 
ATOM     17  C   UNL     1      -4.041  -2.635  24.000  0.00  0.00    +0.008 A 
ATOM     18  C   UNL     1      -3.600  -2.925  24.633  0.00  0.00    +0.036 A 
ATOM     19  S   UNL     1      -3.225  -2.287  24.998  0.00  0.00    -0.082 S 
ENDBRANCH  13  15
ENDBRANCH  11  12
TORSDOF 6
ENDMDL
MODEL 6
REMARK VINA RESULT:      -8.6      2.848      5.726
REMARK  Name = 
REMARK  6 active torsions:
REMARK  status: ('A' for Active; 'I' for Inactive)
REMARK    1  A    between atoms: C_2  and  C_4
REMARK    2  A    between atoms: C_4  and  C_5
REMARK    3  A    between atoms: C_5  and  N_6
REMARK    4  A    between atoms: C_7  and  C_9
REMARK    5  A    between atoms: C_11  and  N_12
REMARK    6  A    between atoms: C_13  and  C_15
REMARK                            x       y       z     vdW  Elec       q    Type
REMARK                         _______ _______ _______ _____ _____    ______ ____
ROOT
ATOM      9  C   UNL     1      -1.049   0.182  24.905  0.00  0.00    +0.033 C 
ATOM     10  C   UNL     1      -1.142   0.972  25.122  0.00  0.00    -0.002 C 
ATOM     11  C   UNL     1      -0.644   1.549  24.803  0.00  0.00    +0.150 C 
ATOM     20  C   UNL     1      -0.054   1.334  24.269  0.00  0.00    +0.206 C 
ATOM     21  O   UNL     1       0.443   1.910  23.951  0.00  0.00    -0.218 OA
ATOM     22  C   UNL     1       0.039   0.543  24.052  0.00  0.00    +0.189 C 
ATOM     23  O   UNL     1       0.630   0.329  23.517  0.00  0.00    -0.220 OA
ATOM     24  C   UNL     1      -0.458  -0.033  24.370  0.00  0.00    +0.066 C 
ENDROOT
BRANCH   9   7
ATOM      6  N   UNL     1      -2.148  -0.720  24.762  0.00  0.00    -0.201 NA
ATOM      7  C   UNL     1      -1.547  -0.395  25.223  0.00  0.00    +0.261 C 
ATOM      8  O   UNL     1      -1.443  -0.645  26.001  0.00  0.00    -0.269 OA
BRANCH   6   5
ATOM      5  C   UNL     1      -2.646  -1.297  25.080  0.00  0.00    +0.125 C 
BRANCH   5   4
ATOM      4  C   UNL     1      -3.379  -1.446  24.732  0.00  0.00    +0.112 C 
BRANCH   4   2
ATOM      1  N   UNL     1      -4.014  -2.476  23.973  0.00  0.00    -0.088 NA
ATOM      2  C   UNL     1      -3.656  -2.221  24.671  0.00  0.00    +0.263 C 
ATOM      3  O   UNL     1      -3.576  -2.739  25.307  0.00  0.00    -0.272 OA
ENDBRANCH   4   2
ENDBRANCH   5   4
ENDBRANCH   6   5
ENDBRANCH   9   7
BRANCH  11  12
ATOM     12  N   UNL     1      -0.738   2.339  25.020  0.00  0.00    -0.196 NA
ATOM     13  C   UNL     1      -1.421   2.747  24.807  0.00  0.00    +0.271 C 
ATOM     14  O   UNL     1      -2.012   2.366  24.376  0.00  0.00    -0.268 OA
BRANCH  13  15
ATOM     15  C   UNL     1      -1.514   3.538  25.024  0.00  0.00    +0.084 A 
ATOM     16  C   UNL     1      -0.982   4.149  24.871  0.00  0.00    +0.012 A 
ATOM     17  C   UNL     1      -1.295   4.845  25.185  0.00  0.00    +0.008 A 
ATOM     18  C   UNL     1      -2.020   4.664  25.532  0.00  0.00    +0.036 A 
ATOM     19  S   UNL     1      -2.156   3.855  25.433  0.00  0.00    -0.082 S 
ENDBRANCH  13  15
ENDBRANCH  11  12
TORSDOF 6
ENDMDL
MODEL 7
REMARK VINA RESULT:      -8.4      2.282      3.812
REMARK  Name = 
REMARK  6 active torsions:
REMARK  status: ('A' for Active; 'I' for Inactive)
REMARK    1  A    between atoms: C_2  and  C_4
REMARK    2  A    between atoms: C_4  and  C_5
REMARK    3  A    between atoms: C_5  and  N_6
REMARK    4  A    between atoms: C_7  and  C_9
REMARK    5  A    between atoms: C_11  and  N_12
REMARK    6  A    between atoms: C_13  and  C_15
REMARK                            x       y       z     vdW  Elec       q    Type
REMARK                         _______ _______ _______ _____ _____    ______ ____
ROOT
ATOM      9  C   UNL     1      -1.906   3.226  25.319  0.00  0.00    +0.033 C 
ATOM     10  C   UNL     1      -1.693   2.437  25.427  0.00  0.00    -0.002 C 
ATOM     11  C   UNL     1      -0.982   2.156  25.113  0.00  0.00    +0.150 C 
ATOM     20  C   UNL     1      -0.487   2.664  24.692  0.00  0.00    +0.206 C 
ATOM     21  O   UNL     1       0.222   2.383  24.379  0.00  0.00    -0.218 OA
ATOM     22  C   UNL     1      -0.702   3.454  24.585  0.00  0.00    +0.189 C 
ATOM     23  O   UNL     1      -0.207   3.962  24.164  0.00  0.00    -0.220 OA
ATOM     24  C   UNL     1      -1.411   3.735  24.898  0.00  0.00    +0.066 C 
ENDROOT
BRANCH   9   7
ATOM      6  N   UNL     1      -3.333   3.294  25.285  0.00  0.00    -0.201 NA
ATOM      7  C   UNL     1      -2.616   3.507  25.633  0.00  0.00    +0.261 C 
ATOM      8  O   UNL     1      -2.609   4.001  26.293  0.00  0.00    -0.269 OA
BRANCH   6   5
ATOM      5  C   UNL     1      -4.043   3.575  25.599  0.00  0.00    +0.125 C 
BRANCH   5   4
ATOM      4  C   UNL     1      -4.761   3.355  25.257  0.00  0.00    +0.112 C 
BRANCH   4   2
ATOM      1  N   UNL     1      -5.781   2.828  26.108  0.00  0.00    -0.088 NA
ATOM      2  C   UNL     1      -5.465   3.456  25.675  0.00  0.00    +0.263 C 
ATOM      3  O   UNL     1      -5.852   4.183  25.661  0.00  0.00    -0.272 OA
ENDBRANCH   4   2
ENDBRANCH   5   4
ENDBRANCH   6   5
ENDBRANCH   9   7
BRANCH  11  12
ATOM     12  N   UNL     1      -0.769   1.366  25.221  0.00  0.00    -0.196 NA
ATOM     13  C   UNL     1      -1.219   0.767  24.878  0.00  0.00    +0.271 C 
ATOM     14  O   UNL     1      -1.883   0.955  24.428  0.00  0.00    -0.268 OA
BRANCH  13  15
ATOM     15  C   UNL     1      -1.004  -0.023  24.986  0.00  0.00    +0.084 A 
ATOM     16  C   UNL     1      -1.138  -0.473  25.664  0.00  0.00    +0.012 A 
ATOM     17  C   UNL     1      -0.835  -1.230  25.532  0.00  0.00    +0.008 A 
ATOM     18  C   UNL     1      -0.515  -1.246  24.773  0.00  0.00    +0.036 A 
ATOM     19  S   UNL     1      -0.619  -0.500  24.435  0.00  0.00    -0.082 S 
ENDBRANCH  13  15
ENDBRANCH  11  12
TORSDOF 6
ENDMDL
