REMARK  Name = 
REMARK  5 active torsions:
REMARK  status: ('A' for Active; 'I' for Inactive)
REMARK    1  A    between atoms: C_2  and  N_4
REMARK    2  A    between atoms: N_7  and  C_8
REMARK    3  A    between atoms: C_8  and  C_9
REMARK    4  A    between atoms: C_11  and  C_12
REMARK    5  A    between atoms: C_16  and  N_17
REMARK                            x       y       z     vdW  Elec       q    Type
REMARK                         _______ _______ _______ _____ _____    ______ ____
ROOT
ATOM      9  C   UNL     1       8.534  -1.649   0.000  0.00  0.00    +0.154 C 
ATOM     10  O   UNL     1       8.621  -0.829   0.000  0.00  0.00    -0.350 OA
ATOM     11  C   UNL     1       9.428  -0.657   0.000  0.00  0.00    +0.180 C 
ATOM     14  C   UNL     1       9.840  -1.372   0.000  0.00  0.00    +0.198 C 
ATOM     15  O   UNL     1      10.661  -1.458   0.000  0.00  0.00    -0.219 OA
ATOM     16  C   UNL     1       9.288  -1.985   0.000  0.00  0.00    +0.120 C 
ENDROOT
BRANCH  16  17
ATOM     17  N   UNL     1       9.460  -2.792   0.000  0.00  0.00    -0.267 NA
ATOM     18  C   UNL     1      10.244  -3.047   0.000  0.00  0.00    +0.090 C 
ATOM     19  C   UNL     1      10.416  -3.854   0.000  0.00  0.00    +0.090 C 
ATOM     20  N   UNL     1       9.803  -4.406   0.000  0.00  0.00    -0.269 NA
ATOM     21  C   UNL     1       9.974  -5.213   0.000  0.00  0.00    +0.090 C 
ATOM     22  C   UNL     1       9.018  -4.151   0.000  0.00  0.00    +0.090 C 
ATOM     23  C   UNL     1       8.846  -3.344   0.000  0.00  0.00    +0.090 C 
ENDBRANCH  16  17
BRANCH  11  12
ATOM     12  C   UNL     1       9.763   0.097   0.000  0.00  0.00    +0.214 C 
ATOM     13  O   UNL     1      10.584   0.183   0.000  0.00  0.00    -0.218 OA
ENDBRANCH  11  12
BRANCH   9   8
ATOM      8  C   UNL     1       7.820  -2.062   0.000  0.00  0.00    +0.148 C 
BRANCH   8   7
ATOM      4  N   UNL     1       5.676  -1.649   0.000  0.00  0.00    -0.189 NA
ATOM      5  C   UNL     1       6.391  -2.062   0.000  0.00  0.00    +0.339 C 
ATOM      6  O   UNL     1       6.391  -2.887   0.000  0.00  0.00    -0.249 OA
ATOM      7  N   UNL     1       7.105  -1.649   0.000  0.00  0.00    -0.185 NA
BRANCH   4   2
ATOM      1  C   UNL     1       4.247  -1.649   0.000  0.00  0.00    +0.023 C 
ATOM      2  C   UNL     1       4.962  -2.062   0.000  0.00  0.00    +0.097 C 
ATOM      3  C   UNL     1       4.962  -2.887   0.000  0.00  0.00    +0.023 C 
ENDBRANCH   4   2
ENDBRANCH   8   7
ENDBRANCH   9   8
TORSDOF 5
