MODEL 1
REMARK VINA RESULT:     -13.2      0.000      0.000
REMARK  Name = 
REMARK  7 active torsions:
REMARK  status: ('A' for Active; 'I' for Inactive)
REMARK    1  A    between atoms: C_2  and  C_3
REMARK    2  A    between atoms: C_5  and  C_6
REMARK    3  A    between atoms: C_6  and  N_7
REMARK    4  A    between atoms: C_8  and  C_10
REMARK    5  A    between atoms: C_18  and  N_21
REMARK    6  A    between atoms: N_24  and  C_27
REMARK    7  A    between atoms: C_29  and  C_33
REMARK                            x       y       z     vdW  Elec       q    Type
REMARK                         _______ _______ _______ _____ _____    ______ ____
ROOT
ATOM      3  C   UNL     1      -5.304   2.972  25.301  0.00  0.00    +0.180 C 
ATOM      4  O   UNL     1      -4.506   3.160  25.389  0.00  0.00    -0.350 OA
ATOM      5  C   UNL     1      -4.066   2.475  25.252  0.00  0.00    +0.154 C 
ATOM     18  C   UNL     1      -4.593   1.864  25.080  0.00  0.00    +0.120 C 
ATOM     19  C   UNL     1      -5.358   2.171  25.110  0.00  0.00    +0.198 C 
ATOM     20  O   UNL     1      -6.055   1.751  24.972  0.00  0.00    -0.219 OA
ENDROOT
BRANCH  18  21
ATOM     21  N   UNL     1      -4.390   1.083  24.907  0.00  0.00    -0.267 NA
ATOM     22  C   UNL     1      -4.415   0.511  25.501  0.00  0.00    +0.094 C 
ATOM     23  C   UNL     1      -4.212  -0.271  25.330  0.00  0.00    +0.108 C 
ATOM     24  N   UNL     1      -3.985  -0.479  24.564  0.00  0.00    -0.305 N 
ATOM     25  C   UNL     1      -3.960   0.094  23.971  0.00  0.00    +0.108 C 
ATOM     26  C   UNL     1      -4.163   0.875  24.143  0.00  0.00    +0.094 C 
BRANCH  24  27
ATOM     27  C   UNL     1      -3.782  -1.260  24.392  0.00  0.00    +0.048 A 
ATOM     28  C   UNL     1      -3.035  -1.546  24.594  0.00  0.00    +0.018 A 
ATOM     29  C   UNL     1      -2.833  -2.328  24.422  0.00  0.00    +0.073 A 
ATOM     30  C   UNL     1      -3.377  -2.823  24.049  0.00  0.00    +0.004 A 
ATOM     31  C   UNL     1      -4.124  -2.536  23.847  0.00  0.00    +0.001 A 
ATOM     32  C   UNL     1      -4.326  -1.755  24.019  0.00  0.00    +0.015 A 
BRANCH  29  33
ATOM     33  C   UNL     1      -2.086  -2.615  24.623  0.00  0.00    +0.419 C 
ATOM     34  F   UNL     1      -1.340  -2.902  24.825  0.00  0.00    -0.166 F 
ATOM     35  F   UNL     1      -1.799  -2.387  23.885  0.00  0.00    -0.166 F 
ATOM     36  F   UNL     1      -2.373  -2.843  25.362  0.00  0.00    -0.166 F 
ENDBRANCH  29  33
ENDBRANCH  24  27
ENDBRANCH  18  21
BRANCH   3   2
ATOM      1  O   UNL     1      -5.823   4.223  25.756  0.00  0.00    -0.218 OA
ATOM      2  C   UNL     1      -5.937   3.493  25.388  0.00  0.00    +0.214 C 
ENDBRANCH   3   2
BRANCH   5   6
ATOM      6  C   UNL     1      -3.244   2.413  25.283  0.00  0.00    +0.146 C 
BRANCH   6   7
ATOM      7  N   UNL     1      -2.774   3.056  25.071  0.00  0.00    -0.199 NA
ATOM      8  C   UNL     1      -1.981   3.082  25.302  0.00  0.00    +0.266 C 
ATOM      9  O   UNL     1      -1.661   2.464  25.744  0.00  0.00    -0.268 OA
BRANCH   8  10
ATOM     10  C   UNL     1      -1.511   3.726  25.090  0.00  0.00    +0.069 A 
ATOM     11  C   UNL     1      -1.751   4.492  25.278  0.00  0.00    +0.047 A 
ATOM     12  C   UNL     1      -1.280   5.136  25.066  0.00  0.00    +0.196 A 
ATOM     13  O   UNL     1      -1.520   5.902  25.254  0.00  0.00    -0.287 OA
ATOM     14  C   UNL     1      -0.569   5.013  24.665  0.00  0.00    +0.043 A 
ATOM     15  C   UNL     1      -0.329   4.246  24.477  0.00  0.00    +0.015 A 
ATOM     16  C   UNL     1      -0.800   3.603  24.689  0.00  0.00    +0.062 A 
ATOM     17 CL   UNL     1      -0.560   2.836  24.501  0.00  0.00    -0.082 Cl
ENDBRANCH   8  10
ENDBRANCH   6   7
ENDBRANCH   5   6
TORSDOF 7
ENDMDL
MODEL 2
REMARK VINA RESULT:     -12.2      3.269      6.317
REMARK  Name = 
REMARK  7 active torsions:
REMARK  status: ('A' for Active; 'I' for Inactive)
REMARK    1  A    between atoms: C_2  and  C_3
REMARK    2  A    between atoms: C_5  and  C_6
REMARK    3  A    between atoms: C_6  and  N_7
REMARK    4  A    between atoms: C_8  and  C_10
REMARK    5  A    between atoms: C_18  and  N_21
REMARK    6  A    between atoms: N_24  and  C_27
REMARK    7  A    between atoms: C_29  and  C_33
REMARK                            x       y       z     vdW  Elec       q    Type
REMARK                         _______ _______ _______ _____ _____    ______ ____
ROOT
ATOM      3  C   UNL     1       0.531  -0.179  23.531  0.00  0.00    +0.180 C 
ATOM      4  O   UNL     1      -0.082  -0.582  23.909  0.00  0.00    -0.350 OA
ATOM      5  C   UNL     1      -0.573  -0.023  24.265  0.00  0.00    +0.154 C 
ATOM     18  C   UNL     1      -0.264   0.726  24.108  0.00  0.00    +0.120 C 
ATOM     19  C   UNL     1       0.418   0.630  23.654  0.00  0.00    +0.198 C 
ATOM     20  O   UNL     1       0.903   1.236  23.373  0.00  0.00    -0.219 OA
ENDROOT
BRANCH  18  21
ATOM     21  N   UNL     1      -0.581   1.444  24.360  0.00  0.00    -0.267 NA
ATOM     22  C   UNL     1      -1.086   1.869  23.864  0.00  0.00    +0.094 C 
ATOM     23  C   UNL     1      -1.403   2.588  24.116  0.00  0.00    +0.108 C 
ATOM     24  N   UNL     1      -1.216   2.881  24.864  0.00  0.00    -0.305 N 
ATOM     25  C   UNL     1      -0.713   2.457  25.360  0.00  0.00    +0.108 C 
ATOM     26  C   UNL     1      -0.395   1.738  25.108  0.00  0.00    +0.094 C 
BRANCH  24  27
ATOM     27  C   UNL     1      -1.534   3.601  25.116  0.00  0.00    +0.048 A 
ATOM     28  C   UNL     1      -2.265   3.617  25.498  0.00  0.00    +0.018 A 
ATOM     29  C   UNL     1      -2.582   4.336  25.750  0.00  0.00    +0.073 A 
ATOM     30  C   UNL     1      -2.168   5.038  25.620  0.00  0.00    +0.004 A 
ATOM     31  C   UNL     1      -1.437   5.021  25.238  0.00  0.00    +0.001 A 
ATOM     32  C   UNL     1      -1.120   4.302  24.986  0.00  0.00    +0.015 A 
BRANCH  29  33
ATOM     33  C   UNL     1      -3.314   4.354  26.131  0.00  0.00    +0.419 C 
ATOM     34  F   UNL     1      -4.044   4.371  26.514  0.00  0.00    -0.166 F 
ATOM     35  F   UNL     1      -3.696   4.340  25.401  0.00  0.00    -0.166 F 
ATOM     36  F   UNL     1      -2.931   4.368  26.862  0.00  0.00    -0.166 F 
ENDBRANCH  29  33
ENDBRANCH  24  27
ENDBRANCH  18  21
BRANCH   3   2
ATOM      1  O   UNL     1       1.052  -0.687  22.301  0.00  0.00    -0.218 OA
ATOM      2  C   UNL     1       1.147  -0.522  23.105  0.00  0.00    +0.214 C 
ENDBRANCH   3   2
BRANCH   5   6
ATOM      6  C   UNL     1      -1.254  -0.185  24.703  0.00  0.00    +0.146 C 
BRANCH   6   7
ATOM      7  N   UNL     1      -1.818  -0.709  24.409  0.00  0.00    -0.199 NA
ATOM      8  C   UNL     1      -2.476  -0.906  24.866  0.00  0.00    +0.266 C 
ATOM      9  O   UNL     1      -2.570  -0.578  25.617  0.00  0.00    -0.268 OA
BRANCH   8  10
ATOM     10  C   UNL     1      -3.040  -1.432  24.571  0.00  0.00    +0.069 A 
ATOM     11  C   UNL     1      -2.923  -2.244  24.640  0.00  0.00    +0.047 A 
ATOM     12  C   UNL     1      -3.488  -2.770  24.346  0.00  0.00    +0.196 A 
ATOM     13  O   UNL     1      -3.371  -3.583  24.415  0.00  0.00    -0.287 OA
ATOM     14  C   UNL     1      -4.170  -2.480  23.981  0.00  0.00    +0.043 A 
ATOM     15  C   UNL     1      -4.287  -1.666  23.912  0.00  0.00    +0.015 A 
ATOM     16  C   UNL     1      -3.722  -1.142  24.207  0.00  0.00    +0.062 A 
ATOM     17 CL   UNL     1      -3.839  -0.328  24.138  0.00  0.00    -0.082 Cl
ENDBRANCH   8  10
ENDBRANCH   6   7
ENDBRANCH   5   6
TORSDOF 7
ENDMDL
MODEL 3
REMARK VINA RESULT:     -11.8      1.573      3.532
REMARK  Name = 
REMARK  7 active torsions:
REMARK  status: ('A' for Active; 'I' for Inactive)
REMARK    1  A    between atoms: C_2  and  C_3
REMARK    2  A    between atoms: C_5  and  C_6
REMARK    3  A    between atoms: C_6  and  N_7
REMARK    4  A    between atoms: C_8  and  C_10
REMARK    5  A    between atoms: C_18  and  N_21
REMARK    6  A    between atoms: N_24  and  C_27
REMARK    7  A    between atoms: C_29  and  C_33
REMARK                            x       y       z     vdW  Elec       q    Type
REMARK                         _______ _______ _______ _____ _____    ______ ____
ROOT
ATOM      3  C   UNL     1      -0.864   3.352  24.865  0.00  0.00    +0.180 C 
ATOM      4  O   UNL     1      -1.634   3.427  24.578  0.00  0.00    -0.350 OA
ATOM      5  C   UNL     1      -1.946   2.669  24.483  0.00  0.00    +0.154 C 
ATOM     18  C   UNL     1      -1.369   2.125  24.712  0.00  0.00    +0.120 C 
ATOM     19  C   UNL     1      -0.701   2.547  24.948  0.00  0.00    +0.198 C 
ATOM     20  O   UNL     1       0.008   2.221  25.220  0.00  0.00    -0.219 OA
ENDROOT
BRANCH  18  21
ATOM     21  N   UNL     1      -1.447   1.304  24.706  0.00  0.00    -0.267 NA
ATOM     22  C   UNL     1      -1.620   0.901  25.405  0.00  0.00    +0.094 C 
ATOM     23  C   UNL     1      -1.698   0.080  25.400  0.00  0.00    +0.108 C 
ATOM     24  N   UNL     1      -1.603  -0.338  24.694  0.00  0.00    -0.305 N 
ATOM     25  C   UNL     1      -1.431   0.064  23.996  0.00  0.00    +0.108 C 
ATOM     26  C   UNL     1      -1.353   0.886  24.001  0.00  0.00    +0.094 C 
BRANCH  24  27
ATOM     27  C   UNL     1      -1.681  -1.160  24.688  0.00  0.00    +0.048 A 
ATOM     28  C   UNL     1      -2.430  -1.503  24.646  0.00  0.00    +0.018 A 
ATOM     29  C   UNL     1      -2.508  -2.324  24.641  0.00  0.00    +0.073 A 
ATOM     30  C   UNL     1      -1.837  -2.803  24.677  0.00  0.00    +0.004 A 
ATOM     31  C   UNL     1      -1.088  -2.459  24.719  0.00  0.00    +0.001 A 
ATOM     32  C   UNL     1      -1.010  -1.638  24.725  0.00  0.00    +0.015 A 
BRANCH  29  33
ATOM     33  C   UNL     1      -3.257  -2.668  24.598  0.00  0.00    +0.419 C 
ATOM     34  F   UNL     1      -4.006  -3.012  24.558  0.00  0.00    -0.166 F 
ATOM     35  F   UNL     1      -3.242  -2.601  23.777  0.00  0.00    -0.166 F 
ATOM     36  F   UNL     1      -3.272  -2.735  25.421  0.00  0.00    -0.166 F 
ENDBRANCH  29  33
ENDBRANCH  24  27
ENDBRANCH  18  21
BRANCH   3   2
ATOM      1  O   UNL     1      -0.616   4.752  25.006  0.00  0.00    -0.218 OA
ATOM      2  C   UNL     1      -0.349   3.971  25.039  0.00  0.00    +0.214 C 
ENDBRANCH   3   2
BRANCH   5   6
ATOM      6  C   UNL     1      -2.702   2.488  24.208  0.00  0.00    +0.146 C 
BRANCH   6   7
ATOM      7  N   UNL     1      -3.359   2.625  24.686  0.00  0.00    -0.199 NA
ATOM      8  C   UNL     1      -4.119   2.571  24.368  0.00  0.00    +0.266 C 
ATOM      9  O   UNL     1      -4.221   2.380  23.573  0.00  0.00    -0.268 OA
BRANCH   8  10
ATOM     10  C   UNL     1      -4.777   2.709  24.848  0.00  0.00    +0.069 A 
ATOM     11  C   UNL     1      -4.956   3.476  25.092  0.00  0.00    +0.047 A 
ATOM     12  C   UNL     1      -5.613   3.614  25.572  0.00  0.00    +0.196 A 
ATOM     13  O   UNL     1      -5.792   4.380  25.817  0.00  0.00    -0.287 OA
ATOM     14  C   UNL     1      -6.092   2.983  25.806  0.00  0.00    +0.043 A 
ATOM     15  C   UNL     1      -5.913   2.216  25.560  0.00  0.00    +0.015 A 
ATOM     16  C   UNL     1      -5.256   2.079  25.081  0.00  0.00    +0.062 A 
ATOM     17 CL   UNL     1      -5.077   1.311  24.836  0.00  0.00    -0.082 Cl
ENDBRANCH   8  10
ENDBRANCH   6   7
ENDBRANCH   5   6
TORSDOF 7
ENDMDL
MODEL 4
REMARK VINA RESULT:     -11.5      2.388      3.764
REMARK  Name = 
REMARK  7 active torsions:
REMARK  status: ('A' for Active; 'I' for Inactive)
REMARK    1  A    between atoms: C_2  and  C_3
REMARK    2  A    between atoms: C_5  and  C_6
REMARK    3  A    between atoms: C_6  and  N_7
REMARK    4  A    between atoms: C_8  and  C_10
REMARK    5  A    between atoms: C_18  and  N_21
REMARK    6  A    between atoms: N_24  and  C_27
REMARK    7  A    between atoms: C_29  and  C_33
REMARK                            x       y       z     vdW  Elec       q    Type
REMARK                         _______ _______ _______ _____ _____    ______ ____
ROOT
ATOM      3  C   UNL     1       1.163   1.087  23.566  0.00  0.00    +0.180 C 
ATOM      4  O   UNL     1       0.947   1.654  24.125  0.00  0.00    -0.350 OA
ATOM      5  C   UNL     1       0.253   1.400  24.491  0.00  0.00    +0.154 C 
ATOM     18  C   UNL     1       0.039   0.676  24.159  0.00  0.00    +0.120 C 
ATOM     19  C   UNL     1       0.601   0.482  23.586  0.00  0.00    +0.198 C 
ATOM     20  O   UNL     1       0.602  -0.197  23.117  0.00  0.00    -0.219 OA
ENDROOT
BRANCH  18  21
ATOM     21  N   UNL     1      -0.621   0.225  24.362  0.00  0.00    -0.267 NA
ATOM     22  C   UNL     1      -0.552  -0.375  24.925  0.00  0.00    +0.094 C 
ATOM     23  C   UNL     1      -1.212  -0.827  25.129  0.00  0.00    +0.108 C 
ATOM     24  N   UNL     1      -1.940  -0.679  24.769  0.00  0.00    -0.305 N 
ATOM     25  C   UNL     1      -2.008  -0.080  24.208  0.00  0.00    +0.108 C 
ATOM     26  C   UNL     1      -1.348   0.372  24.004  0.00  0.00    +0.094 C 
BRANCH  24  27
ATOM     27  C   UNL     1      -2.600  -1.131  24.973  0.00  0.00    +0.048 A 
ATOM     28  C   UNL     1      -2.993  -1.570  24.396  0.00  0.00    +0.018 A 
ATOM     29  C   UNL     1      -3.653  -2.022  24.600  0.00  0.00    +0.073 A 
ATOM     30  C   UNL     1      -3.919  -2.034  25.382  0.00  0.00    +0.004 A 
ATOM     31  C   UNL     1      -3.525  -1.595  25.958  0.00  0.00    +0.001 A 
ATOM     32  C   UNL     1      -2.866  -1.144  25.754  0.00  0.00    +0.015 A 
BRANCH  29  33
ATOM     33  C   UNL     1      -4.047  -2.461  24.024  0.00  0.00    +0.419 C 
ATOM     34  F   UNL     1      -4.442  -2.899  23.448  0.00  0.00    -0.166 F 
ATOM     35  F   UNL     1      -3.533  -3.092  24.152  0.00  0.00    -0.166 F 
ATOM     36  F   UNL     1      -4.562  -1.829  23.896  0.00  0.00    -0.166 F 
ENDBRANCH  29  33
ENDBRANCH  24  27
ENDBRANCH  18  21
BRANCH   3   2
ATOM      1  O   UNL     1       2.563   1.306  23.386  0.00  0.00    -0.218 OA
ATOM      2  C   UNL     1       1.822   1.119  23.073  0.00  0.00    +0.214 C 
ENDBRANCH   3   2
BRANCH   5   6
ATOM      6  C   UNL     1      -0.156   1.800  25.086  0.00  0.00    +0.146 C 
BRANCH   6   7
ATOM      7  N   UNL     1      -0.477   2.545  24.937  0.00  0.00    -0.199 NA
ATOM      8  C   UNL     1      -0.747   3.010  25.562  0.00  0.00    +0.266 C 
ATOM      9  O   UNL     1      -0.696   2.731  26.336  0.00  0.00    -0.268 OA
BRANCH   8  10
ATOM     10  C   UNL     1      -1.069   3.756  25.412  0.00  0.00    +0.069 A 
ATOM     11  C   UNL     1      -0.597   4.351  25.091  0.00  0.00    +0.047 A 
ATOM     12  C   UNL     1      -0.919   5.097  24.941  0.00  0.00    +0.196 A 
ATOM     13  O   UNL     1      -0.448   5.692  24.621  0.00  0.00    -0.287 OA
ATOM     14  C   UNL     1      -1.713   5.245  25.113  0.00  0.00    +0.043 A 
ATOM     15  C   UNL     1      -2.184   4.648  25.434  0.00  0.00    +0.015 A 
ATOM     16  C   UNL     1      -1.862   3.904  25.583  0.00  0.00    +0.062 A 
ATOM     17 CL   UNL     1      -2.334   3.308  25.904  0.00  0.00    -0.082 Cl
ENDBRANCH   8  10
ENDBRANCH   6   7
ENDBRANCH   5   6
TORSDOF 7
ENDMDL
MODEL 5
REMARK VINA RESULT:     -11.4      2.386      5.313
REMARK  Name = 
REMARK  7 active torsions:
REMARK  status: ('A' for Active; 'I' for Inactive)
REMARK    1  A    between atoms: C_2  and  C_3
REMARK    2  A    between atoms: C_5  and  C_6
REMARK    3  A    between atoms: C_6  and  N_7
REMARK    4  A    between atoms: C_8  and  C_10
REMARK    5  A    between atoms: C_18  and  N_21
REMARK    6  A    between atoms: N_24  and  C_27
REMARK    7  A    between atoms: C_29  and  C_33
REMARK                            x       y       z     vdW  Elec       q    Type
REMARK                         _______ _______ _______ _____ _____    ______ ____
ROOT
ATOM      3  C   UNL     1      -5.990   1.920  25.680  0.00  0.00    +0.180 C 
ATOM      4  O   UNL     1      -5.630   1.292  25.285  0.00  0.00    -0.350 OA
ATOM      5  C   UNL     1      -4.867   1.525  25.077  0.00  0.00    +0.154 C 
ATOM     18  C   UNL     1      -4.755   2.298  25.343  0.00  0.00    +0.120 C 
ATOM     19  C   UNL     1      -5.449   2.542  25.716  0.00  0.00    +0.198 C 
ATOM     20  O   UNL     1      -5.579   3.279  26.064  0.00  0.00    -0.219 OA
ENDROOT
BRANCH  18  21
ATOM     21  N   UNL     1      -4.069   2.748  25.252  0.00  0.00    -0.267 NA
ATOM     22  C   UNL     1      -3.499   2.754  25.849  0.00  0.00    +0.094 C 
ATOM     23  C   UNL     1      -2.812   3.204  25.758  0.00  0.00    +0.108 C 
ATOM     24  N   UNL     1      -2.698   3.647  25.071  0.00  0.00    -0.305 N 
ATOM     25  C   UNL     1      -3.268   3.640  24.476  0.00  0.00    +0.108 C 
ATOM     26  C   UNL     1      -3.954   3.190  24.566  0.00  0.00    +0.094 C 
BRANCH  24  27
ATOM     27  C   UNL     1      -2.011   4.097  24.981  0.00  0.00    +0.048 A 
ATOM     28  C   UNL     1      -1.328   3.750  24.677  0.00  0.00    +0.018 A 
ATOM     29  C   UNL     1      -0.642   4.200  24.586  0.00  0.00    +0.073 A 
ATOM     30  C   UNL     1      -0.640   4.997  24.801  0.00  0.00    +0.004 A 
ATOM     31  C   UNL     1      -1.324   5.343  25.106  0.00  0.00    +0.001 A 
ATOM     32  C   UNL     1      -2.009   4.893  25.196  0.00  0.00    +0.015 A 
BRANCH  29  33
ATOM     33  C   UNL     1       0.042   3.854  24.282  0.00  0.00    +0.419 C 
ATOM     34  F   UNL     1       0.726   3.508  23.976  0.00  0.00    -0.166 F 
ATOM     35  F   UNL     1       0.148   3.442  24.988  0.00  0.00    -0.166 F 
ATOM     36  F   UNL     1      -0.065   4.266  23.575  0.00  0.00    -0.166 F 
ENDBRANCH  29  33
ENDBRANCH  24  27
ENDBRANCH  18  21
BRANCH   3   2
ATOM      1  O   UNL     1      -6.938   1.472  26.651  0.00  0.00    -0.218 OA
ATOM      2  C   UNL     1      -6.756   1.926  25.985  0.00  0.00    +0.214 C 
ENDBRANCH   3   2
BRANCH   5   6
ATOM      6  C   UNL     1      -4.313   1.066  24.673  0.00  0.00    +0.146 C 
BRANCH   6   7
ATOM      7  N   UNL     1      -4.321   0.246  24.752  0.00  0.00    -0.199 NA
ATOM      8  C   UNL     1      -3.738  -0.210  24.386  0.00  0.00    +0.266 C 
ATOM      9  O   UNL     1      -3.147   0.155  23.942  0.00  0.00    -0.268 OA
BRANCH   8  10
ATOM     10  C   UNL     1      -3.746  -1.032  24.466  0.00  0.00    +0.069 A 
ATOM     11  C   UNL     1      -4.166  -1.494  23.928  0.00  0.00    +0.047 A 
ATOM     12  C   UNL     1      -4.175  -2.315  24.008  0.00  0.00    +0.196 A 
ATOM     13  O   UNL     1      -4.595  -2.778  23.470  0.00  0.00    -0.287 OA
ATOM     14  C   UNL     1      -3.762  -2.674  24.627  0.00  0.00    +0.043 A 
ATOM     15  C   UNL     1      -3.342  -2.210  25.165  0.00  0.00    +0.015 A 
ATOM     16  C   UNL     1      -3.334  -1.390  25.085  0.00  0.00    +0.062 A 
ATOM     17 CL   UNL     1      -2.913  -0.926  25.623  0.00  0.00    -0.082 Cl
ENDBRANCH   8  10
ENDBRANCH   6   7
ENDBRANCH   5   6
TORSDOF 7
ENDMDL
MODEL 6
REMARK VINA RESULT:     -10.7      3.118      5.893
REMARK  Name = 
REMARK  7 active torsions:
REMARK  status: ('A' for Active; 'I' for Inactive)
REMARK    1  A    between atoms: C_2  and  C_3
REMARK    2  A    between atoms: C_5  and  C_6
REMARK    3  A    between atoms: C_6  and  N_7
REMARK    4  A    between atoms: C_8  and  C_10
REMARK    5  A    between atoms: C_18  and  N_21
REMARK    6  A    between atoms: N_24  and  C_27
REMARK    7  A    between atoms: C_29  and  C_33
REMARK                            x       y       z     vdW  Elec       q    Type
REMARK                         _______ _______ _______ _____ _____    ______ ____
ROOT
ATOM      3  C   UNL     1       0.181   0.488  23.742  0.00  0.00    +0.180 C 
ATOM      4  O   UNL     1      -0.206  -0.105  24.164  0.00  0.00    -0.350 OA
ATOM      5  C   UNL     1      -0.909   0.209  24.461  0.00  0.00    +0.154 C 
ATOM     18  C   UNL     1      -0.956   0.998  24.222  0.00  0.00    +0.120 C 
ATOM     19  C   UNL     1      -0.283   1.170  23.777  0.00  0.00    +0.198 C 
ATOM     20  O   UNL     1      -0.104   1.897  23.429  0.00  0.00    -0.219 OA
ENDROOT
BRANCH  18  21
ATOM     21  N   UNL     1      -1.569   1.521  24.397  0.00  0.00    -0.267 NA
ATOM     22  C   UNL     1      -2.169   1.652  23.845  0.00  0.00    +0.094 C 
ATOM     23  C   UNL     1      -2.783   2.176  24.019  0.00  0.00    +0.108 C 
ATOM     24  N   UNL     1      -2.795   2.569  24.745  0.00  0.00    -0.305 N 
ATOM     25  C   UNL     1      -2.196   2.439  25.295  0.00  0.00    +0.108 C 
ATOM     26  C   UNL     1      -1.582   1.914  25.121  0.00  0.00    +0.094 C 
BRANCH  24  27
ATOM     27  C   UNL     1      -3.409   3.094  24.919  0.00  0.00    +0.048 A 
ATOM     28  C   UNL     1      -4.114   2.811  25.239  0.00  0.00    +0.018 A 
ATOM     29  C   UNL     1      -4.728   3.335  25.413  0.00  0.00    +0.073 A 
ATOM     30  C   UNL     1      -4.635   4.142  25.267  0.00  0.00    +0.004 A 
ATOM     31  C   UNL     1      -3.928   4.424  24.947  0.00  0.00    +0.001 A 
ATOM     32  C   UNL     1      -3.316   3.900  24.773  0.00  0.00    +0.015 A 
BRANCH  29  33
ATOM     33  C   UNL     1      -5.434   3.053  25.733  0.00  0.00    +0.419 C 
ATOM     34  F   UNL     1      -6.139   2.771  26.054  0.00  0.00    -0.166 F 
ATOM     35  F   UNL     1      -5.742   2.963  24.974  0.00  0.00    -0.166 F 
ATOM     36  F   UNL     1      -5.125   3.143  26.493  0.00  0.00    -0.166 F 
ENDBRANCH  29  33
ENDBRANCH  24  27
ENDBRANCH  18  21
BRANCH   3   2
ATOM      1  O   UNL     1       1.075  -0.274  22.929  0.00  0.00    -0.218 OA
ATOM      2  C   UNL     1       0.903   0.413  23.353  0.00  0.00    +0.214 C 
ENDBRANCH   3   2
BRANCH   5   6
ATOM      6  C   UNL     1      -1.466  -0.193  24.917  0.00  0.00    +0.146 C 
BRANCH   6   7
ATOM      7  N   UNL     1      -1.934  -0.780  24.574  0.00  0.00    -0.199 NA
ATOM      8  C   UNL     1      -2.409  -1.259  25.049  0.00  0.00    +0.266 C 
ATOM      9  O   UNL     1      -2.416  -1.152  25.866  0.00  0.00    -0.268 OA
BRANCH   8  10
ATOM     10  C   UNL     1      -2.877  -1.846  24.705  0.00  0.00    +0.069 A 
ATOM     11  C   UNL     1      -3.607  -1.651  24.376  0.00  0.00    +0.047 A 
ATOM     12  C   UNL     1      -4.075  -2.238  24.032  0.00  0.00    +0.196 A 
ATOM     13  O   UNL     1      -4.805  -2.043  23.703  0.00  0.00    -0.287 OA
ATOM     14  C   UNL     1      -3.810  -3.020  24.018  0.00  0.00    +0.043 A 
ATOM     15  C   UNL     1      -3.079  -3.214  24.347  0.00  0.00    +0.015 A 
ATOM     16  C   UNL     1      -2.612  -2.628  24.691  0.00  0.00    +0.062 A 
ATOM     17 CL   UNL     1      -1.881  -2.822  25.020  0.00  0.00    -0.082 Cl
ENDBRANCH   8  10
ENDBRANCH   6   7
ENDBRANCH   5   6
TORSDOF 7
ENDMDL
