MODEL 1
REMARK VINA RESULT:      -9.6      0.000      0.000
REMARK  Name = 
REMARK  5 active torsions:
REMARK  status: ('A' for Active; 'I' for Inactive)
REMARK    1  A    between atoms: C_2  and  N_3
REMARK    2  A    between atoms: N_6  and  C_7
REMARK    3  A    between atoms: C_10  and  C_13
REMARK    4  A    between atoms: C_13  and  C_15
REMARK    5  A    between atoms: N_21  and  C_22
REMARK                            x       y       z     vdW  Elec       q    Type
REMARK                         _______ _______ _______ _____ _____    ______ ____
ROOT
ATOM      7  C   UNL     1      -3.562   2.169  24.372  0.00  0.00    +0.075 A 
ATOM      8  C   UNL     1      -3.219   1.584  23.902  0.00  0.00    +0.016 A 
ATOM      9  C   UNL     1      -3.490   0.806  23.946  0.00  0.00    -0.000 A 
ATOM     10  C   UNL     1      -4.105   0.612  24.460  0.00  0.00    +0.010 A 
ATOM     11  C   UNL     1      -4.449   1.197  24.931  0.00  0.00    -0.000 A 
ATOM     12  C   UNL     1      -4.177   1.975  24.887  0.00  0.00    +0.016 A 
ENDROOT
BRANCH   7   6
ATOM      3  N   UNL     1      -2.411   3.978  24.780  0.00  0.00    -0.187 NA
ATOM      4  C   UNL     1      -2.683   3.200  24.824  0.00  0.00    +0.343 C 
ATOM      5  O   UNL     1      -2.346   2.676  25.364  0.00  0.00    -0.249 OA
ATOM      6  N   UNL     1      -3.291   2.946  24.328  0.00  0.00    -0.161 NA
BRANCH   3   2
ATOM      1  C   UNL     1      -1.448   4.966  25.151  0.00  0.00    +0.025 C 
ATOM      2  C   UNL     1      -1.803   4.231  25.276  0.00  0.00    +0.117 C 
ENDBRANCH   3   2
ENDBRANCH   7   6
BRANCH  10  13
ATOM     13  C   UNL     1      -4.377  -0.165  24.505  0.00  0.00    +0.195 C 
ATOM     14  O   UNL     1      -5.061  -0.387  24.101  0.00  0.00    -0.216 OA
BRANCH  13  15
ATOM     15  C   UNL     1      -3.963  -0.720  24.954  0.00  0.00    +0.139 C 
ATOM     16  C   UNL     1      -3.682  -0.519  25.703  0.00  0.00    +0.165 C 
ATOM     17  O   UNL     1      -3.269  -1.075  26.151  0.00  0.00    -0.343 OA
ATOM     18  C   UNL     1      -3.137  -1.831  25.851  0.00  0.00    +0.227 C 
ATOM     19  C   UNL     1      -3.418  -2.033  25.102  0.00  0.00    +0.256 C 
ATOM     20  O   UNL     1      -3.286  -2.790  24.802  0.00  0.00    -0.272 OA
ATOM     21  N   UNL     1      -3.831  -1.478  24.653  0.00  0.00    -0.274 N 
BRANCH  21  22
ATOM     22  C   UNL     1      -4.113  -1.679  23.905  0.00  0.00    +0.094 C 
ATOM     23  C   UNL     1      -4.251  -2.471  23.715  0.00  0.00    +0.023 C 
ENDBRANCH  21  22
ENDBRANCH  13  15
ENDBRANCH  10  13
TORSDOF 5
ENDMDL
MODEL 2
REMARK VINA RESULT:      -9.2      1.086      4.797
REMARK  Name = 
REMARK  5 active torsions:
REMARK  status: ('A' for Active; 'I' for Inactive)
REMARK    1  A    between atoms: C_2  and  N_3
REMARK    2  A    between atoms: N_6  and  C_7
REMARK    3  A    between atoms: C_10  and  C_13
REMARK    4  A    between atoms: C_13  and  C_15
REMARK    5  A    between atoms: N_21  and  C_22
REMARK                            x       y       z     vdW  Elec       q    Type
REMARK                         _______ _______ _______ _____ _____    ______ ____
ROOT
ATOM      7  C   UNL     1      -3.965   0.265  24.240  0.00  0.00    +0.075 A 
ATOM      8  C   UNL     1      -4.141   0.749  24.885  0.00  0.00    +0.016 A 
ATOM      9  C   UNL     1      -3.934   1.547  24.872  0.00  0.00    -0.000 A 
ATOM     10  C   UNL     1      -3.551   1.863  24.213  0.00  0.00    +0.010 A 
ATOM     11  C   UNL     1      -3.375   1.380  23.567  0.00  0.00    -0.000 A 
ATOM     12  C   UNL     1      -3.582   0.581  23.581  0.00  0.00    +0.016 A 
ENDROOT
BRANCH   7   6
ATOM      3  N   UNL     1      -3.829  -1.896  24.511  0.00  0.00    -0.187 NA
ATOM      4  C   UNL     1      -3.622  -1.097  24.497  0.00  0.00    +0.343 C 
ATOM      5  O   UNL     1      -2.866  -0.863  24.728  0.00  0.00    -0.249 OA
ATOM      6  N   UNL     1      -4.171  -0.533  24.253  0.00  0.00    -0.161 NA
BRANCH   3   2
ATOM      1  C   UNL     1      -3.431  -3.263  24.637  0.00  0.00    +0.025 C 
ATOM      2  C   UNL     1      -3.280  -2.460  24.755  0.00  0.00    +0.117 C 
ENDBRANCH   3   2
ENDBRANCH   7   6
BRANCH  10  13
ATOM     13  C   UNL     1      -3.344   2.661  24.198  0.00  0.00    +0.195 C 
ATOM     14  O   UNL     1      -3.902   3.229  23.983  0.00  0.00    -0.216 OA
BRANCH  13  15
ATOM     15  C   UNL     1      -2.578   2.891  24.400  0.00  0.00    +0.139 C 
ATOM     16  C   UNL     1      -1.930   2.531  24.037  0.00  0.00    +0.165 C 
ATOM     17  O   UNL     1      -1.164   2.762  24.239  0.00  0.00    -0.343 OA
ATOM     18  C   UNL     1      -1.045   3.352  24.803  0.00  0.00    +0.227 C 
ATOM     19  C   UNL     1      -1.693   3.712  25.165  0.00  0.00    +0.256 C 
ATOM     20  O   UNL     1      -1.575   4.302  25.730  0.00  0.00    -0.272 OA
ATOM     21  N   UNL     1      -2.459   3.482  24.964  0.00  0.00    -0.274 N 
BRANCH  21  22
ATOM     22  C   UNL     1      -3.107   3.842  25.327  0.00  0.00    +0.094 C 
ATOM     23  C   UNL     1      -3.016   4.218  26.056  0.00  0.00    +0.023 C 
ENDBRANCH  21  22
ENDBRANCH  13  15
ENDBRANCH  10  13
TORSDOF 5
ENDMDL
MODEL 3
REMARK VINA RESULT:      -8.5      1.678      4.298
REMARK  Name = 
REMARK  5 active torsions:
REMARK  status: ('A' for Active; 'I' for Inactive)
REMARK    1  A    between atoms: C_2  and  N_3
REMARK    2  A    between atoms: N_6  and  C_7
REMARK    3  A    between atoms: C_10  and  C_13
REMARK    4  A    between atoms: C_13  and  C_15
REMARK    5  A    between atoms: N_21  and  C_22
REMARK                            x       y       z     vdW  Elec       q    Type
REMARK                         _______ _______ _______ _____ _____    ______ ____
ROOT
ATOM      7  C   UNL     1      -3.235  -0.641  24.786  0.00  0.00    +0.075 A 
ATOM      8  C   UNL     1      -3.454  -0.352  24.044  0.00  0.00    +0.016 A 
ATOM      9  C   UNL     1      -3.976   0.284  23.985  0.00  0.00    -0.000 A 
ATOM     10  C   UNL     1      -4.280   0.632  24.668  0.00  0.00    +0.010 A 
ATOM     11  C   UNL     1      -4.062   0.344  25.410  0.00  0.00    -0.000 A 
ATOM     12  C   UNL     1      -3.540  -0.293  25.469  0.00  0.00    +0.016 A 
ENDROOT
BRANCH   7   6
ATOM      3  N   UNL     1      -1.381  -1.777  24.969  0.00  0.00    -0.187 NA
ATOM      4  C   UNL     1      -1.903  -1.141  24.910  0.00  0.00    +0.343 C 
ATOM      5  O   UNL     1      -1.614  -0.368  24.917  0.00  0.00    -0.249 OA
ATOM      6  N   UNL     1      -2.714  -1.276  24.844  0.00  0.00    -0.161 NA
BRANCH   3   2
ATOM      1  C   UNL     1      -0.073  -2.235  25.317  0.00  0.00    +0.025 C 
ATOM      2  C   UNL     1      -0.571  -1.641  25.034  0.00  0.00    +0.117 C 
ENDBRANCH   3   2
ENDBRANCH   7   6
BRANCH  10  13
ATOM     13  C   UNL     1      -4.802   1.268  24.610  0.00  0.00    +0.195 C 
ATOM     14  O   UNL     1      -5.616   1.135  24.603  0.00  0.00    -0.216 OA
BRANCH  13  15
ATOM     15  C   UNL     1      -4.508   2.038  24.559  0.00  0.00    +0.139 C 
ATOM     16  C   UNL     1      -3.919   2.220  24.011  0.00  0.00    +0.165 C 
ATOM     17  O   UNL     1      -3.627   2.990  23.961  0.00  0.00    -0.343 OA
ATOM     18  C   UNL     1      -3.923   3.577  24.458  0.00  0.00    +0.227 C 
ATOM     19  C   UNL     1      -4.512   3.395  25.006  0.00  0.00    +0.256 C 
ATOM     20  O   UNL     1      -4.809   3.983  25.504  0.00  0.00    -0.272 OA
ATOM     21  N   UNL     1      -4.805   2.626  25.057  0.00  0.00    -0.274 N 
BRANCH  21  22
ATOM     22  C   UNL     1      -5.394   2.444  25.605  0.00  0.00    +0.094 C 
ATOM     23  C   UNL     1      -5.892   3.038  25.889  0.00  0.00    +0.023 C 
ENDBRANCH  21  22
ENDBRANCH  13  15
ENDBRANCH  10  13
TORSDOF 5
ENDMDL
MODEL 4
REMARK VINA RESULT:      -8.5      1.844      2.347
REMARK  Name = 
REMARK  5 active torsions:
REMARK  status: ('A' for Active; 'I' for Inactive)
REMARK    1  A    between atoms: C_2  and  N_3
REMARK    2  A    between atoms: N_6  and  C_7
REMARK    3  A    between atoms: C_10  and  C_13
REMARK    4  A    between atoms: C_13  and  C_15
REMARK    5  A    between atoms: N_21  and  C_22
REMARK                            x       y       z     vdW  Elec       q    Type
REMARK                         _______ _______ _______ _____ _____    ______ ____
ROOT
ATOM      7  C   UNL     1      -0.746   1.654  24.943  0.00  0.00    +0.075 A 
ATOM      8  C   UNL     1      -0.694   1.315  25.694  0.00  0.00    +0.016 A 
ATOM      9  C   UNL     1      -0.870   0.516  25.799  0.00  0.00    -0.000 A 
ATOM     10  C   UNL     1      -1.098   0.055  25.154  0.00  0.00    +0.010 A 
ATOM     11  C   UNL     1      -1.150   0.394  24.403  0.00  0.00    -0.000 A 
ATOM     12  C   UNL     1      -0.974   1.194  24.298  0.00  0.00    +0.016 A 
ENDROOT
BRANCH   7   6
ATOM      3  N   UNL     1      -0.952   3.827  24.929  0.00  0.00    -0.187 NA
ATOM      4  C   UNL     1      -1.128   3.027  25.035  0.00  0.00    +0.343 C 
ATOM      5  O   UNL     1      -1.862   2.803  25.337  0.00  0.00    -0.249 OA
ATOM      6  N   UNL     1      -0.570   2.453  24.838  0.00  0.00    -0.161 NA
BRANCH   3   2
ATOM      1  C   UNL     1      -1.316   5.201  25.071  0.00  0.00    +0.025 C 
ATOM      2  C   UNL     1      -1.510   4.401  25.126  0.00  0.00    +0.117 C 
ENDBRANCH   3   2
ENDBRANCH   7   6
BRANCH  10  13
ATOM     13  C   UNL     1      -1.274  -0.744  25.258  0.00  0.00    +0.195 C 
ATOM     14  O   UNL     1      -0.664  -1.298  25.310  0.00  0.00    -0.216 OA
BRANCH  13  15
ATOM     15  C   UNL     1      -2.060  -0.988  25.312  0.00  0.00    +0.139 C 
ATOM     16  C   UNL     1      -2.593  -0.566  25.779  0.00  0.00    +0.165 C 
ATOM     17  O   UNL     1      -3.379  -0.812  25.831  0.00  0.00    -0.343 OA
ATOM     18  C   UNL     1      -3.632  -1.479  25.417  0.00  0.00    +0.227 C 
ATOM     19  C   UNL     1      -3.098  -1.901  24.950  0.00  0.00    +0.256 C 
ATOM     20  O   UNL     1      -3.351  -2.569  24.536  0.00  0.00    -0.272 OA
ATOM     21  N   UNL     1      -2.312  -1.656  24.897  0.00  0.00    -0.274 N 
BRANCH  21  22
ATOM     22  C   UNL     1      -1.779  -2.078  24.430  0.00  0.00    +0.094 C 
ATOM     23  C   UNL     1      -1.945  -2.859  24.217  0.00  0.00    +0.023 C 
ENDBRANCH  21  22
ENDBRANCH  13  15
ENDBRANCH  10  13
TORSDOF 5
ENDMDL
