REMARK  Name = 
REMARK  5 active torsions:
REMARK  status: ('A' for Active; 'I' for Inactive)
REMARK    1  A    between atoms: C_7  and  N_10
REMARK    2  A    between atoms: N_10  and  C_11
REMARK    3  A    between atoms: C_14  and  C_15
REMARK    4  A    between atoms: C_15  and  N_16
REMARK    5  A    between atoms: C_17  and  C_19
REMARK                            x       y       z     vdW  Elec       q    Type
REMARK                         _______ _______ _______ _____ _____    ______ ____
ROOT
ATOM     11  C   UNL     1       2.751  -2.537   0.000  0.00  0.00    +0.135 C 
ATOM     12  C   UNL     1       3.419  -3.022   0.000  0.00  0.00    +0.162 C 
ATOM     13  O   UNL     1       3.164  -3.806   0.000  0.00  0.00    -0.350 OA
ATOM     14  C   UNL     1       2.339  -3.806   0.000  0.00  0.00    +0.169 C 
ATOM     26  C   UNL     1       2.084  -3.022   0.000  0.00  0.00    +0.199 C 
ATOM     27  O   UNL     1       1.299  -2.767   0.000  0.00  0.00    -0.219 OA
ENDROOT
BRANCH  11  10
ATOM     10  N   UNL     1       2.751  -1.712   0.000  0.00  0.00    -0.216 NA
BRANCH  10   7
ATOM      1  C   UNL     1       5.609   0.763   0.000  0.00  0.00    +0.095 C 
ATOM      2  C   UNL     1       5.609  -0.062   0.000  0.00  0.00    +0.226 C 
ATOM      3  O   UNL     1       6.324  -0.474   0.000  0.00  0.00    -0.275 OA
ATOM      4  N   UNL     1       4.895  -0.474   0.000  0.00  0.00    -0.279 N 
ATOM      5  C   UNL     1       4.895  -1.299   0.000  0.00  0.00    +0.095 C 
ATOM      6  C   UNL     1       4.180  -1.712   0.000  0.00  0.00    +0.039 C 
ATOM      7  C   UNL     1       3.466  -1.299   0.000  0.00  0.00    +0.076 C 
ATOM      8  C   UNL     1       3.466  -0.474   0.000  0.00  0.00    +0.039 C 
ATOM      9  C   UNL     1       4.180  -0.062   0.000  0.00  0.00    +0.095 C 
ENDBRANCH  10   7
ENDBRANCH  11  10
BRANCH  14  15
ATOM     15  C   UNL     1       1.854  -4.474   0.000  0.00  0.00    +0.148 C 
BRANCH  15  16
ATOM     16  N   UNL     1       1.033  -4.387   0.000  0.00  0.00    -0.199 NA
ATOM     17  C   UNL     1       0.548  -5.055   0.000  0.00  0.00    +0.265 C 
ATOM     18  O   UNL     1       0.884  -5.809   0.000  0.00  0.00    -0.268 OA
BRANCH  17  19
ATOM     19  C   UNL     1      -0.272  -4.969   0.000  0.00  0.00    +0.055 A 
ATOM     20  C   UNL     1      -0.757  -5.636   0.000  0.00  0.00    +0.007 A 
ATOM     21  C   UNL     1      -1.577  -5.550   0.000  0.00  0.00    +0.030 A 
ATOM     22  C   UNL     1      -1.913  -4.796   0.000  0.00  0.00    +0.140 A 
ATOM     23  F   UNL     1      -2.734  -4.710   0.000  0.00  0.00    -0.204 F 
ATOM     24  C   UNL     1      -1.428  -4.129   0.000  0.00  0.00    +0.030 A 
ATOM     25  C   UNL     1      -0.608  -4.215   0.000  0.00  0.00    +0.007 A 
ENDBRANCH  17  19
ENDBRANCH  15  16
ENDBRANCH  14  15
TORSDOF 5
