MODEL 1
REMARK VINA RESULT:     -15.1      0.000      0.000
REMARK  Name = 
REMARK  4 active torsions:
REMARK  status: ('A' for Active; 'I' for Inactive)
REMARK    1  A    between atoms: C_2  and  C_25
REMARK    2  A    between atoms: C_9  and  N_10
REMARK    3  A    between atoms: C_11  and  C_13
REMARK    4  A    between atoms: C_25  and  C_27
REMARK                            x       y       z     vdW  Elec       q    Type
REMARK                         _______ _______ _______ _____ _____    ______ ____
ROOT
ATOM      1  C   UNL     1      -4.260   0.186  24.676  0.00  0.00    +0.052 C 
ATOM      2  C   UNL     1      -4.972   0.417  25.026  0.00  0.00    -0.001 C 
ATOM      3  C   UNL     1      -5.093   1.207  25.230  0.00  0.00    -0.000 C 
ATOM      4  C   UNL     1      -4.504   1.765  25.086  0.00  0.00    -0.001 C 
ATOM      5  C   UNL     1      -5.215   1.996  25.435  0.00  0.00    -0.000 C 
ATOM      6  C   UNL     1      -4.625   2.555  25.291  0.00  0.00    +0.002 C 
ATOM      7  C   UNL     1      -4.037   3.114  25.147  0.00  0.00    +0.022 C 
ATOM      8  C   UNL     1      -3.325   2.883  24.798  0.00  0.00    +0.095 C 
ATOM     18  C   UNL     1      -3.203   2.094  24.593  0.00  0.00    +0.019 C 
ATOM     19  C   UNL     1      -2.492   1.863  24.244  0.00  0.00    +0.002 C 
ATOM     20  C   UNL     1      -3.793   1.534  24.737  0.00  0.00    +0.045 C 
ATOM     21  C   UNL     1      -3.671   0.745  24.532  0.00  0.00    +0.145 C 
ATOM     22  O   UNL     1      -2.960   0.514  24.183  0.00  0.00    -0.224 OA
ENDROOT
BRANCH   8   9
ATOM      9  N   UNL     1      -2.736   3.443  24.654  0.00  0.00    -0.207 NA
ATOM     10  C   UNL     1      -2.439   3.898  25.273  0.00  0.00    +0.241 C 
ATOM     11  O   UNL     1      -2.731   3.795  26.039  0.00  0.00    -0.273 OA
BRANCH  10  12
ATOM     12  C   UNL     1      -1.850   4.458  25.130  0.00  0.00    +0.078 C 
ATOM     13  C   UNL     1      -1.069   4.217  25.020  0.00  0.00    +0.009 C 
ATOM     14  C   UNL     1      -0.480   4.777  24.876  0.00  0.00    +0.000 C 
ATOM     15  C   UNL     1      -0.673   5.578  24.842  0.00  0.00    +0.000 C 
ATOM     16  C   UNL     1      -1.455   5.820  24.952  0.00  0.00    +0.000 C 
ATOM     17  C   UNL     1      -2.043   5.260  25.095  0.00  0.00    +0.009 C 
ENDBRANCH  10  12
ENDBRANCH   8   9
BRANCH   1  23
ATOM     23  C   UNL     1      -4.139  -0.604  24.472  0.00  0.00    +0.075 C 
ATOM     24  C   UNL     1      -4.268  -0.855  23.696  0.00  0.00    +0.009 C 
BRANCH  23  25
ATOM     25  C   UNL     1      -3.889  -1.144  25.043  0.00  0.00    +0.225 C 
ATOM     26  O   UNL     1      -3.807  -0.905  25.829  0.00  0.00    -0.275 OA
ATOM     27  N   UNL     1      -3.719  -1.923  24.829  0.00  0.00    -0.280 N 
ATOM     28  C   UNL     1      -3.465  -2.521  25.337  0.00  0.00    +0.093 C 
ATOM     29  C   UNL     1      -3.364  -3.208  24.892  0.00  0.00    +0.023 C 
ATOM     30  C   UNL     1      -3.555  -3.034  24.108  0.00  0.00    +0.023 C 
ATOM     31  C   UNL     1      -3.775  -2.240  24.070  0.00  0.00    +0.093 C 
ENDBRANCH  23  25
ENDBRANCH   1  23
TORSDOF 4
ENDMDL
MODEL 2
REMARK VINA RESULT:     -14.6      0.886      5.514
REMARK  Name = 
REMARK  4 active torsions:
REMARK  status: ('A' for Active; 'I' for Inactive)
REMARK    1  A    between atoms: C_2  and  C_25
REMARK    2  A    between atoms: C_9  and  N_10
REMARK    3  A    between atoms: C_11  and  C_13
REMARK    4  A    between atoms: C_25  and  C_27
REMARK                            x       y       z     vdW  Elec       q    Type
REMARK                         _______ _______ _______ _____ _____    ______ ____
ROOT
ATOM      1  C   UNL     1      -2.780   3.152  25.488  0.00  0.00    +0.052 C 
ATOM      2  C   UNL     1      -3.539   3.474  25.437  0.00  0.00    -0.001 C 
ATOM      3  C   UNL     1      -4.168   3.008  25.179  0.00  0.00    -0.000 C 
ATOM      4  C   UNL     1      -4.040   2.220  24.973  0.00  0.00    -0.001 C 
ATOM      5  C   UNL     1      -4.797   2.541  24.922  0.00  0.00    -0.000 C 
ATOM      6  C   UNL     1      -4.669   1.753  24.715  0.00  0.00    +0.002 C 
ATOM      7  C   UNL     1      -4.541   0.965  24.508  0.00  0.00    +0.022 C 
ATOM      8  C   UNL     1      -3.782   0.643  24.560  0.00  0.00    +0.095 C 
ATOM     18  C   UNL     1      -3.153   1.109  24.817  0.00  0.00    +0.019 C 
ATOM     19  C   UNL     1      -2.395   0.788  24.868  0.00  0.00    +0.002 C 
ATOM     20  C   UNL     1      -3.281   1.898  25.024  0.00  0.00    +0.045 C 
ATOM     21  C   UNL     1      -2.652   2.364  25.282  0.00  0.00    +0.145 C 
ATOM     22  O   UNL     1      -1.894   2.043  25.333  0.00  0.00    -0.224 OA
ENDROOT
BRANCH   8   9
ATOM      9  N   UNL     1      -3.655  -0.146  24.353  0.00  0.00    -0.207 NA
ATOM     10  C   UNL     1      -4.062  -0.746  24.744  0.00  0.00    +0.241 C 
ATOM     11  O   UNL     1      -4.598  -0.559  25.344  0.00  0.00    -0.273 OA
BRANCH  10  12
ATOM     12  C   UNL     1      -3.934  -1.535  24.537  0.00  0.00    +0.078 C 
ATOM     13  C   UNL     1      -3.471  -2.018  25.019  0.00  0.00    +0.009 C 
ATOM     14  C   UNL     1      -3.344  -2.807  24.812  0.00  0.00    +0.000 C 
ATOM     15  C   UNL     1      -3.679  -3.111  24.122  0.00  0.00    +0.000 C 
ATOM     16  C   UNL     1      -4.143  -2.627  23.640  0.00  0.00    +0.000 C 
ATOM     17  C   UNL     1      -4.270  -1.839  23.848  0.00  0.00    +0.009 C 
ENDBRANCH  10  12
ENDBRANCH   8   9
BRANCH   1  23
ATOM     23  C   UNL     1      -2.151   3.620  25.746  0.00  0.00    +0.075 C 
ATOM     24  C   UNL     1      -1.519   3.276  26.150  0.00  0.00    +0.009 C 
BRANCH  23  25
ATOM     25  C   UNL     1      -2.153   4.431  25.599  0.00  0.00    +0.225 C 
ATOM     26  O   UNL     1      -2.786   4.896  25.858  0.00  0.00    -0.275 OA
ATOM     27  N   UNL     1      -1.524   4.780  25.194  0.00  0.00    -0.280 N 
ATOM     28  C   UNL     1      -1.451   5.580  25.009  0.00  0.00    +0.093 C 
ATOM     29  C   UNL     1      -0.740   5.684  24.604  0.00  0.00    +0.023 C 
ATOM     30  C   UNL     1      -0.374   4.947  24.540  0.00  0.00    +0.023 C 
ATOM     31  C   UNL     1      -0.859   4.388  24.905  0.00  0.00    +0.093 C 
ENDBRANCH  23  25
ENDBRANCH   1  23
TORSDOF 4
ENDMDL
MODEL 3
REMARK VINA RESULT:     -13.3      1.553      2.441
REMARK  Name = 
REMARK  4 active torsions:
REMARK  status: ('A' for Active; 'I' for Inactive)
REMARK    1  A    between atoms: C_2  and  C_25
REMARK    2  A    between atoms: C_9  and  N_10
REMARK    3  A    between atoms: C_11  and  C_13
REMARK    4  A    between atoms: C_25  and  C_27
REMARK                            x       y       z     vdW  Elec       q    Type
REMARK                         _______ _______ _______ _____ _____    ______ ____
ROOT
ATOM      1  C   UNL     1      -2.188  -0.809  25.149  0.00  0.00    +0.052 C 
ATOM      2  C   UNL     1      -1.420  -1.088  25.031  0.00  0.00    -0.001 C 
ATOM      3  C   UNL     1      -0.808  -0.558  24.875  0.00  0.00    -0.000 C 
ATOM      4  C   UNL     1      -0.963   0.250  24.835  0.00  0.00    -0.001 C 
ATOM      5  C   UNL     1      -0.196  -0.029  24.718  0.00  0.00    -0.000 C 
ATOM      6  C   UNL     1      -0.351   0.781  24.678  0.00  0.00    +0.002 C 
ATOM      7  C   UNL     1      -0.505   1.590  24.638  0.00  0.00    +0.022 C 
ATOM      8  C   UNL     1      -1.274   1.869  24.756  0.00  0.00    +0.095 C 
ATOM     18  C   UNL     1      -1.885   1.339  24.912  0.00  0.00    +0.019 C 
ATOM     19  C   UNL     1      -2.653   1.619  25.030  0.00  0.00    +0.002 C 
ATOM     20  C   UNL     1      -1.731   0.530  24.952  0.00  0.00    +0.045 C 
ATOM     21  C   UNL     1      -2.343  -0.000  25.109  0.00  0.00    +0.145 C 
ATOM     22  O   UNL     1      -3.110   0.279  25.226  0.00  0.00    -0.224 OA
ENDROOT
BRANCH   8   9
ATOM      9  N   UNL     1      -1.428   2.679  24.716  0.00  0.00    -0.207 NA
ATOM     10  C   UNL     1      -0.965   3.209  25.144  0.00  0.00    +0.241 C 
ATOM     11  O   UNL     1      -0.345   2.930  25.614  0.00  0.00    -0.273 OA
BRANCH  10  12
ATOM     12  C   UNL     1      -1.119   4.019  25.105  0.00  0.00    +0.078 C 
ATOM     13  C   UNL     1      -1.806   4.325  25.443  0.00  0.00    +0.009 C 
ATOM     14  C   UNL     1      -1.960   5.135  25.403  0.00  0.00    +0.000 C 
ATOM     15  C   UNL     1      -1.427   5.638  25.024  0.00  0.00    +0.000 C 
ATOM     16  C   UNL     1      -0.739   5.331  24.686  0.00  0.00    +0.000 C 
ATOM     17  C   UNL     1      -0.586   4.522  24.726  0.00  0.00    +0.009 C 
ENDBRANCH  10  12
ENDBRANCH   8   9
BRANCH   1  23
ATOM     23  C   UNL     1      -2.800  -1.340  25.306  0.00  0.00    +0.075 C 
ATOM     24  C   UNL     1      -3.392  -1.141  25.845  0.00  0.00    +0.009 C 
BRANCH  23  25
ATOM     25  C   UNL     1      -2.820  -2.070  24.922  0.00  0.00    +0.225 C 
ATOM     26  O   UNL     1      -2.206  -2.611  25.032  0.00  0.00    -0.275 OA
ATOM     27  N   UNL     1      -3.454  -2.261  24.430  0.00  0.00    -0.280 N 
ATOM     28  C   UNL     1      -3.550  -2.965  24.013  0.00  0.00    +0.093 C 
ATOM     29  C   UNL     1      -4.258  -2.920  23.593  0.00  0.00    +0.023 C 
ATOM     30  C   UNL     1      -4.601  -2.186  23.751  0.00  0.00    +0.023 C 
ATOM     31  C   UNL     1      -4.104  -1.779  24.268  0.00  0.00    +0.093 C 
ENDBRANCH  23  25
ENDBRANCH   1  23
TORSDOF 4
ENDMDL
MODEL 4
REMARK VINA RESULT:     -12.0      1.744      6.039
REMARK  Name = 
REMARK  4 active torsions:
REMARK  status: ('A' for Active; 'I' for Inactive)
REMARK    1  A    between atoms: C_2  and  C_25
REMARK    2  A    between atoms: C_9  and  N_10
REMARK    3  A    between atoms: C_11  and  C_13
REMARK    4  A    between atoms: C_25  and  C_27
REMARK                            x       y       z     vdW  Elec       q    Type
REMARK                         _______ _______ _______ _____ _____    ______ ____
ROOT
ATOM      1  C   UNL     1      -0.717   2.397  25.172  0.00  0.00    +0.052 C 
ATOM      2  C   UNL     1       0.025   2.163  24.894  0.00  0.00    -0.001 C 
ATOM      3  C   UNL     1       0.123   1.417  24.559  0.00  0.00    -0.000 C 
ATOM      4  C   UNL     1      -0.520   0.904  24.500  0.00  0.00    -0.001 C 
ATOM      5  C   UNL     1       0.220   0.670  24.223  0.00  0.00    -0.000 C 
ATOM      6  C   UNL     1      -0.422   0.156  24.164  0.00  0.00    +0.002 C 
ATOM      7  C   UNL     1      -1.065  -0.357  24.106  0.00  0.00    +0.022 C 
ATOM      8  C   UNL     1      -1.807  -0.123  24.383  0.00  0.00    +0.095 C 
ATOM     18  C   UNL     1      -1.905   0.624  24.719  0.00  0.00    +0.019 C 
ATOM     19  C   UNL     1      -2.646   0.858  24.996  0.00  0.00    +0.002 C 
ATOM     20  C   UNL     1      -1.262   1.138  24.778  0.00  0.00    +0.045 C 
ATOM     21  C   UNL     1      -1.359   1.884  25.113  0.00  0.00    +0.145 C 
ATOM     22  O   UNL     1      -2.100   2.118  25.390  0.00  0.00    -0.224 OA
ENDROOT
BRANCH   8   9
ATOM      9  N   UNL     1      -2.450  -0.637  24.324  0.00  0.00    -0.207 NA
ATOM     10  C   UNL     1      -2.339  -1.449  24.412  0.00  0.00    +0.241 C 
ATOM     11  O   UNL     1      -1.583  -1.749  24.558  0.00  0.00    -0.273 OA
BRANCH  10  12
ATOM     12  C   UNL     1      -2.982  -1.963  24.353  0.00  0.00    +0.078 C 
ATOM     13  C   UNL     1      -3.619  -1.772  23.866  0.00  0.00    +0.009 C 
ATOM     14  C   UNL     1      -4.262  -2.286  23.807  0.00  0.00    +0.000 C 
ATOM     15  C   UNL     1      -4.267  -2.991  24.235  0.00  0.00    +0.000 C 
ATOM     16  C   UNL     1      -3.628  -3.183  24.723  0.00  0.00    +0.000 C 
ATOM     17  C   UNL     1      -2.986  -2.668  24.781  0.00  0.00    +0.009 C 
ENDBRANCH  10  12
ENDBRANCH   8   9
BRANCH   1  23
ATOM     23  C   UNL     1      -0.814   3.145  25.508  0.00  0.00    +0.075 C 
ATOM     24  C   UNL     1      -1.118   3.219  26.271  0.00  0.00    +0.009 C 
BRANCH  23  25
ATOM     25  C   UNL     1      -0.606   3.819  25.079  0.00  0.00    +0.225 C 
ATOM     26  O   UNL     1       0.085   3.825  24.629  0.00  0.00    -0.275 OA
ATOM     27  N   UNL     1      -1.091   4.487  25.101  0.00  0.00    -0.280 N 
ATOM     28  C   UNL     1      -0.955   5.197  24.704  0.00  0.00    +0.093 C 
ATOM     29  C   UNL     1      -1.575   5.711  24.882  0.00  0.00    +0.023 C 
ATOM     30  C   UNL     1      -2.094   5.318  25.389  0.00  0.00    +0.023 C 
ATOM     31  C   UNL     1      -1.794   4.562  25.525  0.00  0.00    +0.093 C 
ENDBRANCH  23  25
ENDBRANCH   1  23
TORSDOF 4
ENDMDL
