MODEL 1
REMARK VINA RESULT:      -8.3      0.000      0.000
REMARK  Name = 
REMARK  8 active torsions:
REMARK  status: ('A' for Active; 'I' for Inactive)
REMARK    1  A    between atoms: C_2  and  C_3
REMARK    2  A    between atoms: C_3  and  S_4
REMARK    3  A    between atoms: S_4  and  N_7
REMARK    4  A    between atoms: N_7  and  C_8
REMARK    5  A    between atoms: C_12  and  O_16
REMARK    6  A    between atoms: O_16  and  C_17
REMARK    7  A    between atoms: N_19  and  C_20
REMARK    8  A    between atoms: C_23  and  O_24
REMARK                            x       y       z     vdW  Elec       q    Type
REMARK                         _______ _______ _______ _____ _____    ______ ____
ROOT
ATOM      8  C   UNL     1      -0.511   2.432  25.011  0.00  0.00    +0.156 C 
ATOM      9  C   UNL     1      -0.777   2.258  25.772  0.00  0.00    +0.164 C 
ATOM     10  O   UNL     1      -0.787   1.438  25.857  0.00  0.00    -0.348 OA
ATOM     11  C   UNL     1      -0.528   1.104  25.149  0.00  0.00    +0.186 C 
ATOM     12  C   UNL     1      -0.375   0.392  24.763  0.00  0.00    +0.229 C 
ATOM     13  C   UNL     1      -0.109   0.565  24.002  0.00  0.00    +0.188 C 
ATOM     14  O   UNL     1      -0.099   1.386  23.917  0.00  0.00    -0.348 OA
ATOM     15  C   UNL     1      -0.358   1.719  24.626  0.00  0.00    +0.166 C 
ENDROOT
BRANCH   8   7
ATOM      7  N   UNL     1      -0.416   3.187  24.691  0.00  0.00    -0.078 NA
BRANCH   7   4
ATOM      4  S   UNL     1      -0.881   3.812  24.963  0.00  0.00    +0.057 S 
ATOM      5  O   UNL     1      -0.290   4.020  25.499  0.00  0.00    -0.156 OA
ATOM      6  O   UNL     1      -1.473   3.604  24.427  0.00  0.00    -0.156 OA
BRANCH   4   3
ATOM      3  C   UNL     1      -1.346   4.437  25.233  0.00  0.00    +0.171 C 
BRANCH   3   2
ATOM      1  C   UNL     1      -1.795   5.782  25.058  0.00  0.00    +0.002 C 
ATOM      2  C   UNL     1      -1.222   5.199  24.943  0.00  0.00    +0.027 C 
ENDBRANCH   3   2
ENDBRANCH   4   3
ENDBRANCH   7   4
ENDBRANCH   8   7
BRANCH  12  16
ATOM     16  O   UNL     1      -0.470  -0.363  25.083  0.00  0.00    -0.432 OA
BRANCH  16  17
ATOM     17  C   UNL     1      -1.064  -0.860  24.799  0.00  0.00    +0.425 C 
ATOM     18  O   UNL     1      -1.071  -1.081  24.004  0.00  0.00    -0.224 OA
ATOM     19  N   UNL     1      -1.650  -1.136  25.308  0.00  0.00    -0.142 NA
BRANCH  19  20
ATOM     20  C   UNL     1      -2.245  -1.633  25.024  0.00  0.00    +0.077 A 
ATOM     21  C   UNL     1      -2.064  -2.405  24.800  0.00  0.00    +0.020 A 
ATOM     22  C   UNL     1      -2.657  -2.902  24.516  0.00  0.00    +0.038 A 
ATOM     23  C   UNL     1      -3.433  -2.626  24.456  0.00  0.00    +0.139 A 
ATOM     26  C   UNL     1      -3.614  -1.853  24.680  0.00  0.00    +0.038 A 
ATOM     27  C   UNL     1      -3.020  -1.356  24.964  0.00  0.00    +0.020 A 
BRANCH  23  24
ATOM     24  O   UNL     1      -4.027  -3.122  24.172  0.00  0.00    -0.471 OA
ATOM     25  C   UNL     1      -4.585  -2.833  23.637  0.00  0.00    +0.252 C 
ENDBRANCH  23  24
ENDBRANCH  19  20
ENDBRANCH  16  17
ENDBRANCH  12  16
TORSDOF 8
ENDMDL
MODEL 2
REMARK VINA RESULT:      -7.8      2.336      2.982
REMARK  Name = 
REMARK  8 active torsions:
REMARK  status: ('A' for Active; 'I' for Inactive)
REMARK    1  A    between atoms: C_2  and  C_3
REMARK    2  A    between atoms: C_3  and  S_4
REMARK    3  A    between atoms: S_4  and  N_7
REMARK    4  A    between atoms: N_7  and  C_8
REMARK    5  A    between atoms: C_12  and  O_16
REMARK    6  A    between atoms: O_16  and  C_17
REMARK    7  A    between atoms: N_19  and  C_20
REMARK    8  A    between atoms: C_23  and  O_24
REMARK                            x       y       z     vdW  Elec       q    Type
REMARK                         _______ _______ _______ _____ _____    ______ ____
ROOT
ATOM      8  C   UNL     1      -3.401   3.389  24.952  0.00  0.00    +0.156 C 
ATOM      9  C   UNL     1      -3.119   3.136  24.219  0.00  0.00    +0.164 C 
ATOM     10  O   UNL     1      -3.540   2.460  24.005  0.00  0.00    -0.348 OA
ATOM     11  C   UNL     1      -4.082   2.296  24.603  0.00  0.00    +0.186 C 
ATOM     12  C   UNL     1      -4.678   1.777  24.842  0.00  0.00    +0.229 C 
ATOM     13  C   UNL     1      -4.960   2.030  25.574  0.00  0.00    +0.188 C 
ATOM     14  O   UNL     1      -4.538   2.706  25.789  0.00  0.00    -0.348 OA
ATOM     15  C   UNL     1      -3.996   2.870  25.189  0.00  0.00    +0.166 C 
ENDROOT
BRANCH   8   7
ATOM      7  N   UNL     1      -3.134   4.046  25.373  0.00  0.00    -0.078 NA
BRANCH   7   4
ATOM      4  S   UNL     1      -2.351   4.295  25.297  0.00  0.00    +0.057 S 
ATOM      5  O   UNL     1      -2.568   4.793  24.676  0.00  0.00    -0.156 OA
ATOM      6  O   UNL     1      -2.132   3.798  25.919  0.00  0.00    -0.156 OA
BRANCH   4   3
ATOM      3  C   UNL     1      -1.567   4.544  25.222  0.00  0.00    +0.171 C 
BRANCH   3   2
ATOM      1  C   UNL     1      -0.641   5.562  24.838  0.00  0.00    +0.002 C 
ATOM      2  C   UNL     1      -1.399   5.338  25.074  0.00  0.00    +0.027 C 
ENDBRANCH   3   2
ENDBRANCH   4   3
ENDBRANCH   7   4
ENDBRANCH   8   7
BRANCH  12  16
ATOM     16  O   UNL     1      -4.945   1.120  24.420  0.00  0.00    -0.432 OA
BRANCH  16  17
ATOM     17  C   UNL     1      -4.661   0.368  24.605  0.00  0.00    +0.425 C 
ATOM     18  O   UNL     1      -4.751   0.068  25.368  0.00  0.00    -0.224 OA
ATOM     19  N   UNL     1      -4.286  -0.085  24.027  0.00  0.00    -0.142 NA
BRANCH  19  20
ATOM     20  C   UNL     1      -4.001  -0.837  24.211  0.00  0.00    +0.077 A 
ATOM     21  C   UNL     1      -4.385  -1.507  23.921  0.00  0.00    +0.020 A 
ATOM     22  C   UNL     1      -4.101  -2.258  24.105  0.00  0.00    +0.038 A 
ATOM     23  C   UNL     1      -3.431  -2.341  24.580  0.00  0.00    +0.139 A 
ATOM     26  C   UNL     1      -3.046  -1.671  24.871  0.00  0.00    +0.038 A 
ATOM     27  C   UNL     1      -3.331  -0.919  24.686  0.00  0.00    +0.020 A 
BRANCH  23  24
ATOM     24  O   UNL     1      -3.146  -3.092  24.765  0.00  0.00    -0.471 OA
ATOM     25  C   UNL     1      -2.371  -3.298  24.570  0.00  0.00    +0.252 C 
ENDBRANCH  23  24
ENDBRANCH  19  20
ENDBRANCH  16  17
ENDBRANCH  12  16
TORSDOF 8
ENDMDL
MODEL 3
REMARK VINA RESULT:      -7.7      1.530      5.600
REMARK  Name = 
REMARK  8 active torsions:
REMARK  status: ('A' for Active; 'I' for Inactive)
REMARK    1  A    between atoms: C_2  and  C_3
REMARK    2  A    between atoms: C_3  and  S_4
REMARK    3  A    between atoms: S_4  and  N_7
REMARK    4  A    between atoms: N_7  and  C_8
REMARK    5  A    between atoms: C_12  and  O_16
REMARK    6  A    between atoms: O_16  and  C_17
REMARK    7  A    between atoms: N_19  and  C_20
REMARK    8  A    between atoms: C_23  and  O_24
REMARK                            x       y       z     vdW  Elec       q    Type
REMARK                         _______ _______ _______ _____ _____    ______ ____
ROOT
ATOM      8  C   UNL     1      -1.223  -1.073  24.759  0.00  0.00    +0.156 C 
ATOM      9  C   UNL     1      -1.368  -0.939  25.559  0.00  0.00    +0.164 C 
ATOM     10  O   UNL     1      -1.040  -0.208  25.757  0.00  0.00    -0.348 OA
ATOM     11  C   UNL     1      -0.692   0.108  25.080  0.00  0.00    +0.186 C 
ATOM     12  C   UNL     1      -0.274   0.754  24.783  0.00  0.00    +0.229 C 
ATOM     13  C   UNL     1      -0.129   0.619  23.983  0.00  0.00    +0.188 C 
ATOM     14  O   UNL     1      -0.458  -0.111  23.784  0.00  0.00    -0.348 OA
ATOM     15  C   UNL     1      -0.806  -0.427  24.463  0.00  0.00    +0.166 C 
ENDROOT
BRANCH   8   7
ATOM      7  N   UNL     1      -1.455  -1.739  24.329  0.00  0.00    -0.078 NA
BRANCH   7   4
ATOM      4  S   UNL     1      -2.161  -2.124  24.514  0.00  0.00    +0.057 S 
ATOM      5  O   UNL     1      -1.747  -2.656  24.989  0.00  0.00    -0.156 OA
ATOM      6  O   UNL     1      -2.576  -1.592  24.039  0.00  0.00    -0.156 OA
BRANCH   4   3
ATOM      3  C   UNL     1      -2.868  -2.508  24.699  0.00  0.00    +0.171 C 
BRANCH   3   2
ATOM      1  C   UNL     1      -4.135  -3.021  24.284  0.00  0.00    +0.002 C 
ATOM      2  C   UNL     1      -3.389  -2.724  24.096  0.00  0.00    +0.027 C 
ENDBRANCH   3   2
ENDBRANCH   4   3
ENDBRANCH   7   4
ENDBRANCH   8   7
BRANCH  12  16
ATOM     16  O   UNL     1      -0.042   1.420  25.213  0.00  0.00    -0.432 OA
BRANCH  16  17
ATOM     17  C   UNL     1      -0.396   2.150  25.066  0.00  0.00    +0.425 C 
ATOM     18  O   UNL     1      -0.515   2.402  24.289  0.00  0.00    -0.224 OA
ATOM     19  N   UNL     1      -0.632   2.629  25.695  0.00  0.00    -0.142 NA
BRANCH  19  20
ATOM     20  C   UNL     1      -0.986   3.359  25.548  0.00  0.00    +0.077 A 
ATOM     21  C   UNL     1      -1.778   3.481  25.744  0.00  0.00    +0.020 A 
ATOM     22  C   UNL     1      -2.132   4.211  25.597  0.00  0.00    +0.038 A 
ATOM     23  C   UNL     1      -1.694   4.820  25.254  0.00  0.00    +0.139 A 
ATOM     26  C   UNL     1      -0.902   4.699  25.057  0.00  0.00    +0.038 A 
ATOM     27  C   UNL     1      -0.548   3.968  25.204  0.00  0.00    +0.020 A 
BRANCH  23  24
ATOM     24  O   UNL     1      -2.047   5.550  25.107  0.00  0.00    -0.471 OA
ATOM     25  C   UNL     1      -1.581   6.201  24.906  0.00  0.00    +0.252 C 
ENDBRANCH  23  24
ENDBRANCH  19  20
ENDBRANCH  16  17
ENDBRANCH  12  16
TORSDOF 8
ENDMDL
MODEL 4
REMARK VINA RESULT:      -7.5      2.819      4.106
REMARK  Name = 
REMARK  8 active torsions:
REMARK  status: ('A' for Active; 'I' for Inactive)
REMARK    1  A    between atoms: C_2  and  C_3
REMARK    2  A    between atoms: C_3  and  S_4
REMARK    3  A    between atoms: S_4  and  N_7
REMARK    4  A    between atoms: N_7  and  C_8
REMARK    5  A    between atoms: C_12  and  O_16
REMARK    6  A    between atoms: O_16  and  C_17
REMARK    7  A    between atoms: N_19  and  C_20
REMARK    8  A    between atoms: C_23  and  O_24
REMARK                            x       y       z     vdW  Elec       q    Type
REMARK                         _______ _______ _______ _____ _____    ______ ____
ROOT
ATOM      8  C   UNL     1       1.105   0.430  23.188  0.00  0.00    +0.156 C 
ATOM      9  C   UNL     1       1.011  -0.388  23.136  0.00  0.00    +0.164 C 
ATOM     10  O   UNL     1       0.310  -0.588  23.521  0.00  0.00    -0.348 OA
ATOM     11  C   UNL     1      -0.029   0.105  23.812  0.00  0.00    +0.186 C 
ATOM     12  C   UNL     1      -0.671   0.410  24.229  0.00  0.00    +0.229 C 
ATOM     13  C   UNL     1      -0.578   1.228  24.281  0.00  0.00    +0.188 C 
ATOM     14  O   UNL     1       0.123   1.428  23.896  0.00  0.00    -0.348 OA
ATOM     15  C   UNL     1       0.463   0.734  23.605  0.00  0.00    +0.166 C 
ENDROOT
BRANCH   8   7
ATOM      7  N   UNL     1       1.732   0.867  22.876  0.00  0.00    -0.078 NA
BRANCH   7   4
ATOM      4  S   UNL     1       2.489   0.539  22.847  0.00  0.00    +0.057 S 
ATOM      5  O   UNL     1       2.281   0.119  22.168  0.00  0.00    -0.156 OA
ATOM      6  O   UNL     1       2.698   0.959  23.525  0.00  0.00    -0.156 OA
BRANCH   4   3
ATOM      3  C   UNL     1       3.246   0.212  22.818  0.00  0.00    +0.171 C 
BRANCH   3   2
ATOM      1  C   UNL     1       4.662   0.386  22.902  0.00  0.00    +0.002 C 
ATOM      2  C   UNL     1       3.908   0.705  22.800  0.00  0.00    +0.027 C 
ENDBRANCH   3   2
ENDBRANCH   4   3
ENDBRANCH   7   4
ENDBRANCH   8   7
BRANCH  12  16
ATOM     16  O   UNL     1      -1.299  -0.027  24.541  0.00  0.00    -0.432 OA
BRANCH  16  17
ATOM     17  C   UNL     1      -2.012   0.346  24.721  0.00  0.00    +0.425 C 
ATOM     18  O   UNL     1      -2.040   0.917  25.316  0.00  0.00    -0.224 OA
ATOM     19  N   UNL     1      -2.698   0.149  24.308  0.00  0.00    -0.142 NA
BRANCH  19  20
ATOM     20  C   UNL     1      -3.411   0.522  24.488  0.00  0.00    +0.077 A 
ATOM     21  C   UNL     1      -3.933   0.177  25.025  0.00  0.00    +0.020 A 
ATOM     22  C   UNL     1      -4.645   0.550  25.206  0.00  0.00    +0.038 A 
ATOM     23  C   UNL     1      -4.838   1.269  24.849  0.00  0.00    +0.139 A 
ATOM     26  C   UNL     1      -4.315   1.614  24.311  0.00  0.00    +0.038 A 
ATOM     27  C   UNL     1      -3.602   1.241  24.131  0.00  0.00    +0.020 A 
BRANCH  23  24
ATOM     24  O   UNL     1      -5.550   1.642  25.029  0.00  0.00    -0.471 OA
ATOM     25  C   UNL     1      -5.553   2.319  25.501  0.00  0.00    +0.252 C 
ENDBRANCH  23  24
ENDBRANCH  19  20
ENDBRANCH  16  17
ENDBRANCH  12  16
TORSDOF 8
ENDMDL
MODEL 5
REMARK VINA RESULT:      -7.4      2.455      6.200
REMARK  Name = 
REMARK  8 active torsions:
REMARK  status: ('A' for Active; 'I' for Inactive)
REMARK    1  A    between atoms: C_2  and  C_3
REMARK    2  A    between atoms: C_3  and  S_4
REMARK    3  A    between atoms: S_4  and  N_7
REMARK    4  A    between atoms: N_7  and  C_8
REMARK    5  A    between atoms: C_12  and  O_16
REMARK    6  A    between atoms: O_16  and  C_17
REMARK    7  A    between atoms: N_19  and  C_20
REMARK    8  A    between atoms: C_23  and  O_24
REMARK                            x       y       z     vdW  Elec       q    Type
REMARK                         _______ _______ _______ _____ _____    ______ ____
ROOT
ATOM      8  C   UNL     1      -4.015  -0.270  24.308  0.00  0.00    +0.156 C 
ATOM      9  C   UNL     1      -4.255  -0.213  25.095  0.00  0.00    +0.164 C 
ATOM     10  O   UNL     1      -4.269   0.586  25.299  0.00  0.00    -0.348 OA
ATOM     11  C   UNL     1      -4.037   1.022  24.639  0.00  0.00    +0.186 C 
ATOM     12  C   UNL     1      -3.902   1.785  24.356  0.00  0.00    +0.229 C 
ATOM     13  C   UNL     1      -3.662   1.728  23.569  0.00  0.00    +0.188 C 
ATOM     14  O   UNL     1      -3.649   0.929  23.365  0.00  0.00    -0.348 OA
ATOM     15  C   UNL     1      -3.881   0.493  24.026  0.00  0.00    +0.166 C 
ENDROOT
BRANCH   8   7
ATOM      7  N   UNL     1      -3.926  -0.969  23.878  0.00  0.00    -0.078 NA
BRANCH   7   4
ATOM      4  S   UNL     1      -3.810  -1.685  24.272  0.00  0.00    +0.057 S 
ATOM      5  O   UNL     1      -4.615  -1.853  24.204  0.00  0.00    -0.156 OA
ATOM      6  O   UNL     1      -3.005  -1.517  24.341  0.00  0.00    -0.156 OA
BRANCH   4   3
ATOM      3  C   UNL     1      -3.694  -2.400  24.667  0.00  0.00    +0.171 C 
BRANCH   3   2
ATOM      1  C   UNL     1      -3.301  -3.773  24.633  0.00  0.00    +0.002 C 
ATOM      2  C   UNL     1      -3.525  -3.084  24.238  0.00  0.00    +0.027 C 
ENDBRANCH   3   2
ENDBRANCH   4   3
ENDBRANCH   7   4
ENDBRANCH   8   7
BRANCH  12  16
ATOM     16  O   UNL     1      -3.992   2.484  24.786  0.00  0.00    -0.432 OA
BRANCH  16  17
ATOM     17  C   UNL     1      -3.427   3.083  24.724  0.00  0.00    +0.425 C 
ATOM     18  O   UNL     1      -3.387   3.543  24.040  0.00  0.00    -0.224 OA
ATOM     19  N   UNL     1      -2.902   3.220  25.344  0.00  0.00    -0.142 NA
BRANCH  19  20
ATOM     20  C   UNL     1      -2.337   3.818  25.282  0.00  0.00    +0.077 A 
ATOM     21  C   UNL     1      -1.558   3.632  25.086  0.00  0.00    +0.020 A 
ATOM     22  C   UNL     1      -0.993   4.229  25.024  0.00  0.00    +0.038 A 
ATOM     23  C   UNL     1      -1.208   5.015  25.158  0.00  0.00    +0.139 A 
ATOM     26  C   UNL     1      -1.987   5.202  25.355  0.00  0.00    +0.038 A 
ATOM     27  C   UNL     1      -2.551   4.604  25.416  0.00  0.00    +0.020 A 
BRANCH  23  24
ATOM     24  O   UNL     1      -0.644   5.613  25.097  0.00  0.00    -0.471 OA
ATOM     25  C   UNL     1      -0.244   5.731  24.384  0.00  0.00    +0.252 C 
ENDBRANCH  23  24
ENDBRANCH  19  20
ENDBRANCH  16  17
ENDBRANCH  12  16
TORSDOF 8
ENDMDL
MODEL 6
REMARK VINA RESULT:      -7.1      3.077      5.170
REMARK  Name = 
REMARK  8 active torsions:
REMARK  status: ('A' for Active; 'I' for Inactive)
REMARK    1  A    between atoms: C_2  and  C_3
REMARK    2  A    between atoms: C_3  and  S_4
REMARK    3  A    between atoms: S_4  and  N_7
REMARK    4  A    between atoms: N_7  and  C_8
REMARK    5  A    between atoms: C_12  and  O_16
REMARK    6  A    between atoms: O_16  and  C_17
REMARK    7  A    between atoms: N_19  and  C_20
REMARK    8  A    between atoms: C_23  and  O_24
REMARK                            x       y       z     vdW  Elec       q    Type
REMARK                         _______ _______ _______ _____ _____    ______ ____
ROOT
ATOM      8  C   UNL     1      -1.721   0.876  24.239  0.00  0.00    +0.156 C 
ATOM      9  C   UNL     1      -1.770   1.352  23.567  0.00  0.00    +0.164 C 
ATOM     10  O   UNL     1      -1.097   1.216  23.111  0.00  0.00    -0.348 OA
ATOM     11  C   UNL     1      -0.632   0.658  23.499  0.00  0.00    +0.186 C 
ATOM     12  C   UNL     1       0.071   0.228  23.458  0.00  0.00    +0.229 C 
ATOM     13  C   UNL     1       0.120  -0.248  24.130  0.00  0.00    +0.188 C 
ATOM     14  O   UNL     1      -0.553  -0.113  24.587  0.00  0.00    -0.348 OA
ATOM     15  C   UNL     1      -1.018   0.447  24.197  0.00  0.00    +0.166 C 
ENDROOT
BRANCH   8   7
ATOM      7  N   UNL     1      -2.278   0.836  24.847  0.00  0.00    -0.078 NA
BRANCH   7   4
ATOM      4  S   UNL     1      -3.032   1.152  24.737  0.00  0.00    +0.057 S 
ATOM      5  O   UNL     1      -3.293   0.429  24.439  0.00  0.00    -0.156 OA
ATOM      6  O   UNL     1      -2.772   1.876  25.035  0.00  0.00    -0.156 OA
BRANCH   4   3
ATOM      3  C   UNL     1      -3.786   1.470  24.627  0.00  0.00    +0.171 C 
BRANCH   3   2
ATOM      1  C   UNL     1      -5.156   1.564  25.023  0.00  0.00    +0.002 C 
ATOM      2  C   UNL     1      -4.415   1.207  25.092  0.00  0.00    +0.027 C 
ENDBRANCH   3   2
ENDBRANCH   4   3
ENDBRANCH   7   4
ENDBRANCH   8   7
BRANCH  12  16
ATOM     16  O   UNL     1       0.628   0.268  22.851  0.00  0.00    -0.432 OA
BRANCH  16  17
ATOM     17  C   UNL     1       1.427   0.374  23.029  0.00  0.00    +0.425 C 
ATOM     18  O   UNL     1       1.646   0.818  23.689  0.00  0.00    -0.224 OA
ATOM     19  N   UNL     1       2.006   0.037  22.548  0.00  0.00    -0.142 NA
BRANCH  19  20
ATOM     20  C   UNL     1       2.804   0.143  22.727  0.00  0.00    +0.077 A 
ATOM     21  C   UNL     1       3.227  -0.457  23.100  0.00  0.00    +0.020 A 
ATOM     22  C   UNL     1       4.025  -0.351  23.279  0.00  0.00    +0.038 A 
ATOM     23  C   UNL     1       4.401   0.357  23.083  0.00  0.00    +0.139 A 
ATOM     26  C   UNL     1       3.978   0.959  22.709  0.00  0.00    +0.038 A 
ATOM     27  C   UNL     1       3.179   0.852  22.531  0.00  0.00    +0.020 A 
BRANCH  23  24
ATOM     24  O   UNL     1       5.198   0.464  23.261  0.00  0.00    -0.471 OA
ATOM     25  C   UNL     1       5.589  -0.079  23.744  0.00  0.00    +0.252 C 
ENDBRANCH  23  24
ENDBRANCH  19  20
ENDBRANCH  16  17
ENDBRANCH  12  16
TORSDOF 8
ENDMDL
MODEL 7
REMARK VINA RESULT:      -6.8      2.965      4.615
REMARK  Name = 
REMARK  8 active torsions:
REMARK  status: ('A' for Active; 'I' for Inactive)
REMARK    1  A    between atoms: C_2  and  C_3
REMARK    2  A    between atoms: C_3  and  S_4
REMARK    3  A    between atoms: S_4  and  N_7
REMARK    4  A    between atoms: N_7  and  C_8
REMARK    5  A    between atoms: C_12  and  O_16
REMARK    6  A    between atoms: O_16  and  C_17
REMARK    7  A    between atoms: N_19  and  C_20
REMARK    8  A    between atoms: C_23  and  O_24
REMARK                            x       y       z     vdW  Elec       q    Type
REMARK                         _______ _______ _______ _____ _____    ______ ____
ROOT
ATOM      8  C   UNL     1      -0.595   0.343  23.906  0.00  0.00    +0.156 C 
ATOM      9  C   UNL     1      -0.876   0.748  23.245  0.00  0.00    +0.164 C 
ATOM     10  O   UNL     1      -1.699   0.772  23.293  0.00  0.00    -0.348 OA
ATOM     11  C   UNL     1      -1.926   0.383  23.982  0.00  0.00    +0.186 C 
ATOM     12  C   UNL     1      -2.575   0.156  24.439  0.00  0.00    +0.229 C 
ATOM     13  C   UNL     1      -2.293  -0.249  25.100  0.00  0.00    +0.188 C 
ATOM     14  O   UNL     1      -1.470  -0.273  25.052  0.00  0.00    -0.348 OA
ATOM     15  C   UNL     1      -1.243   0.117  24.362  0.00  0.00    +0.166 C 
ENDROOT
BRANCH   8   7
ATOM      7  N   UNL     1       0.198   0.191  24.080  0.00  0.00    -0.078 NA
BRANCH   7   4
ATOM      4  S   UNL     1       0.764   0.214  23.481  0.00  0.00    +0.057 S 
ATOM      5  O   UNL     1       0.891   1.015  23.630  0.00  0.00    -0.156 OA
ATOM      6  O   UNL     1       0.638  -0.587  23.330  0.00  0.00    -0.156 OA
BRANCH   4   3
ATOM      3  C   UNL     1       1.330   0.236  22.881  0.00  0.00    +0.171 C 
BRANCH   3   2
ATOM      1  C   UNL     1       2.697   0.175  22.467  0.00  0.00    +0.002 C 
ATOM      2  C   UNL     1       2.131   0.162  23.068  0.00  0.00    +0.027 C 
ENDBRANCH   3   2
ENDBRANCH   4   3
ENDBRANCH   7   4
ENDBRANCH   8   7
BRANCH  12  16
ATOM     16  O   UNL     1      -3.367   0.308  24.265  0.00  0.00    -0.432 OA
BRANCH  16  17
ATOM     17  C   UNL     1      -3.779   0.887  24.685  0.00  0.00    +0.425 C 
ATOM     18  O   UNL     1      -3.708   0.928  25.506  0.00  0.00    -0.224 OA
ATOM     19  N   UNL     1      -4.261   1.423  24.286  0.00  0.00    -0.142 NA
BRANCH  19  20
ATOM     20  C   UNL     1      -4.672   2.002  24.706  0.00  0.00    +0.077 A 
ATOM     21  C   UNL     1      -5.407   1.828  25.036  0.00  0.00    +0.020 A 
ATOM     22  C   UNL     1      -5.819   2.405  25.456  0.00  0.00    +0.038 A 
ATOM     23  C   UNL     1      -5.495   3.159  25.547  0.00  0.00    +0.139 A 
ATOM     26  C   UNL     1      -4.759   3.334  25.216  0.00  0.00    +0.038 A 
ATOM     27  C   UNL     1      -4.348   2.755  24.796  0.00  0.00    +0.020 A 
BRANCH  23  24
ATOM     24  O   UNL     1      -5.905   3.737  25.966  0.00  0.00    -0.471 OA
ATOM     25  C   UNL     1      -5.983   4.497  25.653  0.00  0.00    +0.252 C 
ENDBRANCH  23  24
ENDBRANCH  19  20
ENDBRANCH  16  17
ENDBRANCH  12  16
TORSDOF 8
ENDMDL
MODEL 8
REMARK VINA RESULT:      -5.8     16.176     18.435
REMARK  Name = 
REMARK  8 active torsions:
REMARK  status: ('A' for Active; 'I' for Inactive)
REMARK    1  A    between atoms: C_2  and  C_3
REMARK    2  A    between atoms: C_3  and  S_4
REMARK    3  A    between atoms: S_4  and  N_7
REMARK    4  A    between atoms: N_7  and  C_8
REMARK    5  A    between atoms: C_12  and  O_16
REMARK    6  A    between atoms: O_16  and  C_17
REMARK    7  A    between atoms: N_19  and  C_20
REMARK    8  A    between atoms: C_23  and  O_24
REMARK                            x       y       z     vdW  Elec       q    Type
REMARK                         _______ _______ _______ _____ _____    ______ ____
ROOT
ATOM      8  C   UNL     1      -6.624  -8.601   9.190  0.00  0.00    +0.156 C 
ATOM      9  C   UNL     1      -6.739  -9.390   8.977  0.00  0.00    +0.164 C 
ATOM     10  O   UNL     1      -6.037  -9.798   9.126  0.00  0.00    -0.348 OA
ATOM     11  C   UNL     1      -5.490  -9.262   9.430  0.00  0.00    +0.186 C 
ATOM     12  C   UNL     1      -4.718  -9.182   9.710  0.00  0.00    +0.229 C 
ATOM     13  C   UNL     1      -4.604  -8.393   9.923  0.00  0.00    +0.188 C 
ATOM     14  O   UNL     1      -5.305  -7.986   9.775  0.00  0.00    -0.348 OA
ATOM     15  C   UNL     1      -5.853  -8.522   9.470  0.00  0.00    +0.166 C 
ENDROOT
BRANCH   8   7
ATOM      7  N   UNL     1      -7.184  -7.998   9.133  0.00  0.00    -0.078 NA
BRANCH   7   4
ATOM      4  S   UNL     1      -7.961  -8.174   8.918  0.00  0.00    +0.057 S 
ATOM      5  O   UNL     1      -7.770  -8.052   8.125  0.00  0.00    -0.156 OA
ATOM      6  O   UNL     1      -8.153  -8.296   9.711  0.00  0.00    -0.156 OA
BRANCH   4   3
ATOM      3  C   UNL     1      -8.738  -8.350   8.704  0.00  0.00    +0.171 C 
BRANCH   3   2
ATOM      1  C   UNL     1     -10.079  -7.925   8.455  0.00  0.00    +0.002 C 
ATOM      2  C   UNL     1      -9.297  -7.746   8.649  0.00  0.00    +0.027 C 
ENDBRANCH   3   2
ENDBRANCH   4   3
ENDBRANCH   7   4
ENDBRANCH   8   7
BRANCH  12  16
ATOM     16  O   UNL     1      -4.158  -9.785   9.767  0.00  0.00    -0.432 OA
BRANCH  16  17
ATOM     17  C   UNL     1      -3.670  -9.835  10.431  0.00  0.00    +0.425 C 
ATOM     18  O   UNL     1      -3.171  -9.207  10.623  0.00  0.00    -0.224 OA
ATOM     19  N   UNL     1      -3.681 -10.512  10.901  0.00  0.00    -0.142 NA
BRANCH  19  20
ATOM     20  C   UNL     1      -3.193 -10.561  11.565  0.00  0.00    +0.077 A 
ATOM     21  C   UNL     1      -3.506 -10.440  12.318  0.00  0.00    +0.020 A 
ATOM     22  C   UNL     1      -3.019 -10.489  12.981  0.00  0.00    +0.038 A 
ATOM     23  C   UNL     1      -2.216 -10.660  12.891  0.00  0.00    +0.139 A 
ATOM     26  C   UNL     1      -1.902 -10.781  12.138  0.00  0.00    +0.038 A 
ATOM     27  C   UNL     1      -2.391 -10.732  11.475  0.00  0.00    +0.020 A 
BRANCH  23  24
ATOM     24  O   UNL     1      -1.728 -10.709  13.554  0.00  0.00    -0.471 OA
ATOM     25  C   UNL     1      -2.016 -10.488  14.295  0.00  0.00    +0.252 C 
ENDBRANCH  23  24
ENDBRANCH  19  20
ENDBRANCH  16  17
ENDBRANCH  12  16
TORSDOF 8
ENDMDL
MODEL 9
REMARK VINA RESULT:      -5.5     17.602     18.945
REMARK  Name = 
REMARK  8 active torsions:
REMARK  status: ('A' for Active; 'I' for Inactive)
REMARK    1  A    between atoms: C_2  and  C_3
REMARK    2  A    between atoms: C_3  and  S_4
REMARK    3  A    between atoms: S_4  and  N_7
REMARK    4  A    between atoms: N_7  and  C_8
REMARK    5  A    between atoms: C_12  and  O_16
REMARK    6  A    between atoms: O_16  and  C_17
REMARK    7  A    between atoms: N_19  and  C_20
REMARK    8  A    between atoms: C_23  and  O_24
REMARK                            x       y       z     vdW  Elec       q    Type
REMARK                         _______ _______ _______ _____ _____    ______ ____
ROOT
ATOM      8  C   UNL     1      -8.372  -7.785   8.716  0.00  0.00    +0.156 C 
ATOM      9  C   UNL     1      -8.728  -8.033   9.417  0.00  0.00    +0.164 C 
ATOM     10  O   UNL     1      -8.251  -8.616   9.752  0.00  0.00    -0.348 OA
ATOM     11  C   UNL     1      -7.600  -8.728   9.259  0.00  0.00    +0.186 C 
ATOM     12  C   UNL     1      -6.902  -9.157   9.160  0.00  0.00    +0.229 C 
ATOM     13  C   UNL     1      -6.546  -8.908   8.459  0.00  0.00    +0.188 C 
ATOM     14  O   UNL     1      -7.024  -8.325   8.124  0.00  0.00    -0.348 OA
ATOM     15  C   UNL     1      -7.675  -8.214   8.618  0.00  0.00    +0.166 C 
ENDROOT
BRANCH   8   7
ATOM      7  N   UNL     1      -8.663  -7.208   8.202  0.00  0.00    -0.078 NA
BRANCH   7   4
ATOM      4  S   UNL     1      -9.201  -6.645   8.476  0.00  0.00    +0.057 S 
ATOM      5  O   UNL     1      -8.586  -6.105   8.579  0.00  0.00    -0.156 OA
ATOM      6  O   UNL     1      -9.817  -7.184   8.373  0.00  0.00    -0.156 OA
BRANCH   4   3
ATOM      3  C   UNL     1      -9.740  -6.083   8.749  0.00  0.00    +0.171 C 
BRANCH   3   2
ATOM      1  C   UNL     1     -10.242  -4.745   8.739  0.00  0.00    +0.002 C 
ATOM      2  C   UNL     1      -9.736  -5.321   8.433  0.00  0.00    +0.027 C 
ENDBRANCH   3   2
ENDBRANCH   4   3
ENDBRANCH   7   4
ENDBRANCH   8   7
BRANCH  12  16
ATOM     16  O   UNL     1      -6.611  -9.734   9.673  0.00  0.00    -0.432 OA
BRANCH  16  17
ATOM     17  C   UNL     1      -5.798  -9.813   9.788  0.00  0.00    +0.425 C 
ATOM     18  O   UNL     1      -5.298  -9.910   9.139  0.00  0.00    -0.224 OA
ATOM     19  N   UNL     1      -5.485  -9.794  10.550  0.00  0.00    -0.142 NA
BRANCH  19  20
ATOM     20  C   UNL     1      -4.671  -9.873  10.665  0.00  0.00    +0.077 A 
ATOM     21  C   UNL     1      -4.188  -9.205  10.667  0.00  0.00    +0.020 A 
ATOM     22  C   UNL     1      -3.376  -9.283  10.781  0.00  0.00    +0.038 A 
ATOM     23  C   UNL     1      -3.045 -10.031  10.894  0.00  0.00    +0.139 A 
ATOM     26  C   UNL     1      -3.529 -10.700  10.892  0.00  0.00    +0.038 A 
ATOM     27  C   UNL     1      -4.342 -10.620  10.777  0.00  0.00    +0.020 A 
BRANCH  23  24
ATOM     24  O   UNL     1      -2.233 -10.111  11.008  0.00  0.00    -0.471 OA
ATOM     25  C   UNL     1      -1.937 -10.274  11.761  0.00  0.00    +0.252 C 
ENDBRANCH  23  24
ENDBRANCH  19  20
ENDBRANCH  16  17
ENDBRANCH  12  16
TORSDOF 8
ENDMDL
MODEL 10
REMARK VINA RESULT:      -5.3     14.609     16.832
REMARK  Name = 
REMARK  8 active torsions:
REMARK  status: ('A' for Active; 'I' for Inactive)
REMARK    1  A    between atoms: C_2  and  C_3
REMARK    2  A    between atoms: C_3  and  S_4
REMARK    3  A    between atoms: S_4  and  N_7
REMARK    4  A    between atoms: N_7  and  C_8
REMARK    5  A    between atoms: C_12  and  O_16
REMARK    6  A    between atoms: O_16  and  C_17
REMARK    7  A    between atoms: N_19  and  C_20
REMARK    8  A    between atoms: C_23  and  O_24
REMARK                            x       y       z     vdW  Elec       q    Type
REMARK                         _______ _______ _______ _____ _____    ______ ____
ROOT
ATOM      8  C   UNL     1      -6.666 -10.205  15.160  0.00  0.00    +0.156 C 
ATOM      9  C   UNL     1      -5.986  -9.859  15.474  0.00  0.00    +0.164 C 
ATOM     10  O   UNL     1      -5.404  -9.865  14.890  0.00  0.00    -0.348 OA
ATOM     11  C   UNL     1      -5.724 -10.214  14.215  0.00  0.00    +0.186 C 
ATOM     12  C   UNL     1      -5.562 -10.434  13.436  0.00  0.00    +0.229 C 
ATOM     13  C   UNL     1      -6.242 -10.780  13.122  0.00  0.00    +0.188 C 
ATOM     14  O   UNL     1      -6.824 -10.774  13.706  0.00  0.00    -0.348 OA
ATOM     15  C   UNL     1      -6.503 -10.425  14.382  0.00  0.00    +0.166 C 
ENDROOT
BRANCH   8   7
ATOM      7  N   UNL     1      -7.382 -10.313  15.555  0.00  0.00    -0.078 NA
BRANCH   7   4
ATOM      4  S   UNL     1      -7.585  -9.820  16.185  0.00  0.00    +0.057 S 
ATOM      5  O   UNL     1      -7.977  -9.315  15.664  0.00  0.00    -0.156 OA
ATOM      6  O   UNL     1      -7.192 -10.325  16.707  0.00  0.00    -0.156 OA
BRANCH   4   3
ATOM      3  C   UNL     1      -7.786  -9.328  16.815  0.00  0.00    +0.171 C 
BRANCH   3   2
ATOM      1  C   UNL     1      -8.777  -8.776  17.685  0.00  0.00    +0.002 C 
ATOM      2  C   UNL     1      -8.568  -9.293  17.077  0.00  0.00    +0.027 C 
ENDBRANCH   3   2
ENDBRANCH   4   3
ENDBRANCH   7   4
ENDBRANCH   8   7
BRANCH  12  16
ATOM     16  O   UNL     1      -4.846 -10.326  13.041  0.00  0.00    -0.432 OA
BRANCH  16  17
ATOM     17  C   UNL     1      -4.839 -10.205  12.224  0.00  0.00    +0.425 C 
ATOM     18  O   UNL     1      -5.288 -10.692  11.732  0.00  0.00    -0.224 OA
ATOM     19  N   UNL     1      -4.383  -9.599  11.900  0.00  0.00    -0.142 NA
BRANCH  19  20
ATOM     20  C   UNL     1      -4.376  -9.479  11.084  0.00  0.00    +0.077 A 
ATOM     21  C   UNL     1      -4.836  -8.881  10.751  0.00  0.00    +0.020 A 
ATOM     22  C   UNL     1      -4.829  -8.760   9.936  0.00  0.00    +0.038 A 
ATOM     23  C   UNL     1      -4.361  -9.238   9.452  0.00  0.00    +0.139 A 
ATOM     26  C   UNL     1      -3.901  -9.837   9.785  0.00  0.00    +0.038 A 
ATOM     27  C   UNL     1      -3.909  -9.957  10.601  0.00  0.00    +0.020 A 
BRANCH  23  24
ATOM     24  O   UNL     1      -4.354  -9.119   8.637  0.00  0.00    -0.471 OA
ATOM     25  C   UNL     1      -4.780  -9.623   8.142  0.00  0.00    +0.252 C 
ENDBRANCH  23  24
ENDBRANCH  19  20
ENDBRANCH  16  17
ENDBRANCH  12  16
TORSDOF 8
ENDMDL
