REMARK  Name = 
REMARK  4 active torsions:
REMARK  status: ('A' for Active; 'I' for Inactive)
REMARK    1  A    between atoms: O_2  and  C_3
REMARK    2  A    between atoms: C_10  and  C_15
REMARK    3  A    between atoms: C_15  and  C_17
REMARK    4  A    between atoms: N_22  and  C_25
REMARK                            x       y       z     vdW  Elec       q    Type
REMARK                         _______ _______ _______ _____ _____    ______ ____
ROOT
ATOM     15  C   UNL     1       4.287  -1.650   0.000  0.00  0.00    +0.077 C 
ATOM     16  C   UNL     1       4.287  -2.475   0.000  0.00  0.00    +0.010 C 
ENDROOT
BRANCH  15  10
ATOM      3  C   UNL     1       0.715  -1.238   0.000  0.00  0.00    +0.134 A 
ATOM      4  C   UNL     1       0.715  -0.412   0.000  0.00  0.00    +0.032 A 
ATOM      5  C   UNL     1       1.429   0.000   0.000  0.00  0.00    -0.023 A 
ATOM      6  C   UNL     1       1.429   0.825   0.000  0.00  0.00    +0.031 C 
ATOM      7  C   UNL     1       2.143  -0.412   0.000  0.00  0.00    -0.030 A 
ATOM      8  C   UNL     1       2.858   0.000   0.000  0.00  0.00    +0.026 C 
ATOM      9  C   UNL     1       3.572  -0.412   0.000  0.00  0.00    +0.005 C 
ATOM     10  C   UNL     1       3.572  -1.238   0.000  0.00  0.00    +0.013 C 
ATOM     11  C   UNL     1       2.858  -1.650   0.000  0.00  0.00    +0.026 C 
ATOM     12  C   UNL     1       2.143  -1.238   0.000  0.00  0.00    -0.027 A 
ATOM     13  C   UNL     1       1.429  -1.650   0.000  0.00  0.00    +0.008 A 
ATOM     14  C   UNL     1       1.429  -2.475   0.000  0.00  0.00    +0.034 C 
BRANCH   3   2
ATOM      1  C   UNL     1      -0.715  -1.238   0.000  0.00  0.00    +0.252 C 
ATOM      2  O   UNL     1       0.000  -1.650   0.000  0.00  0.00    -0.472 OA
ENDBRANCH   3   2
ENDBRANCH  15  10
BRANCH  15  17
ATOM     17  C   UNL     1       5.001  -1.238   0.000  0.00  0.00    +0.225 C 
ATOM     18  O   UNL     1       5.001  -0.412   0.000  0.00  0.00    -0.275 OA
ATOM     19  N   UNL     1       5.716  -1.650   0.000  0.00  0.00    -0.276 N 
ATOM     20  C   UNL     1       6.430  -1.238   0.000  0.00  0.00    +0.115 C 
ATOM     21  C   UNL     1       7.145  -1.650   0.000  0.00  0.00    +0.112 C 
ATOM     22  N   UNL     1       7.145  -2.475   0.000  0.00  0.00    -0.304 N 
ATOM     23  C   UNL     1       6.430  -2.888   0.000  0.00  0.00    +0.112 C 
ATOM     24  C   UNL     1       5.716  -2.475   0.000  0.00  0.00    +0.115 C 
BRANCH  22  25
ATOM     25  C   UNL     1       7.859  -2.888   0.000  0.00  0.00    +0.048 A 
ATOM     26  C   UNL     1       8.574  -2.475   0.000  0.00  0.00    +0.017 A 
ATOM     27  C   UNL     1       9.288  -2.888   0.000  0.00  0.00    +0.031 A 
ATOM     28  C   UNL     1       9.288  -3.712   0.000  0.00  0.00    +0.140 A 
ATOM     29  F   UNL     1      10.003  -4.125   0.000  0.00  0.00    -0.204 F 
ATOM     30  C   UNL     1       8.574  -4.125   0.000  0.00  0.00    +0.031 A 
ATOM     31  C   UNL     1       7.859  -3.712   0.000  0.00  0.00    +0.017 A 
ENDBRANCH  22  25
ENDBRANCH  15  17
TORSDOF 4
