MODEL 1
REMARK VINA RESULT:     -15.2      0.000      0.000
REMARK  Name = 
REMARK  5 active torsions:
REMARK  status: ('A' for Active; 'I' for Inactive)
REMARK    1  A    between atoms: C_2  and  C_4
REMARK    2  A    between atoms: C_8  and  C_10
REMARK    3  A    between atoms: C_21  and  N_22
REMARK    4  A    between atoms: N_22  and  S_23
REMARK    5  A    between atoms: S_23  and  C_26
REMARK                            x       y       z     vdW  Elec       q    Type
REMARK                         _______ _______ _______ _____ _____    ______ ____
ROOT
ATOM     10  C   UNL     1      -2.052  -0.789  25.438  0.00  0.00    +0.249 C 
ATOM     11  O   UNL     1      -1.396  -0.933  25.978  0.00  0.00    -0.270 OA
ATOM     12  N   UNL     1      -2.456  -1.527  25.200  0.00  0.00    -0.276 N 
ATOM     13  C   UNL     1      -2.546  -2.357  25.225  0.00  0.00    +0.096 C 
ATOM     14  C   UNL     1      -3.319  -2.458  24.619  0.00  0.00    +0.043 C 
ATOM     15  C   UNL     1      -3.939  -2.706  24.152  0.00  0.00    +0.011 C 
ATOM     16  C   UNL     1      -3.633  -2.100  24.327  0.00  0.00    +0.058 C 
ATOM     17  C   UNL     1      -2.884  -2.019  24.915  0.00  0.00    +0.099 C 
ATOM     18  C   UNL     1      -3.688  -1.195  24.178  0.00  0.00    +0.041 A 
ATOM     19  C   UNL     1      -4.133  -0.641  23.759  0.00  0.00    +0.014 A 
ATOM     20  C   UNL     1      -3.949   0.162  23.813  0.00  0.00    +0.024 A 
ATOM     21  C   UNL     1      -3.320   0.410  24.286  0.00  0.00    +0.147 A 
ATOM     32  C   UNL     1      -2.876  -0.144  24.705  0.00  0.00    +0.277 A 
ATOM     33  O   UNL     1      -2.556   0.651  24.869  0.00  0.00    -0.266 OA
ATOM     34  N   UNL     1      -3.059  -0.946  24.651  0.00  0.00    -0.298 N 
ATOM     35  C   UNL     1      -3.370  -1.511  24.469  0.00  0.00    +0.110 C 
ENDROOT
BRANCH  10   8
ATOM      4  C   UNL     1      -2.688   0.982  23.951  0.00  0.00    +0.080 A 
ATOM      5  C   UNL     1      -3.466   1.383  24.166  0.00  0.00    +0.007 A 
ATOM      6  C   UNL     1      -3.628   0.735  25.055  0.00  0.00    +0.000 A 
ATOM      7  C   UNL     1      -3.183   0.119  25.377  0.00  0.00    +0.005 A 
ATOM      8  C   UNL     1      -2.475  -0.108  25.021  0.00  0.00    +0.054 A 
ATOM      9  C   UNL     1      -2.210   0.279  24.344  0.00  0.00    +0.011 A 
BRANCH   4   2
ATOM      1  O   UNL     1      -3.064   1.810  22.467  0.00  0.00    -0.241 OA
ATOM      2  C   UNL     1      -2.510   1.525  23.170  0.00  0.00    +0.388 C 
ATOM      3  O   UNL     1      -1.551   1.752  23.246  0.00  0.00    -0.241 OA
ENDBRANCH   4   2
ENDBRANCH  10   8
BRANCH  21  22
ATOM     22  N   UNL     1      -3.003   1.289  24.437  0.00  0.00    -0.092 NA
BRANCH  22  23
ATOM     23  S   UNL     1      -3.686   1.796  24.785  0.00  0.00    +0.093 S 
ATOM     24  O   UNL     1      -4.353   1.769  24.120  0.00  0.00    -0.148 OA
ATOM     25  O   UNL     1      -3.152   1.949  25.566  0.00  0.00    -0.148 OA
BRANCH  23  26
ATOM     26  C   UNL     1      -4.339   2.225  25.010  0.00  0.00    +0.127 A 
ATOM     27  C   UNL     1      -4.117   2.969  25.289  0.00  0.00    +0.020 A 
ATOM     28  C   UNL     1      -4.693   3.500  25.548  0.00  0.00    +0.001 A 
ATOM     29  C   UNL     1      -5.490   3.287  25.528  0.00  0.00    +0.000 A 
ATOM     30  C   UNL     1      -5.711   2.543  25.249  0.00  0.00    +0.001 A 
ATOM     31  C   UNL     1      -5.136   2.012  24.990  0.00  0.00    +0.020 A 
ENDBRANCH  23  26
ENDBRANCH  22  23
ENDBRANCH  21  22
TORSDOF 5
ENDMDL
MODEL 2
REMARK VINA RESULT:     -13.8      1.070      3.854
REMARK  Name = 
REMARK  5 active torsions:
REMARK  status: ('A' for Active; 'I' for Inactive)
REMARK    1  A    between atoms: C_2  and  C_4
REMARK    2  A    between atoms: C_8  and  C_10
REMARK    3  A    between atoms: C_21  and  N_22
REMARK    4  A    between atoms: N_22  and  S_23
REMARK    5  A    between atoms: S_23  and  C_26
REMARK                            x       y       z     vdW  Elec       q    Type
REMARK                         _______ _______ _______ _____ _____    ______ ____
ROOT
ATOM     10  C   UNL     1      -2.832   1.970  23.025  0.00  0.00    +0.249 C 
ATOM     11  O   UNL     1      -2.543   2.214  22.249  0.00  0.00    -0.270 OA
ATOM     12  N   UNL     1      -3.373   2.558  23.378  0.00  0.00    -0.276 N 
ATOM     13  C   UNL     1      -3.786   3.284  23.357  0.00  0.00    +0.096 C 
ATOM     14  C   UNL     1      -4.246   3.239  24.231  0.00  0.00    +0.043 C 
ATOM     15  C   UNL     1      -4.688   3.352  24.906  0.00  0.00    +0.011 C 
ATOM     16  C   UNL     1      -4.256   2.864  24.644  0.00  0.00    +0.058 C 
ATOM     17  C   UNL     1      -3.819   2.923  23.797  0.00  0.00    +0.099 C 
ATOM     18  C   UNL     1      -3.888   2.046  24.843  0.00  0.00    +0.041 A 
ATOM     19  C   UNL     1      -3.883   1.474  25.437  0.00  0.00    +0.014 A 
ATOM     20  C   UNL     1      -3.431   0.789  25.346  0.00  0.00    +0.024 A 
ATOM     21  C   UNL     1      -2.985   0.678  24.661  0.00  0.00    +0.147 A 
ATOM     32  C   UNL     1      -2.990   1.250  24.067  0.00  0.00    +0.277 A 
ATOM     33  O   UNL     1      -2.469   0.596  23.819  0.00  0.00    -0.266 OA
ATOM     34  N   UNL     1      -3.441   1.934  24.158  0.00  0.00    -0.298 N 
ATOM     35  C   UNL     1      -3.856   2.384  24.430  0.00  0.00    +0.110 C 
ENDROOT
BRANCH  10   8
ATOM      4  C   UNL     1      -2.099   0.434  24.714  0.00  0.00    +0.080 A 
ATOM      5  C   UNL     1      -2.676  -0.239  24.876  0.00  0.00    +0.007 A 
ATOM      6  C   UNL     1      -3.407   0.121  24.120  0.00  0.00    +0.000 A 
ATOM      7  C   UNL     1      -3.401   0.770  23.610  0.00  0.00    +0.005 A 
ATOM      8  C   UNL     1      -2.759   1.289  23.612  0.00  0.00    +0.054 A 
ATOM      9  C   UNL     1      -2.125   1.159  24.123  0.00  0.00    +0.011 A 
BRANCH   4   2
ATOM      1  O   UNL     1      -1.519  -0.176  26.237  0.00  0.00    -0.241 OA
ATOM      2  C   UNL     1      -1.437   0.154  25.361  0.00  0.00    +0.388 C 
ATOM      3  O   UNL     1      -0.574   0.288  24.900  0.00  0.00    -0.241 OA
ENDBRANCH   4   2
ENDBRANCH  10   8
BRANCH  21  22
ATOM     22  N   UNL     1      -2.428  -0.052  24.429  0.00  0.00    -0.092 NA
BRANCH  22  23
ATOM     23  S   UNL     1      -2.930  -0.821  24.427  0.00  0.00    +0.093 S 
ATOM     24  O   UNL     1      -2.845  -1.147  23.546  0.00  0.00    -0.148 OA
ATOM     25  O   UNL     1      -3.141  -0.667  25.348  0.00  0.00    -0.148 OA
BRANCH  23  26
ATOM     26  C   UNL     1      -3.348  -1.512  24.330  0.00  0.00    +0.127 A 
ATOM     27  C   UNL     1      -2.957  -2.142  24.691  0.00  0.00    +0.020 A 
ATOM     28  C   UNL     1      -3.283  -2.900  24.662  0.00  0.00    +0.001 A 
ATOM     29  C   UNL     1      -3.999  -3.026  24.273  0.00  0.00    +0.000 A 
ATOM     30  C   UNL     1      -4.390  -2.396  23.912  0.00  0.00    +0.001 A 
ATOM     31  C   UNL     1      -4.064  -1.639  23.940  0.00  0.00    +0.020 A 
ENDBRANCH  23  26
ENDBRANCH  22  23
ENDBRANCH  21  22
TORSDOF 5
ENDMDL
MODEL 3
REMARK VINA RESULT:     -13.8      1.391      3.840
REMARK  Name = 
REMARK  5 active torsions:
REMARK  status: ('A' for Active; 'I' for Inactive)
REMARK    1  A    between atoms: C_2  and  C_4
REMARK    2  A    between atoms: C_8  and  C_10
REMARK    3  A    between atoms: C_21  and  N_22
REMARK    4  A    between atoms: N_22  and  S_23
REMARK    5  A    between atoms: S_23  and  C_26
REMARK                            x       y       z     vdW  Elec       q    Type
REMARK                         _______ _______ _______ _____ _____    ______ ____
ROOT
ATOM     10  C   UNL     1      -2.458   2.045  23.066  0.00  0.00    +0.249 C 
ATOM     11  O   UNL     1      -2.446   2.352  22.260  0.00  0.00    -0.270 OA
ATOM     12  N   UNL     1      -1.793   2.345  23.547  0.00  0.00    -0.276 N 
ATOM     13  C   UNL     1      -1.102   2.805  23.641  0.00  0.00    +0.096 C 
ATOM     14  C   UNL     1      -0.897   2.604  24.586  0.00  0.00    +0.043 C 
ATOM     15  C   UNL     1      -0.595   2.542  25.340  0.00  0.00    +0.011 C 
ATOM     16  C   UNL     1      -1.138   2.286  24.976  0.00  0.00    +0.058 C 
ATOM     17  C   UNL     1      -1.324   2.491  24.062  0.00  0.00    +0.099 C 
ATOM     18  C   UNL     1      -1.867   1.733  25.061  0.00  0.00    +0.041 A 
ATOM     19  C   UNL     1      -2.247   1.255  25.616  0.00  0.00    +0.014 A 
ATOM     20  C   UNL     1      -2.930   0.843  25.406  0.00  0.00    +0.024 A 
ATOM     21  C   UNL     1      -3.232   0.908  24.641  0.00  0.00    +0.147 A 
ATOM     32  C   UNL     1      -2.852   1.386  24.086  0.00  0.00    +0.277 A 
ATOM     33  O   UNL     1      -3.551   1.023  23.710  0.00  0.00    -0.266 OA
ATOM     34  N   UNL     1      -2.169   1.798  24.296  0.00  0.00    -0.298 N 
ATOM     35  C   UNL     1      -1.660   2.027  24.666  0.00  0.00    +0.110 C 
ENDROOT
BRANCH  10   8
ATOM      4  C   UNL     1      -4.107   1.101  24.531  0.00  0.00    +0.080 A 
ATOM      5  C   UNL     1      -3.959   0.238  24.745  0.00  0.00    +0.007 A 
ATOM      6  C   UNL     1      -3.030   0.180  24.136  0.00  0.00    +0.000 A 
ATOM      7  C   UNL     1      -2.641   0.737  23.668  0.00  0.00    +0.005 A 
ATOM      8  C   UNL     1      -2.945   1.500  23.596  0.00  0.00    +0.054 A 
ATOM      9  C   UNL     1      -3.639   1.707  23.991  0.00  0.00    +0.011 A 
BRANCH   4   2
ATOM      1  O   UNL     1      -5.156   0.880  25.901  0.00  0.00    -0.241 OA
ATOM      2  C   UNL     1      -4.918   1.193  25.048  0.00  0.00    +0.388 C 
ATOM      3  O   UNL     1      -5.516   1.727  24.470  0.00  0.00    -0.241 OA
ENDBRANCH   4   2
ENDBRANCH  10   8
BRANCH  21  22
ATOM     22  N   UNL     1      -3.999   0.495  24.270  0.00  0.00    -0.092 NA
BRANCH  22  23
ATOM     23  S   UNL     1      -3.898  -0.417  24.314  0.00  0.00    +0.093 S 
ATOM     24  O   UNL     1      -3.889  -0.601  25.239  0.00  0.00    -0.148 OA
ATOM     25  O   UNL     1      -3.883  -0.446  23.357  0.00  0.00    -0.148 OA
BRANCH  23  26
ATOM     26  C   UNL     1      -3.811  -1.213  24.453  0.00  0.00    +0.127 A 
ATOM     27  C   UNL     1      -4.203  -1.654  23.876  0.00  0.00    +0.020 A 
ATOM     28  C   UNL     1      -4.189  -2.478  23.906  0.00  0.00    +0.001 A 
ATOM     29  C   UNL     1      -3.783  -2.862  24.513  0.00  0.00    +0.000 A 
ATOM     30  C   UNL     1      -3.391  -2.421  25.090  0.00  0.00    +0.001 A 
ATOM     31  C   UNL     1      -3.405  -1.597  25.060  0.00  0.00    +0.020 A 
ENDBRANCH  23  26
ENDBRANCH  22  23
ENDBRANCH  21  22
TORSDOF 5
ENDMDL
MODEL 4
REMARK VINA RESULT:     -13.7      1.329      4.005
REMARK  Name = 
REMARK  5 active torsions:
REMARK  status: ('A' for Active; 'I' for Inactive)
REMARK    1  A    between atoms: C_2  and  C_4
REMARK    2  A    between atoms: C_8  and  C_10
REMARK    3  A    between atoms: C_21  and  N_22
REMARK    4  A    between atoms: N_22  and  S_23
REMARK    5  A    between atoms: S_23  and  C_26
REMARK                            x       y       z     vdW  Elec       q    Type
REMARK                         _______ _______ _______ _____ _____    ______ ____
ROOT
ATOM     10  C   UNL     1      -4.302   3.296  24.800  0.00  0.00    +0.249 C 
ATOM     11  O   UNL     1      -5.072   3.680  24.746  0.00  0.00    -0.270 OA
ATOM     12  N   UNL     1      -3.757   3.718  25.336  0.00  0.00    -0.276 N 
ATOM     13  C   UNL     1      -3.577   4.343  25.861  0.00  0.00    +0.096 C 
ATOM     14  C   UNL     1      -2.646   4.106  26.089  0.00  0.00    +0.043 C 
ATOM     15  C   UNL     1      -1.885   4.050  26.374  0.00  0.00    +0.011 C 
ATOM     16  C   UNL     1      -2.303   3.692  25.938  0.00  0.00    +0.058 C 
ATOM     17  C   UNL     1      -3.203   3.935  25.728  0.00  0.00    +0.099 C 
ATOM     18  C   UNL     1      -2.315   2.948  25.399  0.00  0.00    +0.041 A 
ATOM     19  C   UNL     1      -1.833   2.325  25.157  0.00  0.00    +0.014 A 
ATOM     20  C   UNL     1      -2.122   1.761  24.629  0.00  0.00    +0.024 A 
ATOM     21  C   UNL     1      -2.893   1.821  24.342  0.00  0.00    +0.147 A 
ATOM     32  C   UNL     1      -3.376   2.444  24.584  0.00  0.00    +0.277 A 
ATOM     33  O   UNL     1      -3.826   1.942  24.031  0.00  0.00    -0.266 OA
ATOM     34  N   UNL     1      -3.087   3.008  25.112  0.00  0.00    -0.298 N 
ATOM     35  C   UNL     1      -2.668   3.331  25.523  0.00  0.00    +0.110 C 
ENDROOT
BRANCH  10   8
ATOM      4  C   UNL     1      -3.010   1.778  23.466  0.00  0.00    +0.080 A 
ATOM      5  C   UNL     1      -2.901   0.964  23.836  0.00  0.00    +0.007 A 
ATOM      6  C   UNL     1      -3.488   1.226  24.742  0.00  0.00    +0.000 A 
ATOM      7  C   UNL     1      -3.873   1.920  24.970  0.00  0.00    +0.005 A 
ATOM      8  C   UNL     1      -3.857   2.580  24.476  0.00  0.00    +0.054 A 
ATOM      9  C   UNL     1      -3.457   2.548  23.755  0.00  0.00    +0.011 A 
BRANCH   4   2
ATOM      1  O   UNL     1      -1.705   1.120  22.521  0.00  0.00    -0.241 OA
ATOM      2  C   UNL     1      -2.506   1.590  22.662  0.00  0.00    +0.388 C 
ATOM      3  O   UNL     1      -3.030   2.019  21.941  0.00  0.00    -0.241 OA
ENDBRANCH   4   2
ENDBRANCH  10   8
BRANCH  21  22
ATOM     22  N   UNL     1      -3.347   1.250  23.738  0.00  0.00    -0.092 NA
BRANCH  22  23
ATOM     23  S   UNL     1      -3.354   0.398  24.081  0.00  0.00    +0.093 S 
ATOM     24  O   UNL     1      -4.270   0.187  24.150  0.00  0.00    -0.148 OA
ATOM     25  O   UNL     1      -2.397   0.412  24.092  0.00  0.00    -0.148 OA
BRANCH  23  26
ATOM     26  C   UNL     1      -3.459  -0.351  24.381  0.00  0.00    +0.127 A 
ATOM     27  C   UNL     1      -3.873  -0.823  23.846  0.00  0.00    +0.020 A 
ATOM     28  C   UNL     1      -4.043  -1.607  24.035  0.00  0.00    +0.001 A 
ATOM     29  C   UNL     1      -3.800  -1.920  24.759  0.00  0.00    +0.000 A 
ATOM     30  C   UNL     1      -3.385  -1.447  25.293  0.00  0.00    +0.001 A 
ATOM     31  C   UNL     1      -3.215  -0.663  25.104  0.00  0.00    +0.020 A 
ENDBRANCH  23  26
ENDBRANCH  22  23
ENDBRANCH  21  22
TORSDOF 5
ENDMDL
MODEL 5
REMARK VINA RESULT:     -13.7      1.110      2.079
REMARK  Name = 
REMARK  5 active torsions:
REMARK  status: ('A' for Active; 'I' for Inactive)
REMARK    1  A    between atoms: C_2  and  C_4
REMARK    2  A    between atoms: C_8  and  C_10
REMARK    3  A    between atoms: C_21  and  N_22
REMARK    4  A    between atoms: N_22  and  S_23
REMARK    5  A    between atoms: S_23  and  C_26
REMARK                            x       y       z     vdW  Elec       q    Type
REMARK                         _______ _______ _______ _____ _____    ______ ____
ROOT
ATOM     10  C   UNL     1      -3.413  -1.205  25.997  0.00  0.00    +0.249 C 
ATOM     11  O   UNL     1      -3.227  -1.490  26.789  0.00  0.00    -0.270 OA
ATOM     12  N   UNL     1      -3.537  -1.857  25.429  0.00  0.00    -0.276 N 
ATOM     13  C   UNL     1      -3.571  -2.670  25.237  0.00  0.00    +0.096 C 
ATOM     14  C   UNL     1      -3.794  -2.604  24.277  0.00  0.00    +0.043 C 
ATOM     15  C   UNL     1      -3.974  -2.720  23.491  0.00  0.00    +0.011 C 
ATOM     16  C   UNL     1      -3.879  -2.178  23.927  0.00  0.00    +0.058 C 
ATOM     17  C   UNL     1      -3.665  -2.258  24.854  0.00  0.00    +0.099 C 
ATOM     18  C   UNL     1      -3.885  -1.259  23.947  0.00  0.00    +0.041 A 
ATOM     19  C   UNL     1      -4.006  -0.609  23.455  0.00  0.00    +0.014 A 
ATOM     20  C   UNL     1      -3.945   0.156  23.759  0.00  0.00    +0.024 A 
ATOM     21  C   UNL     1      -3.763   0.269  24.556  0.00  0.00    +0.147 A 
ATOM     32  C   UNL     1      -3.642  -0.382  25.048  0.00  0.00    +0.277 A 
ATOM     33  O   UNL     1      -3.541   0.346  25.519  0.00  0.00    -0.266 OA
ATOM     34  N   UNL     1      -3.703  -1.146  24.744  0.00  0.00    -0.298 N 
ATOM     35  C   UNL     1      -3.798  -1.644  24.307  0.00  0.00    +0.110 C 
ENDROOT
BRANCH  10   8
ATOM      4  C   UNL     1      -4.273   0.829  25.061  0.00  0.00    +0.080 A 
ATOM      5  C   UNL     1      -3.695   1.258  24.518  0.00  0.00    +0.007 A 
ATOM      6  C   UNL     1      -2.900   0.494  24.655  0.00  0.00    +0.000 A 
ATOM      7  C   UNL     1      -2.873  -0.203  25.097  0.00  0.00    +0.005 A 
ATOM      8  C   UNL     1      -3.527  -0.432  25.544  0.00  0.00    +0.054 A 
ATOM      9  C   UNL     1      -4.207   0.033  25.550  0.00  0.00    +0.011 A 
BRANCH   4   2
ATOM      1  O   UNL     1      -5.282   1.983  24.237  0.00  0.00    -0.241 OA
ATOM      2  C   UNL     1      -4.990   1.471  24.969  0.00  0.00    +0.388 C 
ATOM      3  O   UNL     1      -5.408   1.499  25.864  0.00  0.00    -0.241 OA
ENDBRANCH   4   2
ENDBRANCH  10   8
BRANCH  21  22
ATOM     22  N   UNL     1      -3.662   1.082  25.031  0.00  0.00    -0.092 NA
BRANCH  22  23
ATOM     23  S   UNL     1      -2.985   1.570  24.648  0.00  0.00    +0.093 S 
ATOM     24  O   UNL     1      -2.353   1.666  25.341  0.00  0.00    -0.148 OA
ATOM     25  O   UNL     1      -3.482   1.587  23.830  0.00  0.00    -0.148 OA
BRANCH  23  26
ATOM     26  C   UNL     1      -2.339   1.995  24.397  0.00  0.00    +0.127 A 
ATOM     27  C   UNL     1      -2.232   2.665  24.867  0.00  0.00    +0.020 A 
ATOM     28  C   UNL     1      -1.607   3.181  24.712  0.00  0.00    +0.001 A 
ATOM     29  C   UNL     1      -1.089   3.026  24.088  0.00  0.00    +0.000 A 
ATOM     30  C   UNL     1      -1.197   2.356  23.619  0.00  0.00    +0.001 A 
ATOM     31  C   UNL     1      -1.822   1.841  23.773  0.00  0.00    +0.020 A 
ENDBRANCH  23  26
ENDBRANCH  22  23
ENDBRANCH  21  22
TORSDOF 5
ENDMDL
MODEL 6
REMARK VINA RESULT:     -13.4      1.550      2.364
REMARK  Name = 
REMARK  5 active torsions:
REMARK  status: ('A' for Active; 'I' for Inactive)
REMARK    1  A    between atoms: C_2  and  C_4
REMARK    2  A    between atoms: C_8  and  C_10
REMARK    3  A    between atoms: C_21  and  N_22
REMARK    4  A    between atoms: N_22  and  S_23
REMARK    5  A    between atoms: S_23  and  C_26
REMARK                            x       y       z     vdW  Elec       q    Type
REMARK                         _______ _______ _______ _____ _____    ______ ____
ROOT
ATOM     10  C   UNL     1      -4.323   0.510  25.166  0.00  0.00    +0.249 C 
ATOM     11  O   UNL     1      -5.123   0.471  25.485  0.00  0.00    -0.270 OA
ATOM     12  N   UNL     1      -3.894  -0.246  25.252  0.00  0.00    -0.276 N 
ATOM     13  C   UNL     1      -3.850  -1.044  25.499  0.00  0.00    +0.096 C 
ATOM     14  C   UNL     1      -2.927  -1.254  25.216  0.00  0.00    +0.043 C 
ATOM     15  C   UNL     1      -2.200  -1.580  25.046  0.00  0.00    +0.011 C 
ATOM     16  C   UNL     1      -2.522  -0.962  24.965  0.00  0.00    +0.058 C 
ATOM     17  C   UNL     1      -3.416  -0.775  25.245  0.00  0.00    +0.099 C 
ATOM     18  C   UNL     1      -2.386  -0.116  24.634  0.00  0.00    +0.041 A 
ATOM     19  C   UNL     1      -1.808   0.341  24.262  0.00  0.00    +0.014 A 
ATOM     20  C   UNL     1      -1.968   1.125  24.064  0.00  0.00    +0.024 A 
ATOM     21  C   UNL     1      -2.705   1.453  24.237  0.00  0.00    +0.147 A 
ATOM     32  C   UNL     1      -3.282   0.996  24.609  0.00  0.00    +0.277 A 
ATOM     33  O   UNL     1      -3.606   1.795  24.468  0.00  0.00    -0.266 OA
ATOM     34  N   UNL     1      -3.123   0.212  24.807  0.00  0.00    -0.298 N 
ATOM     35  C   UNL     1      -2.793  -0.367  24.872  0.00  0.00    +0.110 C 
ENDROOT
BRANCH  10   8
ATOM      4  C   UNL     1      -3.160   1.892  23.588  0.00  0.00    +0.080 A 
ATOM      5  C   UNL     1      -2.491   2.378  23.946  0.00  0.00    +0.007 A 
ATOM      6  C   UNL     1      -2.664   1.980  24.970  0.00  0.00    +0.000 A 
ATOM      7  C   UNL     1      -3.212   1.438  25.267  0.00  0.00    +0.005 A 
ATOM      8  C   UNL     1      -3.762   1.090  24.761  0.00  0.00    +0.054 A 
ATOM      9  C   UNL     1      -3.766   1.281  23.959  0.00  0.00    +0.011 A 
BRANCH   4   2
ATOM      1  O   UNL     1      -2.347   2.097  22.063  0.00  0.00    -0.241 OA
ATOM      2  C   UNL     1      -3.043   2.213  22.684  0.00  0.00    +0.388 C 
ATOM      3  O   UNL     1      -3.861   2.738  22.504  0.00  0.00    -0.241 OA
ENDBRANCH   4   2
ENDBRANCH  10   8
BRANCH  21  22
ATOM     22  N   UNL     1      -3.018   2.330  24.067  0.00  0.00    -0.092 NA
BRANCH  22  23
ATOM     23  S   UNL     1      -2.444   2.933  24.457  0.00  0.00    +0.093 S 
ATOM     24  O   UNL     1      -1.635   2.812  23.989  0.00  0.00    -0.148 OA
ATOM     25  O   UNL     1      -3.153   3.205  25.041  0.00  0.00    -0.148 OA
BRANCH  23  26
ATOM     26  C   UNL     1      -1.868   3.433  24.738  0.00  0.00    +0.127 A 
ATOM     27  C   UNL     1      -2.187   4.170  24.924  0.00  0.00    +0.020 A 
ATOM     28  C   UNL     1      -1.701   4.767  25.220  0.00  0.00    +0.001 A 
ATOM     29  C   UNL     1      -0.896   4.626  25.330  0.00  0.00    +0.000 A 
ATOM     30  C   UNL     1      -0.576   3.889  25.144  0.00  0.00    +0.001 A 
ATOM     31  C   UNL     1      -1.063   3.292  24.848  0.00  0.00    +0.020 A 
ENDBRANCH  23  26
ENDBRANCH  22  23
ENDBRANCH  21  22
TORSDOF 5
ENDMDL
