MODEL 1
REMARK VINA RESULT:     -15.9      0.000      0.000
REMARK  Name = 
REMARK  4 active torsions:
REMARK  status: ('A' for Active; 'I' for Inactive)
REMARK    1  A    between atoms: N_4  and  C_5
REMARK    2  A    between atoms: C_8  and  S_11
REMARK    3  A    between atoms: S_11  and  N_14
REMARK    4  A    between atoms: C_23  and  C_24
REMARK                            x       y       z     vdW  Elec       q    Type
REMARK                         _______ _______ _______ _____ _____    ______ ____
ROOT
ATOM     14  N   UNL     1      -3.876   2.816  25.029  0.00  0.00    -0.155 NA
ATOM     15  C   UNL     1      -4.083   3.618  25.136  0.00  0.00    +0.098 C 
ATOM     16  C   UNL     1      -5.034   3.513  25.382  0.00  0.00    +0.041 C 
ATOM     17  C   UNL     1      -5.815   3.595  25.596  0.00  0.00    +0.011 C 
ATOM     18  C   UNL     1      -5.371   3.073  25.444  0.00  0.00    +0.056 C 
ATOM     19  C   UNL     1      -4.454   3.192  25.207  0.00  0.00    +0.102 C 
ATOM     20  C   UNL     1      -5.332   2.158  25.374  0.00  0.00    +0.041 A 
ATOM     21  C   UNL     1      -5.807   1.488  25.458  0.00  0.00    +0.013 A 
ATOM     22  C   UNL     1      -5.489   0.739  25.325  0.00  0.00    +0.006 A 
ATOM     23  C   UNL     1      -4.697   0.659  25.108  0.00  0.00    +0.062 A 
ATOM     33  C   UNL     1      -4.222   1.328  25.025  0.00  0.00    +0.261 A 
ATOM     34  O   UNL     1      -3.430   1.248  24.809  0.00  0.00    -0.267 OA
ATOM     35  N   UNL     1      -4.540   2.078  25.158  0.00  0.00    -0.299 N 
ATOM     36  C   UNL     1      -4.983   2.557  25.307  0.00  0.00    +0.110 C 
ENDROOT
BRANCH  23  24
ATOM     24  C   UNL     1      -4.380  -0.091  24.975  0.00  0.00    +0.034 A 
ATOM     25  C   UNL     1      -3.949  -0.539  25.518  0.00  0.00    +0.007 A 
ATOM     26  C   UNL     1      -3.741  -1.249  25.154  0.00  0.00    +0.006 A 
ATOM     27  C   UNL     1      -4.044  -1.241  24.386  0.00  0.00    +0.029 A 
ATOM     28  S   UNL     1      -4.438  -0.525  24.276  0.00  0.00    -0.087 S 
ATOM     29  C   UNL     1      -3.920  -1.886  23.886  0.00  0.00    +0.006 A 
ATOM     30  C   UNL     1      -3.495  -2.539  24.155  0.00  0.00    +0.001 A 
ATOM     31  C   UNL     1      -3.192  -2.549  24.922  0.00  0.00    +0.000 A 
ATOM     32  C   UNL     1      -3.316  -1.904  25.421  0.00  0.00    +0.001 A 
ENDBRANCH  23  24
BRANCH  14  11
ATOM     11  S   UNL     1      -3.407   2.157  24.861  0.00  0.00    +0.063 S 
ATOM     12  O   UNL     1      -4.075   1.674  24.889  0.00  0.00    -0.153 OA
ATOM     13  O   UNL     1      -2.938   1.499  24.694  0.00  0.00    -0.153 OA
BRANCH  11   8
ATOM      5  C   UNL     1      -1.402   3.607  24.777  0.00  0.00    +0.073 A 
ATOM      6  C   UNL     1      -1.835   3.460  24.089  0.00  0.00    +0.018 A 
ATOM      7  C   UNL     1      -2.503   2.977  24.118  0.00  0.00    +0.021 A 
ATOM      8  C   UNL     1      -2.738   2.641  24.833  0.00  0.00    +0.122 A 
ATOM      9  C   UNL     1      -2.306   2.787  25.520  0.00  0.00    +0.021 A 
ATOM     10  C   UNL     1      -1.638   3.270  25.492  0.00  0.00    +0.018 A 
BRANCH   5   4
ATOM      1  C   UNL     1      -0.140   5.387  24.831  0.00  0.00    +0.097 C 
ATOM      2  C   UNL     1      -0.809   4.904  24.859  0.00  0.00    +0.246 C 
ATOM      3  O   UNL     1      -1.551   5.235  24.997  0.00  0.00    -0.273 OA
ATOM      4  N   UNL     1      -0.734   4.090  24.749  0.00  0.00    -0.179 NA
ENDBRANCH   5   4
ENDBRANCH  11   8
ENDBRANCH  14  11
TORSDOF 4
ENDMDL
MODEL 2
REMARK VINA RESULT:     -15.7      1.210      4.397
REMARK  Name = 
REMARK  4 active torsions:
REMARK  status: ('A' for Active; 'I' for Inactive)
REMARK    1  A    between atoms: N_4  and  C_5
REMARK    2  A    between atoms: C_8  and  S_11
REMARK    3  A    between atoms: S_11  and  N_14
REMARK    4  A    between atoms: C_23  and  C_24
REMARK                            x       y       z     vdW  Elec       q    Type
REMARK                         _______ _______ _______ _____ _____    ______ ____
ROOT
ATOM     14  N   UNL     1      -4.743   1.218  24.823  0.00  0.00    -0.155 NA
ATOM     15  C   UNL     1      -5.526   0.929  24.823  0.00  0.00    +0.098 C 
ATOM     16  C   UNL     1      -5.997   1.725  25.169  0.00  0.00    +0.041 C 
ATOM     17  C   UNL     1      -6.524   2.285  25.438  0.00  0.00    +0.011 C 
ATOM     18  C   UNL     1      -5.833   2.233  25.329  0.00  0.00    +0.056 C 
ATOM     19  C   UNL     1      -5.392   1.456  24.993  0.00  0.00    +0.102 C 
ATOM     20  C   UNL     1      -5.054   2.716  25.399  0.00  0.00    +0.041 A 
ATOM     21  C   UNL     1      -4.780   3.460  25.629  0.00  0.00    +0.013 A 
ATOM     22  C   UNL     1      -3.975   3.634  25.585  0.00  0.00    +0.006 A 
ATOM     23  C   UNL     1      -3.444   3.064  25.312  0.00  0.00    +0.062 A 
ATOM     33  C   UNL     1      -3.718   2.321  25.082  0.00  0.00    +0.261 A 
ATOM     34  O   UNL     1      -3.187   1.752  24.809  0.00  0.00    -0.267 OA
ATOM     35  N   UNL     1      -4.523   2.147  25.126  0.00  0.00    -0.299 N 
ATOM     36  C   UNL     1      -5.179   2.222  25.239  0.00  0.00    +0.110 C 
ENDROOT
BRANCH  23  24
ATOM     24  C   UNL     1      -2.639   3.239  25.269  0.00  0.00    +0.034 A 
ATOM     25  C   UNL     1      -2.061   2.999  25.805  0.00  0.00    +0.007 A 
ATOM     26  C   UNL     1      -1.336   3.296  25.549  0.00  0.00    +0.006 A 
ATOM     27  C   UNL     1      -1.466   3.722  24.853  0.00  0.00    +0.029 A 
ATOM     28  S   UNL     1      -2.271   3.686  24.680  0.00  0.00    -0.087 S 
ATOM     29  C   UNL     1      -0.833   4.086  24.467  0.00  0.00    +0.006 A 
ATOM     30  C   UNL     1      -0.072   4.025  24.777  0.00  0.00    +0.001 A 
ATOM     31  C   UNL     1       0.059   3.600  25.472  0.00  0.00    +0.000 A 
ATOM     32  C   UNL     1      -0.573   3.236  25.857  0.00  0.00    +0.001 A 
ENDBRANCH  23  24
BRANCH  14  11
ATOM     11  S   UNL     1      -3.924   1.224  24.717  0.00  0.00    +0.063 S 
ATOM     12  O   UNL     1      -3.925   2.049  24.753  0.00  0.00    -0.153 OA
ATOM     13  O   UNL     1      -3.105   1.230  24.612  0.00  0.00    -0.153 OA
BRANCH  11   8
ATOM      5  C   UNL     1      -3.920  -1.249  24.611  0.00  0.00    +0.073 A 
ATOM      6  C   UNL     1      -4.028  -0.806  23.923  0.00  0.00    +0.018 A 
ATOM      7  C   UNL     1      -4.029   0.018  23.959  0.00  0.00    +0.021 A 
ATOM      8  C   UNL     1      -3.923   0.399  24.682  0.00  0.00    +0.122 A 
ATOM      9  C   UNL     1      -3.815  -0.042  25.370  0.00  0.00    +0.021 A 
ATOM     10  C   UNL     1      -3.814  -0.867  25.335  0.00  0.00    +0.018 A 
BRANCH   5   4
ATOM      1  C   UNL     1      -3.204  -3.307  24.483  0.00  0.00    +0.097 C 
ATOM      2  C   UNL     1      -3.205  -2.482  24.518  0.00  0.00    +0.246 C 
ATOM      3  O   UNL     1      -2.493  -2.068  24.495  0.00  0.00    -0.273 OA
ATOM      4  N   UNL     1      -3.919  -2.073  24.576  0.00  0.00    -0.179 NA
ENDBRANCH   5   4
ENDBRANCH  11   8
ENDBRANCH  14  11
TORSDOF 4
ENDMDL
MODEL 3
REMARK VINA RESULT:     -14.1      2.479      4.367
REMARK  Name = 
REMARK  4 active torsions:
REMARK  status: ('A' for Active; 'I' for Inactive)
REMARK    1  A    between atoms: N_4  and  C_5
REMARK    2  A    between atoms: C_8  and  S_11
REMARK    3  A    between atoms: S_11  and  N_14
REMARK    4  A    between atoms: C_23  and  C_24
REMARK                            x       y       z     vdW  Elec       q    Type
REMARK                         _______ _______ _______ _____ _____    ______ ____
ROOT
ATOM     14  N   UNL     1      -2.138  -1.131  24.681  0.00  0.00    -0.155 NA
ATOM     15  C   UNL     1      -1.920  -1.937  24.659  0.00  0.00    +0.098 C 
ATOM     16  C   UNL     1      -2.811  -2.347  24.538  0.00  0.00    +0.041 C 
ATOM     17  C   UNL     1      -3.459  -2.831  24.440  0.00  0.00    +0.011 C 
ATOM     18  C   UNL     1      -3.328  -2.144  24.493  0.00  0.00    +0.056 C 
ATOM     19  C   UNL     1      -2.460  -1.763  24.610  0.00  0.00    +0.102 C 
ATOM     20  C   UNL     1      -3.751  -1.328  24.494  0.00  0.00    +0.041 A 
ATOM     21  C   UNL     1      -4.503  -0.996  24.430  0.00  0.00    +0.013 A 
ATOM     22  C   UNL     1      -4.597  -0.177  24.466  0.00  0.00    +0.006 A 
ATOM     23  C   UNL     1      -3.939   0.310  24.566  0.00  0.00    +0.062 A 
ATOM     33  C   UNL     1      -3.187  -0.021  24.629  0.00  0.00    +0.261 A 
ATOM     34  O   UNL     1      -2.528   0.466  24.729  0.00  0.00    -0.267 OA
ATOM     35  N   UNL     1      -3.092  -0.840  24.593  0.00  0.00    -0.299 N 
ATOM     36  C   UNL     1      -3.244  -1.490  24.540  0.00  0.00    +0.110 C 
ENDROOT
BRANCH  23  24
ATOM     24  C   UNL     1      -4.034   1.128  24.602  0.00  0.00    +0.034 A 
ATOM     25  C   UNL     1      -3.897   1.661  23.987  0.00  0.00    +0.007 A 
ATOM     26  C   UNL     1      -4.062   2.419  24.265  0.00  0.00    +0.006 A 
ATOM     27  C   UNL     1      -4.300   2.356  25.053  0.00  0.00    +0.029 A 
ATOM     28  S   UNL     1      -4.283   1.559  25.260  0.00  0.00    -0.087 S 
ATOM     29  C   UNL     1      -4.502   3.035  25.478  0.00  0.00    +0.006 A 
ATOM     30  C   UNL     1      -4.465   3.774  25.116  0.00  0.00    +0.001 A 
ATOM     31  C   UNL     1      -4.227   3.838  24.329  0.00  0.00    +0.000 A 
ATOM     32  C   UNL     1      -4.025   3.160  23.904  0.00  0.00    +0.001 A 
ENDBRANCH  23  24
BRANCH  14  11
ATOM     11  S   UNL     1      -2.054  -0.312  24.737  0.00  0.00    +0.063 S 
ATOM     12  O   UNL     1      -2.800  -0.259  25.085  0.00  0.00    -0.153 OA
ATOM     13  O   UNL     1      -1.969   0.507  24.793  0.00  0.00    -0.153 OA
BRANCH  11   8
ATOM      5  C   UNL     1       0.185  -0.472  23.694  0.00  0.00    +0.073 A 
ATOM      6  C   UNL     1       0.088  -0.653  24.493  0.00  0.00    +0.018 A 
ATOM      7  C   UNL     1      -0.658  -0.599  24.840  0.00  0.00    +0.021 A 
ATOM      8  C   UNL     1      -1.307  -0.365  24.389  0.00  0.00    +0.122 A 
ATOM      9  C   UNL     1      -1.211  -0.185  23.590  0.00  0.00    +0.021 A 
ATOM     10  C   UNL     1      -0.464  -0.238  23.242  0.00  0.00    +0.018 A 
BRANCH   5   4
ATOM      1  C   UNL     1       2.113   0.106  22.848  0.00  0.00    +0.097 C 
ATOM      2  C   UNL     1       1.366   0.159  23.196  0.00  0.00    +0.246 C 
ATOM      3  O   UNL     1       1.056   0.897  23.393  0.00  0.00    -0.273 OA
ATOM      4  N   UNL     1       0.931  -0.525  23.346  0.00  0.00    -0.179 NA
ENDBRANCH   5   4
ENDBRANCH  11   8
ENDBRANCH  14  11
TORSDOF 4
ENDMDL
MODEL 4
REMARK VINA RESULT:     -14.0      2.212      3.855
REMARK  Name = 
REMARK  4 active torsions:
REMARK  status: ('A' for Active; 'I' for Inactive)
REMARK    1  A    between atoms: N_4  and  C_5
REMARK    2  A    between atoms: C_8  and  S_11
REMARK    3  A    between atoms: S_11  and  N_14
REMARK    4  A    between atoms: C_23  and  C_24
REMARK                            x       y       z     vdW  Elec       q    Type
REMARK                         _______ _______ _______ _____ _____    ______ ____
ROOT
ATOM     14  N   UNL     1      -1.268   3.262  25.098  0.00  0.00    -0.155 NA
ATOM     15  C   UNL     1      -0.520   3.632  25.048  0.00  0.00    +0.098 C 
ATOM     16  C   UNL     1      -0.804   4.578  25.034  0.00  0.00    +0.041 C 
ATOM     17  C   UNL     1      -0.871   5.390  25.012  0.00  0.00    +0.011 C 
ATOM     18  C   UNL     1      -1.299   4.835  25.051  0.00  0.00    +0.056 C 
ATOM     19  C   UNL     1      -1.009   3.925  25.064  0.00  0.00    +0.102 C 
ATOM     20  C   UNL     1      -2.189   4.613  25.104  0.00  0.00    +0.041 A 
ATOM     21  C   UNL     1      -2.936   4.963  25.132  0.00  0.00    +0.013 A 
ATOM     22  C   UNL     1      -3.610   4.491  25.181  0.00  0.00    +0.006 A 
ATOM     23  C   UNL     1      -3.539   3.669  25.203  0.00  0.00    +0.062 A 
ATOM     33  C   UNL     1      -2.792   3.319  25.175  0.00  0.00    +0.261 A 
ATOM     34  O   UNL     1      -2.721   2.498  25.196  0.00  0.00    -0.267 OA
ATOM     35  N   UNL     1      -2.117   3.791  25.126  0.00  0.00    -0.299 N 
ATOM     36  C   UNL     1      -1.732   4.337  25.089  0.00  0.00    +0.110 C 
ENDROOT
BRANCH  23  24
ATOM     24  C   UNL     1      -4.214   3.198  25.252  0.00  0.00    +0.034 A 
ATOM     25  C   UNL     1      -4.561   2.781  24.631  0.00  0.00    +0.007 A 
ATOM     26  C   UNL     1      -5.222   2.386  24.927  0.00  0.00    +0.006 A 
ATOM     27  C   UNL     1      -5.284   2.560  25.732  0.00  0.00    +0.029 A 
ATOM     28  S   UNL     1      -4.661   3.061  25.932  0.00  0.00    -0.087 S 
ATOM     29  C   UNL     1      -5.900   2.238  26.177  0.00  0.00    +0.006 A 
ATOM     30  C   UNL     1      -6.454   1.744  25.818  0.00  0.00    +0.001 A 
ATOM     31  C   UNL     1      -6.392   1.570  25.014  0.00  0.00    +0.000 A 
ATOM     32  C   UNL     1      -5.777   1.892  24.569  0.00  0.00    +0.001 A 
ENDBRANCH  23  24
BRANCH  14  11
ATOM     11  S   UNL     1      -1.825   2.655  25.145  0.00  0.00    +0.063 S 
ATOM     12  O   UNL     1      -2.362   3.174  25.495  0.00  0.00    -0.153 OA
ATOM     13  O   UNL     1      -2.381   2.047  25.193  0.00  0.00    -0.153 OA
BRANCH  11   8
ATOM      5  C   UNL     1      -0.213   1.096  24.097  0.00  0.00    +0.073 A 
ATOM      6  C   UNL     1      -0.180   1.239  24.910  0.00  0.00    +0.018 A 
ATOM      7  C   UNL     1      -0.718   1.758  25.258  0.00  0.00    +0.021 A 
ATOM      8  C   UNL     1      -1.287   2.135  24.796  0.00  0.00    +0.122 A 
ATOM      9  C   UNL     1      -1.320   1.993  23.984  0.00  0.00    +0.021 A 
ATOM     10  C   UNL     1      -0.782   1.473  23.634  0.00  0.00    +0.018 A 
BRANCH   5   4
ATOM      1  C   UNL     1       0.700  -0.752  23.377  0.00  0.00    +0.097 C 
ATOM      2  C   UNL     1       0.162  -0.232  23.727  0.00  0.00    +0.246 C 
ATOM      3  O   UNL     1      -0.537  -0.521  24.055  0.00  0.00    -0.273 OA
ATOM      4  N   UNL     1       0.324   0.576  23.747  0.00  0.00    -0.179 NA
ENDBRANCH   5   4
ENDBRANCH  11   8
ENDBRANCH  14  11
TORSDOF 4
ENDMDL
MODEL 5
REMARK VINA RESULT:     -13.6      1.629      3.239
REMARK  Name = 
REMARK  4 active torsions:
REMARK  status: ('A' for Active; 'I' for Inactive)
REMARK    1  A    between atoms: N_4  and  C_5
REMARK    2  A    between atoms: C_8  and  S_11
REMARK    3  A    between atoms: S_11  and  N_14
REMARK    4  A    between atoms: C_23  and  C_24
REMARK                            x       y       z     vdW  Elec       q    Type
REMARK                         _______ _______ _______ _____ _____    ______ ____
ROOT
ATOM     14  N   UNL     1      -1.910   2.260  24.374  0.00  0.00    -0.155 NA
ATOM     15  C   UNL     1      -1.540   3.005  24.307  0.00  0.00    +0.098 C 
ATOM     16  C   UNL     1      -0.600   2.737  24.449  0.00  0.00    +0.041 C 
ATOM     17  C   UNL     1       0.207   2.681  24.546  0.00  0.00    +0.011 C 
ATOM     18  C   UNL     1      -0.347   2.250  24.548  0.00  0.00    +0.056 C 
ATOM     19  C   UNL     1      -1.250   2.525  24.408  0.00  0.00    +0.102 C 
ATOM     20  C   UNL     1      -0.571   1.364  24.652  0.00  0.00    +0.041 A 
ATOM     21  C   UNL     1      -0.226   0.629  24.796  0.00  0.00    +0.013 A 
ATOM     22  C   UNL     1      -0.698  -0.046  24.842  0.00  0.00    +0.006 A 
ATOM     23  C   UNL     1      -1.515   0.015  24.744  0.00  0.00    +0.062 A 
ATOM     33  C   UNL     1      -1.860   0.750  24.599  0.00  0.00    +0.261 A 
ATOM     34  O   UNL     1      -2.677   0.810  24.500  0.00  0.00    -0.267 OA
ATOM     35  N   UNL     1      -1.388   1.425  24.553  0.00  0.00    -0.299 N 
ATOM     36  C   UNL     1      -0.843   1.814  24.556  0.00  0.00    +0.110 C 
ENDROOT
BRANCH  23  24
ATOM     24  C   UNL     1      -1.986  -0.660  24.790  0.00  0.00    +0.034 A 
ATOM     25  C   UNL     1      -2.400  -0.919  25.455  0.00  0.00    +0.007 A 
ATOM     26  C   UNL     1      -2.796  -1.614  25.254  0.00  0.00    +0.006 A 
ATOM     27  C   UNL     1      -2.627  -1.786  24.464  0.00  0.00    +0.029 A 
ATOM     28  S   UNL     1      -2.127  -1.196  24.178  0.00  0.00    -0.087 S 
ATOM     29  C   UNL     1      -2.952  -2.457  24.109  0.00  0.00    +0.006 A 
ATOM     30  C   UNL     1      -3.444  -2.956  24.543  0.00  0.00    +0.001 A 
ATOM     31  C   UNL     1      -3.613  -2.785  25.332  0.00  0.00    +0.000 A 
ATOM     32  C   UNL     1      -3.289  -2.114  25.687  0.00  0.00    +0.001 A 
ENDBRANCH  23  24
BRANCH  14  11
ATOM     11  S   UNL     1      -2.517   1.700  24.388  0.00  0.00    +0.063 S 
ATOM     12  O   UNL     1      -1.975   1.107  24.199  0.00  0.00    -0.153 OA
ATOM     13  O   UNL     1      -3.123   1.141  24.403  0.00  0.00    -0.153 OA
BRANCH  11   8
ATOM      5  C   UNL     1      -4.143   3.478  24.955  0.00  0.00    +0.073 A 
ATOM      6  C   UNL     1      -4.005   3.281  24.165  0.00  0.00    +0.018 A 
ATOM      7  C   UNL     1      -3.463   2.689  23.977  0.00  0.00    +0.021 A 
ATOM      8  C   UNL     1      -3.059   2.293  24.578  0.00  0.00    +0.122 A 
ATOM      9  C   UNL     1      -3.197   2.489  25.367  0.00  0.00    +0.021 A 
ATOM     10  C   UNL     1      -3.739   3.082  25.556  0.00  0.00    +0.018 A 
BRANCH   5   4
ATOM      1  C   UNL     1      -5.984   4.462  25.592  0.00  0.00    +0.097 C 
ATOM      2  C   UNL     1      -5.442   3.869  25.403  0.00  0.00    +0.246 C 
ATOM      3  O   UNL     1      -5.658   3.077  25.473  0.00  0.00    -0.273 OA
ATOM      4  N   UNL     1      -4.685   4.070  25.144  0.00  0.00    -0.179 NA
ENDBRANCH   5   4
ENDBRANCH  11   8
ENDBRANCH  14  11
TORSDOF 4
ENDMDL
MODEL 6
REMARK VINA RESULT:     -13.5      1.865      2.297
REMARK  Name = 
REMARK  4 active torsions:
REMARK  status: ('A' for Active; 'I' for Inactive)
REMARK    1  A    between atoms: N_4  and  C_5
REMARK    2  A    between atoms: C_8  and  S_11
REMARK    3  A    between atoms: S_11  and  N_14
REMARK    4  A    between atoms: C_23  and  C_24
REMARK                            x       y       z     vdW  Elec       q    Type
REMARK                         _______ _______ _______ _____ _____    ______ ____
ROOT
ATOM     14  N   UNL     1      -2.029   2.042  24.947  0.00  0.00    -0.155 NA
ATOM     15  C   UNL     1      -1.859   2.855  25.030  0.00  0.00    +0.098 C 
ATOM     16  C   UNL     1      -2.779   3.216  25.045  0.00  0.00    +0.041 C 
ATOM     17  C   UNL     1      -3.460   3.663  25.074  0.00  0.00    +0.011 C 
ATOM     18  C   UNL     1      -3.286   2.985  25.012  0.00  0.00    +0.056 C 
ATOM     19  C   UNL     1      -2.391   2.653  24.999  0.00  0.00    +0.102 C 
ATOM     20  C   UNL     1      -3.660   2.151  24.922  0.00  0.00    +0.041 A 
ATOM     21  C   UNL     1      -4.396   1.781  24.870  0.00  0.00    +0.013 A 
ATOM     22  C   UNL     1      -4.440   0.961  24.790  0.00  0.00    +0.006 A 
ATOM     23  C   UNL     1      -3.749   0.511  24.761  0.00  0.00    +0.062 A 
ATOM     33  C   UNL     1      -3.013   0.881  24.813  0.00  0.00    +0.261 A 
ATOM     34  O   UNL     1      -2.322   0.431  24.784  0.00  0.00    -0.267 OA
ATOM     35  N   UNL     1      -2.969   1.701  24.893  0.00  0.00    -0.299 N 
ATOM     36  C   UNL     1      -3.161   2.340  24.951  0.00  0.00    +0.110 C 
ENDROOT
BRANCH  23  24
ATOM     24  C   UNL     1      -3.794  -0.308  24.680  0.00  0.00    +0.034 A 
ATOM     25  C   UNL     1      -3.603  -0.864  25.258  0.00  0.00    +0.007 A 
ATOM     26  C   UNL     1      -3.729  -1.615  24.942  0.00  0.00    +0.006 A 
ATOM     27  C   UNL     1      -3.998  -1.524  24.166  0.00  0.00    +0.029 A 
ATOM     28  S   UNL     1      -4.038  -0.716  24.005  0.00  0.00    -0.087 S 
ATOM     29  C   UNL     1      -4.172  -2.188  23.709  0.00  0.00    +0.006 A 
ATOM     30  C   UNL     1      -4.076  -2.943  24.026  0.00  0.00    +0.001 A 
ATOM     31  C   UNL     1      -3.807  -3.035  24.800  0.00  0.00    +0.000 A 
ATOM     32  C   UNL     1      -3.634  -2.372  25.258  0.00  0.00    +0.001 A 
ENDBRANCH  23  24
BRANCH  14  11
ATOM     11  S   UNL     1      -1.894   1.231  24.871  0.00  0.00    +0.063 S 
ATOM     12  O   UNL     1      -2.665   1.079  25.121  0.00  0.00    -0.153 OA
ATOM     13  O   UNL     1      -1.758   0.420  24.795  0.00  0.00    -0.153 OA
BRANCH  11   8
ATOM      5  C   UNL     1       0.420   1.688  24.122  0.00  0.00    +0.073 A 
ATOM      6  C   UNL     1       0.252   1.630  24.928  0.00  0.00    +0.018 A 
ATOM      7  C   UNL     1      -0.520   1.477  25.177  0.00  0.00    +0.021 A 
ATOM      8  C   UNL     1      -1.122   1.383  24.621  0.00  0.00    +0.122 A 
ATOM      9  C   UNL     1      -0.953   1.441  23.816  0.00  0.00    +0.021 A 
ATOM     10  C   UNL     1      -0.182   1.594  23.566  0.00  0.00    +0.018 A 
BRANCH   5   4
ATOM      1  C   UNL     1       2.402   1.399  23.252  0.00  0.00    +0.097 C 
ATOM      2  C   UNL     1       1.630   1.247  23.502  0.00  0.00    +0.246 C 
ATOM      3  O   UNL     1       1.298   0.502  23.382  0.00  0.00    -0.273 OA
ATOM      4  N   UNL     1       1.192   1.840  23.872  0.00  0.00    -0.179 NA
ENDBRANCH   5   4
ENDBRANCH  11   8
ENDBRANCH  14  11
TORSDOF 4
ENDMDL
MODEL 7
REMARK VINA RESULT:     -13.4      1.904      3.786
REMARK  Name = 
REMARK  4 active torsions:
REMARK  status: ('A' for Active; 'I' for Inactive)
REMARK    1  A    between atoms: N_4  and  C_5
REMARK    2  A    between atoms: C_8  and  S_11
REMARK    3  A    between atoms: S_11  and  N_14
REMARK    4  A    between atoms: C_23  and  C_24
REMARK                            x       y       z     vdW  Elec       q    Type
REMARK                         _______ _______ _______ _____ _____    ______ ____
ROOT
ATOM     14  N   UNL     1      -2.408   3.383  24.667  0.00  0.00    -0.155 NA
ATOM     15  C   UNL     1      -2.607   4.194  24.703  0.00  0.00    +0.098 C 
ATOM     16  C   UNL     1      -1.751   4.559  25.034  0.00  0.00    +0.041 C 
ATOM     17  C   UNL     1      -1.126   5.010  25.300  0.00  0.00    +0.011 C 
ATOM     18  C   UNL     1      -1.260   4.333  25.170  0.00  0.00    +0.056 C 
ATOM     19  C   UNL     1      -2.093   3.995  24.849  0.00  0.00    +0.102 C 
ATOM     20  C   UNL     1      -0.866   3.503  25.198  0.00  0.00    +0.041 A 
ATOM     21  C   UNL     1      -0.152   3.139  25.391  0.00  0.00    +0.013 A 
ATOM     22  C   UNL     1      -0.072   2.321  25.315  0.00  0.00    +0.006 A 
ATOM     23  C   UNL     1      -0.707   1.868  25.046  0.00  0.00    +0.062 A 
ATOM     33  C   UNL     1      -1.422   2.232  24.853  0.00  0.00    +0.261 A 
ATOM     34  O   UNL     1      -2.056   1.779  24.584  0.00  0.00    -0.267 OA
ATOM     35  N   UNL     1      -1.501   3.050  24.929  0.00  0.00    -0.299 N 
ATOM     36  C   UNL     1      -1.349   3.688  25.060  0.00  0.00    +0.110 C 
ENDROOT
BRANCH  23  24
ATOM     24  C   UNL     1      -0.627   1.051  24.970  0.00  0.00    +0.034 A 
ATOM     25  C   UNL     1      -0.849   0.487  25.530  0.00  0.00    +0.007 A 
ATOM     26  C   UNL     1      -0.669  -0.259  25.227  0.00  0.00    +0.006 A 
ATOM     27  C   UNL     1      -0.336  -0.156  24.478  0.00  0.00    +0.029 A 
ATOM     28  S   UNL     1      -0.310   0.652  24.321  0.00  0.00    -0.087 S 
ATOM     29  C   UNL     1      -0.100  -0.814  24.039  0.00  0.00    +0.006 A 
ATOM     30  C   UNL     1      -0.196  -1.572  24.347  0.00  0.00    +0.001 A 
ATOM     31  C   UNL     1      -0.529  -1.675  25.095  0.00  0.00    +0.000 A 
ATOM     32  C   UNL     1      -0.765  -1.018  25.534  0.00  0.00    +0.001 A 
ENDBRANCH  23  24
BRANCH  14  11
ATOM     11  S   UNL     1      -2.500   2.573  24.535  0.00  0.00    +0.063 S 
ATOM     12  O   UNL     1      -1.689   2.505  24.392  0.00  0.00    -0.153 OA
ATOM     13  O   UNL     1      -2.591   1.764  24.403  0.00  0.00    -0.153 OA
BRANCH  11   8
ATOM      5  C   UNL     1      -4.929   2.777  24.963  0.00  0.00    +0.073 A 
ATOM      6  C   UNL     1      -4.631   2.906  24.204  0.00  0.00    +0.018 A 
ATOM      7  C   UNL     1      -3.821   2.838  24.062  0.00  0.00    +0.021 A 
ATOM      8  C   UNL     1      -3.310   2.641  24.678  0.00  0.00    +0.122 A 
ATOM      9  C   UNL     1      -3.607   2.512  25.436  0.00  0.00    +0.021 A 
ATOM     10  C   UNL     1      -4.417   2.580  25.579  0.00  0.00    +0.018 A 
BRANCH   5   4
ATOM      1  C   UNL     1      -7.024   2.239  25.255  0.00  0.00    +0.097 C 
ATOM      2  C   UNL     1      -6.214   2.171  25.112  0.00  0.00    +0.246 C 
ATOM      3  O   UNL     1      -5.881   1.429  24.976  0.00  0.00    -0.273 OA
ATOM      4  N   UNL     1      -5.739   2.845  25.106  0.00  0.00    -0.179 NA
ENDBRANCH   5   4
ENDBRANCH  11   8
ENDBRANCH  14  11
TORSDOF 4
ENDMDL
