MODEL 1
REMARK VINA RESULT:     -15.0      0.000      0.000
REMARK  Name = 
REMARK  6 active torsions:
REMARK  status: ('A' for Active; 'I' for Inactive)
REMARK    1  A    between atoms: C_2  and  C_3
REMARK    2  A    between atoms: C_6  and  C_7
REMARK    3  A    between atoms: C_7  and  N_8
REMARK    4  A    between atoms: C_17  and  C_22
REMARK    5  A    between atoms: C_25  and  O_26
REMARK    6  A    between atoms: O_26  and  C_27
REMARK                            x       y       z     vdW  Elec       q    Type
REMARK                         _______ _______ _______ _____ _____    ______ ____
ROOT
ATOM      8  N   UNL     1      -3.476   2.960  25.167  0.00  0.00    -0.266 NA
ATOM      9  C   UNL     1      -3.666   3.760  25.314  0.00  0.00    +0.074 C 
ATOM     10  C   UNL     1      -4.647   3.684  25.404  0.00  0.00    +0.039 C 
ATOM     11  C   UNL     1      -5.448   3.789  25.504  0.00  0.00    +0.011 C 
ATOM     12  C   UNL     1      -5.007   3.259  25.374  0.00  0.00    +0.054 C 
ATOM     13  C   UNL     1      -4.060   3.349  25.290  0.00  0.00    +0.078 C 
ATOM     14  C   UNL     1      -4.992   2.351  25.229  0.00  0.00    +0.041 A 
ATOM     15  C   UNL     1      -5.500   1.703  25.178  0.00  0.00    +0.013 A 
ATOM     16  C   UNL     1      -5.194   0.952  25.027  0.00  0.00    +0.006 A 
ATOM     17  C   UNL     1      -4.382   0.849  24.926  0.00  0.00    +0.056 A 
ATOM     18  C   UNL     1      -3.875   1.498  24.976  0.00  0.00    +0.261 A 
ATOM     19  O   UNL     1      -3.062   1.395  24.875  0.00  0.00    -0.267 OA
ATOM     20  N   UNL     1      -4.180   2.249  25.128  0.00  0.00    -0.299 N 
ATOM     21  C   UNL     1      -4.622   2.736  25.251  0.00  0.00    +0.110 C 
ENDROOT
BRANCH  17  22
ATOM     22  C   UNL     1      -4.077   0.098  24.775  0.00  0.00    +0.005 A 
ATOM     23  C   UNL     1      -3.844  -0.386  25.401  0.00  0.00    +0.003 A 
ATOM     24  C   UNL     1      -3.539  -1.138  25.251  0.00  0.00    +0.037 A 
ATOM     25  C   UNL     1      -3.468  -1.406  24.474  0.00  0.00    +0.147 A 
ATOM     31  C   UNL     1      -3.701  -0.923  23.847  0.00  0.00    +0.037 A 
ATOM     32  C   UNL     1      -4.006  -0.170  23.998  0.00  0.00    +0.003 A 
BRANCH  25  26
ATOM     26  O   UNL     1      -3.163  -2.158  24.324  0.00  0.00    -0.404 OA
BRANCH  26  27
ATOM     27  C   UNL     1      -3.616  -2.826  24.488  0.00  0.00    +0.575 C 
ATOM     28  F   UNL     1      -4.069  -3.496  24.655  0.00  0.00    -0.133 F 
ATOM     29  F   UNL     1      -3.242  -2.898  25.220  0.00  0.00    -0.133 F 
ATOM     30  F   UNL     1      -3.990  -2.754  23.757  0.00  0.00    -0.133 F 
ENDBRANCH  26  27
ENDBRANCH  25  26
ENDBRANCH  17  22
BRANCH   8   7
ATOM      7  C   UNL     1      -3.012   2.294  25.013  0.00  0.00    +0.138 C 
BRANCH   7   6
ATOM      3  C   UNL     1      -0.910   2.408  25.361  0.00  0.00    +0.156 A 
ATOM      4  C   UNL     1      -0.942   2.518  24.545  0.00  0.00    +0.038 A 
ATOM      5  C   UNL     1      -1.733   2.488  24.314  0.00  0.00    +0.037 A 
ATOM      6  C   UNL     1      -2.191   2.361  24.990  0.00  0.00    +0.139 A 
ATOM     33  O   UNL     1      -1.682   2.311  25.637  0.00  0.00    -0.458 OA
BRANCH   3   2
ATOM      1  O   UNL     1       0.507   2.257  25.471  0.00  0.00    -0.212 OA
ATOM      2  C   UNL     1      -0.225   2.397  25.822  0.00  0.00    +0.246 C 
ENDBRANCH   3   2
ENDBRANCH   7   6
ENDBRANCH   8   7
TORSDOF 6
ENDMDL
MODEL 2
REMARK VINA RESULT:     -13.8      1.268      3.006
REMARK  Name = 
REMARK  6 active torsions:
REMARK  status: ('A' for Active; 'I' for Inactive)
REMARK    1  A    between atoms: C_2  and  C_3
REMARK    2  A    between atoms: C_6  and  C_7
REMARK    3  A    between atoms: C_7  and  N_8
REMARK    4  A    between atoms: C_17  and  C_22
REMARK    5  A    between atoms: C_25  and  O_26
REMARK    6  A    between atoms: O_26  and  C_27
REMARK                            x       y       z     vdW  Elec       q    Type
REMARK                         _______ _______ _______ _____ _____    ______ ____
ROOT
ATOM      8  N   UNL     1      -1.949   2.850  25.336  0.00  0.00    -0.266 NA
ATOM      9  C   UNL     1      -1.441   3.483  25.531  0.00  0.00    +0.074 C 
ATOM     10  C   UNL     1      -0.616   2.979  25.730  0.00  0.00    +0.039 C 
ATOM     11  C   UNL     1       0.131   2.716  25.924  0.00  0.00    +0.011 C 
ATOM     12  C   UNL     1      -0.482   2.437  25.726  0.00  0.00    +0.054 C 
ATOM     13  C   UNL     1      -1.272   2.939  25.537  0.00  0.00    +0.078 C 
ATOM     14  C   UNL     1      -0.882   1.629  25.548  0.00  0.00    +0.041 A 
ATOM     15  C   UNL     1      -0.716   0.821  25.534  0.00  0.00    +0.013 A 
ATOM     16  C   UNL     1      -1.304   0.283  25.323  0.00  0.00    +0.006 A 
ATOM     17  C   UNL     1      -2.059   0.552  25.126  0.00  0.00    +0.056 A 
ATOM     18  C   UNL     1      -2.225   1.360  25.141  0.00  0.00    +0.261 A 
ATOM     19  O   UNL     1      -2.980   1.629  24.944  0.00  0.00    -0.267 OA
ATOM     20  N   UNL     1      -1.637   1.898  25.352  0.00  0.00    -0.299 N 
ATOM     21  C   UNL     1      -1.042   2.139  25.542  0.00  0.00    +0.110 C 
ENDROOT
BRANCH  17  22
ATOM     22  C   UNL     1      -2.647   0.014  24.916  0.00  0.00    +0.005 A 
ATOM     23  C   UNL     1      -2.774  -0.166  24.120  0.00  0.00    +0.003 A 
ATOM     24  C   UNL     1      -3.362  -0.705  23.909  0.00  0.00    +0.037 A 
ATOM     25  C   UNL     1      -3.822  -1.064  24.492  0.00  0.00    +0.147 A 
ATOM     31  C   UNL     1      -3.695  -0.885  25.287  0.00  0.00    +0.037 A 
ATOM     32  C   UNL     1      -3.106  -0.345  25.499  0.00  0.00    +0.003 A 
BRANCH  25  26
ATOM     26  O   UNL     1      -4.410  -1.604  24.280  0.00  0.00    -0.404 OA
BRANCH  26  27
ATOM     27  C   UNL     1      -4.202  -2.353  24.008  0.00  0.00    +0.575 C 
ATOM     28  F   UNL     1      -3.994  -3.103  23.734  0.00  0.00    -0.133 F 
ATOM     29  F   UNL     1      -4.337  -2.108  23.232  0.00  0.00    -0.133 F 
ATOM     30  F   UNL     1      -4.067  -2.599  24.783  0.00  0.00    -0.133 F 
ENDBRANCH  26  27
ENDBRANCH  25  26
ENDBRANCH  17  22
BRANCH   8   7
ATOM      7  C   UNL     1      -2.639   2.459  25.107  0.00  0.00    +0.138 C 
BRANCH   7   6
ATOM      3  C   UNL     1      -4.503   3.494  25.207  0.00  0.00    +0.156 A 
ATOM      4  C   UNL     1      -4.311   3.590  24.411  0.00  0.00    +0.038 A 
ATOM      5  C   UNL     1      -3.590   3.214  24.276  0.00  0.00    +0.037 A 
ATOM      6  C   UNL     1      -3.335   2.885  24.990  0.00  0.00    +0.139 A 
ATOM     33  O   UNL     1      -3.900   3.058  25.566  0.00  0.00    -0.458 OA
BRANCH   3   2
ATOM      1  O   UNL     1      -5.691   3.265  25.967  0.00  0.00    -0.212 OA
ATOM      2  C   UNL     1      -5.180   3.783  25.581  0.00  0.00    +0.246 C 
ENDBRANCH   3   2
ENDBRANCH   7   6
ENDBRANCH   8   7
TORSDOF 6
ENDMDL
MODEL 3
REMARK VINA RESULT:     -13.8      2.534      4.168
REMARK  Name = 
REMARK  6 active torsions:
REMARK  status: ('A' for Active; 'I' for Inactive)
REMARK    1  A    between atoms: C_2  and  C_3
REMARK    2  A    between atoms: C_6  and  C_7
REMARK    3  A    between atoms: C_7  and  N_8
REMARK    4  A    between atoms: C_17  and  C_22
REMARK    5  A    between atoms: C_25  and  O_26
REMARK    6  A    between atoms: O_26  and  C_27
REMARK                            x       y       z     vdW  Elec       q    Type
REMARK                         _______ _______ _______ _____ _____    ______ ____
ROOT
ATOM      8  N   UNL     1      -1.695  -0.827  24.805  0.00  0.00    -0.266 NA
ATOM      9  C   UNL     1      -1.202  -1.500  24.758  0.00  0.00    +0.074 C 
ATOM     10  C   UNL     1      -1.881  -2.190  24.560  0.00  0.00    +0.039 C 
ATOM     11  C   UNL     1      -2.308  -2.864  24.396  0.00  0.00    +0.011 C 
ATOM     12  C   UNL     1      -2.434  -2.180  24.490  0.00  0.00    +0.054 C 
ATOM     13  C   UNL     1      -1.766  -1.525  24.682  0.00  0.00    +0.078 C 
ATOM     14  C   UNL     1      -3.120  -1.569  24.502  0.00  0.00    +0.041 A 
ATOM     15  C   UNL     1      -3.938  -1.522  24.405  0.00  0.00    +0.013 A 
ATOM     16  C   UNL     1      -4.320  -0.794  24.474  0.00  0.00    +0.006 A 
ATOM     17  C   UNL     1      -3.885  -0.113  24.641  0.00  0.00    +0.056 A 
ATOM     18  C   UNL     1      -3.067  -0.160  24.738  0.00  0.00    +0.261 A 
ATOM     19  O   UNL     1      -2.632   0.521  24.904  0.00  0.00    -0.267 OA
ATOM     20  N   UNL     1      -2.685  -0.888  24.668  0.00  0.00    -0.299 N 
ATOM     21  C   UNL     1      -2.591  -1.544  24.574  0.00  0.00    +0.110 C 
ENDROOT
BRANCH  17  22
ATOM     22  C   UNL     1      -4.268   0.614  24.710  0.00  0.00    +0.005 A 
ATOM     23  C   UNL     1      -4.700   0.789  25.391  0.00  0.00    +0.003 A 
ATOM     24  C   UNL     1      -5.083   1.516  25.461  0.00  0.00    +0.037 A 
ATOM     25  C   UNL     1      -5.035   2.068  24.850  0.00  0.00    +0.147 A 
ATOM     31  C   UNL     1      -4.603   1.893  24.169  0.00  0.00    +0.037 A 
ATOM     32  C   UNL     1      -4.220   1.165  24.099  0.00  0.00    +0.003 A 
BRANCH  25  26
ATOM     26  O   UNL     1      -5.419   2.796  24.920  0.00  0.00    -0.404 OA
BRANCH  26  27
ATOM     27  C   UNL     1      -5.086   3.393  25.379  0.00  0.00    +0.575 C 
ATOM     28  F   UNL     1      -4.754   3.991  25.841  0.00  0.00    -0.133 F 
ATOM     29  F   UNL     1      -5.556   3.162  26.017  0.00  0.00    -0.133 F 
ATOM     30  F   UNL     1      -4.617   3.624  24.742  0.00  0.00    -0.133 F 
ENDBRANCH  26  27
ENDBRANCH  25  26
ENDBRANCH  17  22
BRANCH   8   7
ATOM      7  C   UNL     1      -1.911  -0.037  24.905  0.00  0.00    +0.138 C 
BRANCH   7   6
ATOM      3  C   UNL     1      -0.400   1.463  24.764  0.00  0.00    +0.156 A 
ATOM      4  C   UNL     1      -0.475   1.390  25.582  0.00  0.00    +0.038 A 
ATOM      5  C   UNL     1      -1.050   0.819  25.735  0.00  0.00    +0.037 A 
ATOM      6  C   UNL     1      -1.331   0.539  25.010  0.00  0.00    +0.139 A 
ATOM     33  O   UNL     1      -0.929   0.937  24.410  0.00  0.00    -0.458 OA
BRANCH   3   2
ATOM      1  O   UNL     1       0.929   1.903  24.475  0.00  0.00    -0.212 OA
ATOM      2  C   UNL     1       0.115   1.973  24.368  0.00  0.00    +0.246 C 
ENDBRANCH   3   2
ENDBRANCH   7   6
ENDBRANCH   8   7
TORSDOF 6
ENDMDL
MODEL 4
REMARK VINA RESULT:     -13.5      2.834      4.964
REMARK  Name = 
REMARK  6 active torsions:
REMARK  status: ('A' for Active; 'I' for Inactive)
REMARK    1  A    between atoms: C_2  and  C_3
REMARK    2  A    between atoms: C_6  and  C_7
REMARK    3  A    between atoms: C_7  and  N_8
REMARK    4  A    between atoms: C_17  and  C_22
REMARK    5  A    between atoms: C_25  and  O_26
REMARK    6  A    between atoms: O_26  and  C_27
REMARK                            x       y       z     vdW  Elec       q    Type
REMARK                         _______ _______ _______ _____ _____    ______ ____
ROOT
ATOM      8  N   UNL     1      -3.755   0.109  24.712  0.00  0.00    -0.266 NA
ATOM      9  C   UNL     1      -4.160  -0.616  24.621  0.00  0.00    +0.074 C 
ATOM     10  C   UNL     1      -3.390  -1.236  24.606  0.00  0.00    +0.039 C 
ATOM     11  C   UNL     1      -2.875  -1.866  24.575  0.00  0.00    +0.011 C 
ATOM     12  C   UNL     1      -2.838  -1.168  24.644  0.00  0.00    +0.054 C 
ATOM     13  C   UNL     1      -3.592  -0.583  24.656  0.00  0.00    +0.078 C 
ATOM     14  C   UNL     1      -2.232  -0.485  24.743  0.00  0.00    +0.041 A 
ATOM     15  C   UNL     1      -1.420  -0.353  24.802  0.00  0.00    +0.013 A 
ATOM     16  C   UNL     1      -1.132   0.415  24.891  0.00  0.00    +0.006 A 
ATOM     17  C   UNL     1      -1.657   1.051  24.921  0.00  0.00    +0.056 A 
ATOM     18  C   UNL     1      -2.469   0.919  24.863  0.00  0.00    +0.261 A 
ATOM     19  O   UNL     1      -2.994   1.555  24.893  0.00  0.00    -0.267 OA
ATOM     20  N   UNL     1      -2.756   0.151  24.773  0.00  0.00    -0.299 N 
ATOM     21  C   UNL     1      -2.764  -0.515  24.710  0.00  0.00    +0.110 C 
ENDROOT
BRANCH  17  22
ATOM     22  C   UNL     1      -1.369   1.819  25.011  0.00  0.00    +0.005 A 
ATOM     23  C   UNL     1      -1.165   2.262  24.345  0.00  0.00    +0.003 A 
ATOM     24  C   UNL     1      -0.877   3.030  24.434  0.00  0.00    +0.037 A 
ATOM     25  C   UNL     1      -0.793   3.354  25.187  0.00  0.00    +0.147 A 
ATOM     31  C   UNL     1      -0.996   2.912  25.853  0.00  0.00    +0.037 A 
ATOM     32  C   UNL     1      -1.285   2.143  25.764  0.00  0.00    +0.003 A 
BRANCH  25  26
ATOM     26  O   UNL     1      -0.504   4.123  25.276  0.00  0.00    -0.404 OA
BRANCH  26  27
ATOM     27  C   UNL     1      -0.973   4.766  25.060  0.00  0.00    +0.575 C 
ATOM     28  F   UNL     1      -1.441   5.410  24.842  0.00  0.00    -0.133 F 
ATOM     29  F   UNL     1      -0.509   4.876  24.386  0.00  0.00    -0.133 F 
ATOM     30  F   UNL     1      -1.436   4.656  25.733  0.00  0.00    -0.133 F 
ENDBRANCH  26  27
ENDBRANCH  25  26
ENDBRANCH  17  22
BRANCH   8   7
ATOM      7  C   UNL     1      -3.642   0.922  24.796  0.00  0.00    +0.138 C 
BRANCH   7   6
ATOM      3  C   UNL     1      -5.319   2.108  25.374  0.00  0.00    +0.156 A 
ATOM      4  C   UNL     1      -5.269   2.285  24.570  0.00  0.00    +0.038 A 
ATOM      5  C   UNL     1      -4.635   1.862  24.255  0.00  0.00    +0.037 A 
ATOM      6  C   UNL     1      -4.292   1.424  24.866  0.00  0.00    +0.139 A 
ATOM     33  O   UNL     1      -4.716   1.576  25.557  0.00  0.00    -0.458 OA
BRANCH   3   2
ATOM      1  O   UNL     1      -5.831   3.198  26.144  0.00  0.00    -0.212 OA
ATOM      2  C   UNL     1      -5.876   2.411  25.903  0.00  0.00    +0.246 C 
ENDBRANCH   3   2
ENDBRANCH   7   6
ENDBRANCH   8   7
TORSDOF 6
ENDMDL
MODEL 5
REMARK VINA RESULT:     -13.2      3.036      4.458
REMARK  Name = 
REMARK  6 active torsions:
REMARK  status: ('A' for Active; 'I' for Inactive)
REMARK    1  A    between atoms: C_2  and  C_3
REMARK    2  A    between atoms: C_6  and  C_7
REMARK    3  A    between atoms: C_7  and  N_8
REMARK    4  A    between atoms: C_17  and  C_22
REMARK    5  A    between atoms: C_25  and  O_26
REMARK    6  A    between atoms: O_26  and  C_27
REMARK                            x       y       z     vdW  Elec       q    Type
REMARK                         _______ _______ _______ _____ _____    ______ ____
ROOT
ATOM      8  N   UNL     1      -2.779  -0.067  24.429  0.00  0.00    -0.266 NA
ATOM      9  C   UNL     1      -3.051  -0.841  24.271  0.00  0.00    +0.074 C 
ATOM     10  C   UNL     1      -4.025  -0.689  24.329  0.00  0.00    +0.039 C 
ATOM     11  C   UNL     1      -4.839  -0.730  24.342  0.00  0.00    +0.011 C 
ATOM     12  C   UNL     1      -4.342  -0.242  24.434  0.00  0.00    +0.054 C 
ATOM     13  C   UNL     1      -3.403  -0.405  24.374  0.00  0.00    +0.078 C 
ATOM     14  C   UNL     1      -4.235   0.651  24.623  0.00  0.00    +0.041 A 
ATOM     15  C   UNL     1      -4.676   1.329  24.780  0.00  0.00    +0.013 A 
ATOM     16  C   UNL     1      -4.293   2.046  24.924  0.00  0.00    +0.006 A 
ATOM     17  C   UNL     1      -3.469   2.083  24.910  0.00  0.00    +0.056 A 
ATOM     18  C   UNL     1      -3.028   1.405  24.752  0.00  0.00    +0.261 A 
ATOM     19  O   UNL     1      -2.204   1.442  24.738  0.00  0.00    -0.267 OA
ATOM     20  N   UNL     1      -3.411   0.688  24.609  0.00  0.00    -0.299 N 
ATOM     21  C   UNL     1      -3.903   0.243  24.526  0.00  0.00    +0.110 C 
ENDROOT
BRANCH  17  22
ATOM     22  C   UNL     1      -3.087   2.800  25.054  0.00  0.00    +0.005 A 
ATOM     23  C   UNL     1      -2.859   2.998  25.821  0.00  0.00    +0.003 A 
ATOM     24  C   UNL     1      -2.476   3.715  25.966  0.00  0.00    +0.037 A 
ATOM     25  C   UNL     1      -2.323   4.233  25.343  0.00  0.00    +0.147 A 
ATOM     31  C   UNL     1      -2.551   4.036  24.575  0.00  0.00    +0.037 A 
ATOM     32  C   UNL     1      -2.934   3.318  24.431  0.00  0.00    +0.003 A 
BRANCH  25  26
ATOM     26  O   UNL     1      -1.940   4.951  25.487  0.00  0.00    -0.404 OA
BRANCH  26  27
ATOM     27  C   UNL     1      -1.238   5.128  25.095  0.00  0.00    +0.575 C 
ATOM     28  F   UNL     1      -0.533   5.305  24.704  0.00  0.00    -0.133 F 
ATOM     29  F   UNL     1      -0.842   4.565  25.551  0.00  0.00    -0.133 F 
ATOM     30  F   UNL     1      -1.633   5.691  24.640  0.00  0.00    -0.133 F 
ENDBRANCH  26  27
ENDBRANCH  25  26
ENDBRANCH  17  22
BRANCH   8   7
ATOM      7  C   UNL     1      -2.246   0.552  24.548  0.00  0.00    +0.138 C 
BRANCH   7   6
ATOM      3  C   UNL     1      -0.212   0.336  23.940  0.00  0.00    +0.156 A 
ATOM      4  C   UNL     1      -0.167   0.105  24.730  0.00  0.00    +0.038 A 
ATOM      5  C   UNL     1      -0.923   0.157  25.055  0.00  0.00    +0.037 A 
ATOM      6  C   UNL     1      -1.436   0.422  24.464  0.00  0.00    +0.139 A 
ATOM     33  O   UNL     1      -0.996   0.532  23.775  0.00  0.00    -0.458 OA
BRANCH   3   2
ATOM      1  O   UNL     1       0.733  -0.331  23.101  0.00  0.00    -0.212 OA
ATOM      2  C   UNL     1       0.418   0.366  23.408  0.00  0.00    +0.246 C 
ENDBRANCH   3   2
ENDBRANCH   7   6
ENDBRANCH   8   7
TORSDOF 6
ENDMDL
MODEL 6
REMARK VINA RESULT:     -13.1      2.056      2.616
REMARK  Name = 
REMARK  6 active torsions:
REMARK  status: ('A' for Active; 'I' for Inactive)
REMARK    1  A    between atoms: C_2  and  C_3
REMARK    2  A    between atoms: C_6  and  C_7
REMARK    3  A    between atoms: C_7  and  N_8
REMARK    4  A    between atoms: C_17  and  C_22
REMARK    5  A    between atoms: C_25  and  O_26
REMARK    6  A    between atoms: O_26  and  C_27
REMARK                            x       y       z     vdW  Elec       q    Type
REMARK                         _______ _______ _______ _____ _____    ______ ____
ROOT
ATOM      8  N   UNL     1      -4.243   2.904  25.268  0.00  0.00    -0.266 NA
ATOM      9  C   UNL     1      -4.993   3.256  25.373  0.00  0.00    +0.074 C 
ATOM     10  C   UNL     1      -5.570   2.482  25.161  0.00  0.00    +0.039 C 
ATOM     11  C   UNL     1      -6.173   1.953  25.018  0.00  0.00    +0.011 C 
ATOM     12  C   UNL     1      -5.471   1.954  25.012  0.00  0.00    +0.054 C 
ATOM     13  C   UNL     1      -4.927   2.711  25.220  0.00  0.00    +0.078 C 
ATOM     14  C   UNL     1      -4.751   1.406  24.852  0.00  0.00    +0.041 A 
ATOM     15  C   UNL     1      -4.572   0.632  24.633  0.00  0.00    +0.013 A 
ATOM     16  C   UNL     1      -3.785   0.395  24.559  0.00  0.00    +0.006 A 
ATOM     17  C   UNL     1      -3.177   0.934  24.706  0.00  0.00    +0.056 A 
ATOM     18  C   UNL     1      -3.356   1.709  24.925  0.00  0.00    +0.261 A 
ATOM     19  O   UNL     1      -2.748   2.247  25.071  0.00  0.00    -0.267 OA
ATOM     20  N   UNL     1      -4.143   1.945  24.998  0.00  0.00    -0.299 N 
ATOM     21  C   UNL     1      -4.812   1.917  24.996  0.00  0.00    +0.110 C 
ENDROOT
BRANCH  17  22
ATOM     22  C   UNL     1      -2.391   0.697  24.632  0.00  0.00    +0.005 A 
ATOM     23  C   UNL     1      -1.976   0.853  23.936  0.00  0.00    +0.003 A 
ATOM     24  C   UNL     1      -1.189   0.617  23.862  0.00  0.00    +0.037 A 
ATOM     25  C   UNL     1      -0.817   0.224  24.484  0.00  0.00    +0.147 A 
ATOM     31  C   UNL     1      -1.230   0.067  25.180  0.00  0.00    +0.037 A 
ATOM     32  C   UNL     1      -2.018   0.304  25.254  0.00  0.00    +0.003 A 
BRANCH  25  26
ATOM     26  O   UNL     1      -0.029  -0.014  24.410  0.00  0.00    -0.404 OA
BRANCH  26  27
ATOM     27  C   UNL     1       0.225  -0.385  23.719  0.00  0.00    +0.575 C 
ATOM     28  F   UNL     1       0.480  -0.758  23.029  0.00  0.00    -0.133 F 
ATOM     29  F   UNL     1      -0.071  -1.103  23.997  0.00  0.00    -0.133 F 
ATOM     30  F   UNL     1       0.522   0.333  23.442  0.00  0.00    -0.133 F 
ENDBRANCH  26  27
ENDBRANCH  25  26
ENDBRANCH  17  22
BRANCH   8   7
ATOM      7  C   UNL     1      -3.421   2.837  25.242  0.00  0.00    +0.138 C 
BRANCH   7   6
ATOM      3  C   UNL     1      -2.153   4.554  25.298  0.00  0.00    +0.156 A 
ATOM      4  C   UNL     1      -2.291   4.432  26.102  0.00  0.00    +0.038 A 
ATOM      5  C   UNL     1      -2.783   3.774  26.180  0.00  0.00    +0.037 A 
ATOM      6  C   UNL     1      -2.949   3.489  25.422  0.00  0.00    +0.139 A 
ATOM     33  O   UNL     1      -2.559   3.971  24.878  0.00  0.00    -0.458 OA
BRANCH   3   2
ATOM      1  O   UNL     1      -0.868   5.083  24.966  0.00  0.00    -0.212 OA
ATOM      2  C   UNL     1      -1.689   5.153  24.972  0.00  0.00    +0.246 C 
ENDBRANCH   3   2
ENDBRANCH   7   6
ENDBRANCH   8   7
TORSDOF 6
ENDMDL
MODEL 7
REMARK VINA RESULT:     -13.0      1.937      3.798
REMARK  Name = 
REMARK  6 active torsions:
REMARK  status: ('A' for Active; 'I' for Inactive)
REMARK    1  A    between atoms: C_2  and  C_3
REMARK    2  A    between atoms: C_6  and  C_7
REMARK    3  A    between atoms: C_7  and  N_8
REMARK    4  A    between atoms: C_17  and  C_22
REMARK    5  A    between atoms: C_25  and  O_26
REMARK    6  A    between atoms: O_26  and  C_27
REMARK                            x       y       z     vdW  Elec       q    Type
REMARK                         _______ _______ _______ _____ _____    ______ ____
ROOT
ATOM      8  N   UNL     1      -4.686   1.604  25.034  0.00  0.00    -0.266 NA
ATOM      9  C   UNL     1      -5.517   1.660  25.103  0.00  0.00    +0.074 C 
ATOM     10  C   UNL     1      -5.600   2.621  25.319  0.00  0.00    +0.039 C 
ATOM     11  C   UNL     1      -5.835   3.379  25.500  0.00  0.00    +0.011 C 
ATOM     12  C   UNL     1      -5.234   3.036  25.385  0.00  0.00    +0.054 C 
ATOM     13  C   UNL     1      -5.170   2.106  25.177  0.00  0.00    +0.078 C 
ATOM     14  C   UNL     1      -4.325   3.166  25.352  0.00  0.00    +0.041 A 
ATOM     15  C   UNL     1      -3.759   3.759  25.443  0.00  0.00    +0.013 A 
ATOM     16  C   UNL     1      -2.959   3.583  25.351  0.00  0.00    +0.006 A 
ATOM     17  C   UNL     1      -2.724   2.814  25.166  0.00  0.00    +0.056 A 
ATOM     18  C   UNL     1      -3.290   2.221  25.075  0.00  0.00    +0.261 A 
ATOM     19  O   UNL     1      -3.055   1.451  24.891  0.00  0.00    -0.267 OA
ATOM     20  N   UNL     1      -4.090   2.397  25.167  0.00  0.00    -0.299 N 
ATOM     21  C   UNL     1      -4.649   2.747  25.282  0.00  0.00    +0.110 C 
ENDROOT
BRANCH  17  22
ATOM     22  C   UNL     1      -1.923   2.639  25.074  0.00  0.00    +0.005 A 
ATOM     23  C   UNL     1      -1.476   2.398  25.724  0.00  0.00    +0.003 A 
ATOM     24  C   UNL     1      -0.676   2.223  25.633  0.00  0.00    +0.037 A 
ATOM     25  C   UNL     1      -0.322   2.287  24.891  0.00  0.00    +0.147 A 
ATOM     31  C   UNL     1      -0.768   2.527  24.239  0.00  0.00    +0.037 A 
ATOM     32  C   UNL     1      -1.570   2.703  24.332  0.00  0.00    +0.003 A 
BRANCH  25  26
ATOM     26  O   UNL     1       0.480   2.112  24.798  0.00  0.00    -0.404 OA
BRANCH  26  27
ATOM     27  C   UNL     1       0.721   1.585  24.212  0.00  0.00    +0.575 C 
ATOM     28  F   UNL     1       0.961   1.056  23.626  0.00  0.00    -0.133 F 
ATOM     29  F   UNL     1       0.418   0.957  24.654  0.00  0.00    -0.133 F 
ATOM     30  F   UNL     1       1.023   2.212  23.771  0.00  0.00    -0.133 F 
ENDBRANCH  26  27
ENDBRANCH  25  26
ENDBRANCH  17  22
BRANCH   8   7
ATOM      7  C   UNL     1      -3.946   1.261  24.909  0.00  0.00    +0.138 C 
BRANCH   7   6
ATOM      3  C   UNL     1      -3.725  -0.860  24.993  0.00  0.00    +0.156 A 
ATOM      4  C   UNL     1      -3.850  -0.745  24.186  0.00  0.00    +0.038 A 
ATOM      5  C   UNL     1      -3.948   0.063  24.056  0.00  0.00    +0.037 A 
ATOM      6  C   UNL     1      -3.883   0.448  24.784  0.00  0.00    +0.139 A 
ATOM     33  O   UNL     1      -3.746  -0.123  25.363  0.00  0.00    -0.458 OA
BRANCH   3   2
ATOM      1  O   UNL     1      -3.606  -2.283  24.925  0.00  0.00    -0.212 OA
ATOM      2  C   UNL     1      -3.602  -1.587  25.366  0.00  0.00    +0.246 C 
ENDBRANCH   3   2
ENDBRANCH   7   6
ENDBRANCH   8   7
TORSDOF 6
ENDMDL
