MODEL 1
REMARK VINA RESULT:     -16.4      0.000      0.000
REMARK  Name = 
REMARK  2 active torsions:
REMARK  status: ('A' for Active; 'I' for Inactive)
REMARK    1  A    between atoms: C_2  and  N_4
REMARK    2  A    between atoms: C_16  and  C_17
REMARK                            x       y       z     vdW  Elec       q    Type
REMARK                         _______ _______ _______ _____ _____    ______ ____
ROOT
ATOM      4  N   UNL     1      -2.392   2.164  24.120  0.00  0.00    -0.190 NA
ATOM      5  C   UNL     1      -3.147   2.151  24.452  0.00  0.00    +0.323 C 
ATOM      6  O   UNL     1      -3.523   1.431  24.594  0.00  0.00    -0.251 OA
ATOM      7  N   UNL     1      -3.526   2.859  24.643  0.00  0.00    -0.262 N 
ATOM      8  C   UNL     1      -3.645   3.682  24.723  0.00  0.00    +0.097 C 
ATOM      9  C   UNL     1      -4.549   3.681  25.122  0.00  0.00    +0.043 C 
ATOM     10  C   UNL     1      -5.276   3.849  25.449  0.00  0.00    +0.011 C 
ATOM     11  C   UNL     1      -4.908   3.280  25.267  0.00  0.00    +0.058 C 
ATOM     12  C   UNL     1      -4.034   3.298  24.882  0.00  0.00    +0.101 C 
ATOM     13  C   UNL     1      -4.957   2.362  25.258  0.00  0.00    +0.041 A 
ATOM     14  C   UNL     1      -5.466   1.746  25.462  0.00  0.00    +0.013 A 
ATOM     15  C   UNL     1      -5.238   0.963  25.335  0.00  0.00    +0.006 A 
ATOM     16  C   UNL     1      -4.500   0.797  25.004  0.00  0.00    +0.062 A 
ATOM     26  C   UNL     1      -3.991   1.413  24.800  0.00  0.00    +0.261 A 
ATOM     27  O   UNL     1      -3.340   1.006  24.499  0.00  0.00    -0.267 OA
ATOM     28  N   UNL     1      -4.220   2.196  24.927  0.00  0.00    -0.299 N 
ATOM     29  C   UNL     1      -4.591   2.722  25.109  0.00  0.00    +0.110 C 
ENDROOT
BRANCH  16  17
ATOM     17  C   UNL     1      -4.273   0.015  24.877  0.00  0.00    +0.034 A 
ATOM     18  C   UNL     1      -4.404  -0.424  24.191  0.00  0.00    +0.007 A 
ATOM     19  C   UNL     1      -4.086  -1.177  24.305  0.00  0.00    +0.006 A 
ATOM     20  C   UNL     1      -3.758  -1.203  25.063  0.00  0.00    +0.029 A 
ATOM     21  S   UNL     1      -3.874  -0.468  25.415  0.00  0.00    -0.087 S 
ATOM     22  C   UNL     1      -3.397  -1.895  25.331  0.00  0.00    +0.006 A 
ATOM     23  C   UNL     1      -3.364  -2.559  24.844  0.00  0.00    +0.001 A 
ATOM     24  C   UNL     1      -3.691  -2.533  24.087  0.00  0.00    +0.000 A 
ATOM     25  C   UNL     1      -4.052  -1.842  23.818  0.00  0.00    +0.001 A 
ENDBRANCH  16  17
BRANCH   4   2
ATOM      1  C   UNL     1      -1.537   1.079  24.488  0.00  0.00    +0.023 C 
ATOM      2  C   UNL     1      -2.013   1.456  23.929  0.00  0.00    +0.097 C 
ATOM      3  C   UNL     1      -2.111   1.126  23.179  0.00  0.00    +0.023 C 
ENDBRANCH   4   2
TORSDOF 2
ENDMDL
MODEL 2
REMARK VINA RESULT:     -15.8      1.501      4.064
REMARK  Name = 
REMARK  2 active torsions:
REMARK  status: ('A' for Active; 'I' for Inactive)
REMARK    1  A    between atoms: C_2  and  N_4
REMARK    2  A    between atoms: C_16  and  C_17
REMARK                            x       y       z     vdW  Elec       q    Type
REMARK                         _______ _______ _______ _____ _____    ______ ____
ROOT
ATOM      4  N   UNL     1      -1.145  -0.361  24.833  0.00  0.00    -0.190 NA
ATOM      5  C   UNL     1      -1.908  -0.645  24.701  0.00  0.00    +0.323 C 
ATOM      6  O   UNL     1      -2.533  -0.116  24.597  0.00  0.00    -0.251 OA
ATOM      7  N   UNL     1      -2.047  -1.458  24.672  0.00  0.00    -0.262 N 
ATOM      8  C   UNL     1      -1.885  -2.277  24.695  0.00  0.00    +0.097 C 
ATOM      9  C   UNL     1      -2.794  -2.630  24.537  0.00  0.00    +0.043 C 
ATOM     10  C   UNL     1      -3.468  -3.073  24.419  0.00  0.00    +0.011 C 
ATOM     11  C   UNL     1      -3.293  -2.394  24.453  0.00  0.00    +0.058 C 
ATOM     12  C   UNL     1      -2.408  -2.068  24.607  0.00  0.00    +0.101 C 
ATOM     13  C   UNL     1      -3.656  -1.552  24.395  0.00  0.00    +0.041 A 
ATOM     14  C   UNL     1      -4.378  -1.173  24.274  0.00  0.00    +0.013 A 
ATOM     15  C   UNL     1      -4.416  -0.349  24.272  0.00  0.00    +0.006 A 
ATOM     16  C   UNL     1      -3.732   0.096  24.392  0.00  0.00    +0.062 A 
ATOM     26  C   UNL     1      -3.010  -0.283  24.514  0.00  0.00    +0.261 A 
ATOM     27  O   UNL     1      -2.495   0.355  24.606  0.00  0.00    -0.267 OA
ATOM     28  N   UNL     1      -2.972  -1.107  24.515  0.00  0.00    -0.299 N 
ATOM     29  C   UNL     1      -3.165  -1.746  24.478  0.00  0.00    +0.110 C 
ENDROOT
BRANCH  16  17
ATOM     17  C   UNL     1      -3.771   0.920  24.390  0.00  0.00    +0.034 A 
ATOM     18  C   UNL     1      -3.621   1.412  23.745  0.00  0.00    +0.007 A 
ATOM     19  C   UNL     1      -3.724   2.192  23.990  0.00  0.00    +0.006 A 
ATOM     20  C   UNL     1      -3.939   2.183  24.787  0.00  0.00    +0.029 A 
ATOM     21  S   UNL     1      -3.967   1.398  25.034  0.00  0.00    -0.087 S 
ATOM     22  C   UNL     1      -4.080   2.893  25.184  0.00  0.00    +0.006 A 
ATOM     23  C   UNL     1      -4.006   3.611  24.785  0.00  0.00    +0.001 A 
ATOM     24  C   UNL     1      -3.792   3.620  23.989  0.00  0.00    +0.000 A 
ATOM     25  C   UNL     1      -3.651   2.911  23.591  0.00  0.00    +0.001 A 
ENDBRANCH  16  17
BRANCH   4   2
ATOM      1  C   UNL     1      -1.063   0.855  25.580  0.00  0.00    +0.023 C 
ATOM      2  C   UNL     1      -1.007   0.452  24.862  0.00  0.00    +0.097 C 
ATOM      3  C   UNL     1      -0.811   0.862  24.173  0.00  0.00    +0.023 C 
ENDBRANCH   4   2
TORSDOF 2
ENDMDL
MODEL 3
REMARK VINA RESULT:     -15.1      1.044      2.250
REMARK  Name = 
REMARK  2 active torsions:
REMARK  status: ('A' for Active; 'I' for Inactive)
REMARK    1  A    between atoms: C_2  and  N_4
REMARK    2  A    between atoms: C_16  and  C_17
REMARK                            x       y       z     vdW  Elec       q    Type
REMARK                         _______ _______ _______ _____ _____    ______ ____
ROOT
ATOM      4  N   UNL     1      -4.861   2.839  25.418  0.00  0.00    -0.190 NA
ATOM      5  C   UNL     1      -4.046   2.780  25.308  0.00  0.00    +0.323 C 
ATOM      6  O   UNL     1      -3.708   2.054  25.107  0.00  0.00    -0.251 OA
ATOM      7  N   UNL     1      -3.568   3.447  25.400  0.00  0.00    -0.262 N 
ATOM      8  C   UNL     1      -3.360   4.241  25.552  0.00  0.00    +0.097 C 
ATOM      9  C   UNL     1      -2.382   4.184  25.424  0.00  0.00    +0.043 C 
ATOM     10  C   UNL     1      -1.579   4.303  25.356  0.00  0.00    +0.011 C 
ATOM     11  C   UNL     1      -2.032   3.771  25.291  0.00  0.00    +0.058 C 
ATOM     12  C   UNL     1      -2.976   3.842  25.418  0.00  0.00    +0.101 C 
ATOM     13  C   UNL     1      -2.067   2.873  25.095  0.00  0.00    +0.041 A 
ATOM     14  C   UNL     1      -1.575   2.242  24.897  0.00  0.00    +0.013 A 
ATOM     15  C   UNL     1      -1.897   1.493  24.768  0.00  0.00    +0.006 A 
ATOM     16  C   UNL     1      -2.711   1.377  24.838  0.00  0.00    +0.062 A 
ATOM     26  C   UNL     1      -3.203   2.008  25.037  0.00  0.00    +0.261 A 
ATOM     27  O   UNL     1      -3.946   1.652  25.045  0.00  0.00    -0.267 OA
ATOM     28  N   UNL     1      -2.881   2.757  25.165  0.00  0.00    -0.299 N 
ATOM     29  C   UNL     1      -2.428   3.247  25.221  0.00  0.00    +0.110 C 
ENDROOT
BRANCH  16  17
ATOM     17  C   UNL     1      -3.033   0.628  24.710  0.00  0.00    +0.034 A 
ATOM     18  C   UNL     1      -3.370   0.359  24.007  0.00  0.00    +0.007 A 
ATOM     19  C   UNL     1      -3.619  -0.419  24.125  0.00  0.00    +0.006 A 
ATOM     20  C   UNL     1      -3.435  -0.630  24.902  0.00  0.00    +0.029 A 
ATOM     21  S   UNL     1      -3.073   0.016  25.262  0.00  0.00    -0.087 S 
ATOM     22  C   UNL     1      -3.622  -1.385  25.178  0.00  0.00    +0.006 A 
ATOM     23  C   UNL     1      -3.992  -1.928  24.680  0.00  0.00    +0.001 A 
ATOM     24  C   UNL     1      -4.175  -1.716  23.904  0.00  0.00    +0.000 A 
ATOM     25  C   UNL     1      -3.989  -0.962  23.627  0.00  0.00    +0.001 A 
ENDBRANCH  16  17
BRANCH   4   2
ATOM      1  C   UNL     1      -5.503   1.690  25.975  0.00  0.00    +0.023 C 
ATOM      2  C   UNL     1      -5.339   2.173  25.326  0.00  0.00    +0.097 C 
ATOM      3  C   UNL     1      -5.653   1.989  24.585  0.00  0.00    +0.023 C 
ENDBRANCH   4   2
TORSDOF 2
ENDMDL
MODEL 4
REMARK VINA RESULT:     -15.1      1.686      4.359
REMARK  Name = 
REMARK  2 active torsions:
REMARK  status: ('A' for Active; 'I' for Inactive)
REMARK    1  A    between atoms: C_2  and  N_4
REMARK    2  A    between atoms: C_16  and  C_17
REMARK                            x       y       z     vdW  Elec       q    Type
REMARK                         _______ _______ _______ _____ _____    ______ ____
ROOT
ATOM      4  N   UNL     1      -4.054   0.500  24.058  0.00  0.00    -0.190 NA
ATOM      5  C   UNL     1      -3.565  -0.136  24.248  0.00  0.00    +0.323 C 
ATOM      6  O   UNL     1      -2.789  -0.001  24.494  0.00  0.00    -0.251 OA
ATOM      7  N   UNL     1      -3.852  -0.908  24.192  0.00  0.00    -0.262 N 
ATOM      8  C   UNL     1      -4.389  -1.531  24.046  0.00  0.00    +0.097 C 
ATOM      9  C   UNL     1      -3.814  -2.302  24.271  0.00  0.00    +0.043 C 
ATOM     10  C   UNL     1      -3.477  -3.030  24.416  0.00  0.00    +0.011 C 
ATOM     11  C   UNL     1      -3.287  -2.355  24.445  0.00  0.00    +0.058 C 
ATOM     12  C   UNL     1      -3.855  -1.620  24.225  0.00  0.00    +0.101 C 
ATOM     13  C   UNL     1      -2.572  -1.816  24.653  0.00  0.00    +0.041 A 
ATOM     14  C   UNL     1      -1.790  -1.860  24.910  0.00  0.00    +0.013 A 
ATOM     15  C   UNL     1      -1.352  -1.170  25.019  0.00  0.00    +0.006 A 
ATOM     16  C   UNL     1      -1.696  -0.435  24.871  0.00  0.00    +0.062 A 
ATOM     26  C   UNL     1      -2.479  -0.390  24.614  0.00  0.00    +0.261 A 
ATOM     27  O   UNL     1      -2.589   0.424  24.539  0.00  0.00    -0.267 OA
ATOM     28  N   UNL     1      -2.916  -1.081  24.505  0.00  0.00    -0.299 N 
ATOM     29  C   UNL     1      -3.073  -1.731  24.485  0.00  0.00    +0.110 C 
ENDROOT
BRANCH  16  17
ATOM     17  C   UNL     1      -1.258   0.255  24.981  0.00  0.00    +0.034 A 
ATOM     18  C   UNL     1      -1.247   0.720  25.662  0.00  0.00    +0.007 A 
ATOM     19  C   UNL     1      -0.735   1.354  25.530  0.00  0.00    +0.006 A 
ATOM     20  C   UNL     1      -0.429   1.279  24.767  0.00  0.00    +0.029 A 
ATOM     21  S   UNL     1      -0.752   0.601  24.429  0.00  0.00    -0.087 S 
ATOM     22  C   UNL     1       0.105   1.840  24.481  0.00  0.00    +0.006 A 
ATOM     23  C   UNL     1       0.331   2.474  24.956  0.00  0.00    +0.001 A 
ATOM     24  C   UNL     1       0.025   2.549  25.719  0.00  0.00    +0.000 A 
ATOM     25  C   UNL     1      -0.508   1.989  26.005  0.00  0.00    +0.001 A 
ENDBRANCH  16  17
BRANCH   4   2
ATOM      1  C   UNL     1      -3.386   1.618  23.469  0.00  0.00    +0.023 C 
ATOM      2  C   UNL     1      -3.767   1.272  24.114  0.00  0.00    +0.097 C 
ATOM      3  C   UNL     1      -3.862   1.697  24.815  0.00  0.00    +0.023 C 
ENDBRANCH   4   2
TORSDOF 2
ENDMDL
MODEL 5
REMARK VINA RESULT:     -14.3      1.831      2.993
REMARK  Name = 
REMARK  2 active torsions:
REMARK  status: ('A' for Active; 'I' for Inactive)
REMARK    1  A    between atoms: C_2  and  N_4
REMARK    2  A    between atoms: C_16  and  C_17
REMARK                            x       y       z     vdW  Elec       q    Type
REMARK                         _______ _______ _______ _____ _____    ______ ____
ROOT
ATOM      4  N   UNL     1      -3.593   2.254  24.429  0.00  0.00    -0.190 NA
ATOM      5  C   UNL     1      -2.876   2.564  24.693  0.00  0.00    +0.323 C 
ATOM      6  O   UNL     1      -2.239   2.060  24.842  0.00  0.00    -0.251 OA
ATOM      7  N   UNL     1      -2.796   3.377  24.809  0.00  0.00    -0.262 N 
ATOM      8  C   UNL     1      -3.005   4.185  24.831  0.00  0.00    +0.097 C 
ATOM      9  C   UNL     1      -2.151   4.569  25.147  0.00  0.00    +0.043 C 
ATOM     10  C   UNL     1      -1.531   5.034  25.397  0.00  0.00    +0.011 C 
ATOM     11  C   UNL     1      -1.656   4.353  25.282  0.00  0.00    +0.058 C 
ATOM     12  C   UNL     1      -2.487   3.997  24.976  0.00  0.00    +0.101 C 
ATOM     13  C   UNL     1      -1.250   3.529  25.321  0.00  0.00    +0.041 A 
ATOM     14  C   UNL     1      -0.529   3.179  25.514  0.00  0.00    +0.013 A 
ATOM     15  C   UNL     1      -0.438   2.361  25.453  0.00  0.00    +0.006 A 
ATOM     16  C   UNL     1      -1.069   1.894  25.199  0.00  0.00    +0.062 A 
ATOM     26  C   UNL     1      -1.790   2.244  25.006  0.00  0.00    +0.261 A 
ATOM     27  O   UNL     1      -2.245   1.591  24.788  0.00  0.00    -0.267 OA
ATOM     28  N   UNL     1      -1.881   3.061  25.067  0.00  0.00    -0.299 N 
ATOM     29  C   UNL     1      -1.736   3.704  25.185  0.00  0.00    +0.110 C 
ENDROOT
BRANCH  16  17
ATOM     17  C   UNL     1      -0.978   1.076  25.138  0.00  0.00    +0.034 A 
ATOM     18  C   UNL     1      -1.187   0.520  25.710  0.00  0.00    +0.007 A 
ATOM     19  C   UNL     1      -0.999  -0.228  25.419  0.00  0.00    +0.006 A 
ATOM     20  C   UNL     1      -0.673  -0.135  24.666  0.00  0.00    +0.029 A 
ATOM     21  S   UNL     1      -0.660   0.671  24.493  0.00  0.00    -0.087 S 
ATOM     22  C   UNL     1      -0.431  -0.797  24.237  0.00  0.00    +0.006 A 
ATOM     23  C   UNL     1      -0.514  -1.551  24.560  0.00  0.00    +0.001 A 
ATOM     24  C   UNL     1      -0.840  -1.645  25.312  0.00  0.00    +0.000 A 
ATOM     25  C   UNL     1      -1.082  -0.983  25.741  0.00  0.00    +0.001 A 
ENDBRANCH  16  17
BRANCH   4   2
ATOM      1  C   UNL     1      -3.956   0.963  24.924  0.00  0.00    +0.023 C 
ATOM      2  C   UNL     1      -3.674   1.441  24.313  0.00  0.00    +0.097 C 
ATOM      3  C   UNL     1      -3.472   1.105  23.586  0.00  0.00    +0.023 C 
ENDBRANCH   4   2
TORSDOF 2
ENDMDL
