REMARK  Name = 
REMARK  4 active torsions:
REMARK  status: ('A' for Active; 'I' for Inactive)
REMARK    1  A    between atoms: C_2  and  C_24
REMARK    2  A    between atoms: N_3  and  C_4
REMARK    3  A    between atoms: C_8  and  N_12
REMARK    4  A    between atoms: C_15  and  C_19
REMARK                            x       y       z     vdW  Elec       q    Type
REMARK                         _______ _______ _______ _____ _____    ______ ____
ROOT
ATOM      4  C   UNL     1       4.781   3.585   0.000  0.00  0.00    +0.155 C 
ATOM      5  C   UNL     1       4.867   4.406   0.000  0.00  0.00    +0.166 C 
ATOM      6  O   UNL     1       5.674   4.577   0.000  0.00  0.00    -0.350 OA
ATOM      7  C   UNL     1       6.087   3.863   0.000  0.00  0.00    +0.166 C 
ATOM      8  C   UNL     1       6.841   3.527   0.000  0.00  0.00    +0.154 C 
ATOM      9  C   UNL     1       6.754   2.707   0.000  0.00  0.00    +0.166 C 
ATOM     10  O   UNL     1       5.947   2.535   0.000  0.00  0.00    -0.350 OA
ATOM     11  C   UNL     1       5.535   3.250   0.000  0.00  0.00    +0.166 C 
ENDROOT
BRANCH   8  12
ATOM     12  N   UNL     1       7.555   3.940   0.000  0.00  0.00    -0.200 NA
ATOM     13  C   UNL     1       8.270   3.527   0.000  0.00  0.00    +0.237 A 
ATOM     14  N   UNL     1       8.984   3.940   0.000  0.00  0.00    -0.209 NA
ATOM     15  C   UNL     1       9.698   3.527   0.000  0.00  0.00    +0.120 A 
ATOM     16  C   UNL     1       9.698   2.702   0.000  0.00  0.00    +0.043 A 
ATOM     17  C   UNL     1       8.984   2.290   0.000  0.00  0.00    +0.104 A 
ATOM     18  N   UNL     1       8.270   2.702   0.000  0.00  0.00    -0.211 NA
BRANCH  15  19
ATOM     19  C   UNL     1      10.413   3.940   0.000  0.00  0.00    +0.163 A 
ATOM     20  C   UNL     1      10.499   4.760   0.000  0.00  0.00    +0.042 A 
ATOM     21  C   UNL     1      11.306   4.932   0.000  0.00  0.00    +0.044 A 
ATOM     22  C   UNL     1      11.719   4.218   0.000  0.00  0.00    +0.180 A 
ATOM     23  O   UNL     1      11.167   3.604   0.000  0.00  0.00    -0.449 OA
ENDBRANCH  15  19
ENDBRANCH   8  12
BRANCH   4   3
ATOM      1  O   UNL     1       4.781   1.935   0.000  0.00  0.00    -0.268 OA
ATOM      2  C   UNL     1       4.067   2.348   0.000  0.00  0.00    +0.265 C 
ATOM      3  N   UNL     1       4.067   3.173   0.000  0.00  0.00    -0.198 NA
BRANCH   2  24
ATOM     24  C   UNL     1       3.352   1.935   0.000  0.00  0.00    +0.058 A 
ATOM     25  C   UNL     1       3.352   1.110   0.000  0.00  0.00    +0.008 A 
ATOM     26  C   UNL     1       2.638   0.698   0.000  0.00  0.00    +0.040 A 
ATOM     27  C   UNL     1       1.923   1.110   0.000  0.00  0.00    +0.176 A 
ATOM     28  O   UNL     1       1.139   0.856   0.000  0.00  0.00    -0.435 OA
ATOM     29  C   UNL     1       0.654   1.523   0.000  0.00  0.00    +0.429 C 
ATOM     30  O   UNL     1       1.139   2.190   0.000  0.00  0.00    -0.435 OA
ATOM     31  C   UNL     1       1.923   1.935   0.000  0.00  0.00    +0.177 A 
ATOM     32  C   UNL     1       2.638   2.348   0.000  0.00  0.00    +0.045 A 
ENDBRANCH   2  24
ENDBRANCH   4   3
TORSDOF 4
