MODEL 1
REMARK VINA RESULT:     -10.3      0.000      0.000
REMARK  Name = 
REMARK  8 active torsions:
REMARK  status: ('A' for Active; 'I' for Inactive)
REMARK    1  A    between atoms: N_2  and  C_3
REMARK    2  A    between atoms: N_2  and  C_24
REMARK    3  A    between atoms: C_3  and  C_4
REMARK    4  A    between atoms: C_6  and  C_7
REMARK    5  A    between atoms: C_7  and  C_8
REMARK    6  A    between atoms: C_8  and  N_12
REMARK    7  A    between atoms: N_12  and  C_13
REMARK    8  A    between atoms: C_24  and  C_25
REMARK                            x       y       z     vdW  Elec       q    Type
REMARK                         _______ _______ _______ _____ _____    ______ ____
ROOT
ATOM      4  C   UNL     1      -4.816   0.771  24.740  0.00  0.00    +0.170 A 
ATOM      5  C   UNL     1      -4.278   1.367  24.550  0.00  0.00    +0.055 A 
ATOM      6  C   UNL     1      -4.570   2.078  24.851  0.00  0.00    +0.102 A 
ATOM     22  N   UNL     1      -5.287   1.921  25.227  0.00  0.00    -0.082 NA
ATOM     23  O   UNL     1      -5.439   1.113  25.158  0.00  0.00    -0.357 OA
ENDROOT
BRANCH   4   3
ATOM      3  C   UNL     1      -4.743  -0.028  24.545  0.00  0.00    +0.141 C 
BRANCH   3   2
ATOM      1  C   UNL     1      -3.944  -0.510  25.628  0.00  0.00    +0.090 C 
ATOM      2  N   UNL     1      -4.096  -0.462  24.818  0.00  0.00    -0.261 NA
BRANCH   2  24
ATOM     24  C   UNL     1      -3.603  -0.847  24.282  0.00  0.00    +0.100 C 
BRANCH  24  25
ATOM     25  C   UNL     1      -3.531  -1.669  24.302  0.00  0.00    -0.006 A 
ATOM     26  C   UNL     1      -2.875  -2.016  24.662  0.00  0.00    -0.003 A 
ATOM     27  C   UNL     1      -2.802  -2.837  24.682  0.00  0.00    -0.000 A 
ATOM     28  C   UNL     1      -3.387  -3.311  24.342  0.00  0.00    -0.000 A 
ATOM     29  C   UNL     1      -4.043  -2.964  23.982  0.00  0.00    -0.000 A 
ATOM     30  C   UNL     1      -4.115  -2.142  23.962  0.00  0.00    -0.003 A 
ENDBRANCH  24  25
ENDBRANCH   2  24
ENDBRANCH   3   2
ENDBRANCH   4   3
BRANCH   6   7
ATOM      7  C   UNL     1      -4.206   2.816  24.788  0.00  0.00    +0.070 C 
BRANCH   7   8
ATOM      8  C   UNL     1      -4.276   3.363  25.400  0.00  0.00    +0.119 C 
ATOM      9  C   UNL     1      -4.345   3.912  26.014  0.00  0.00    +0.161 C 
ATOM     10  O   UNL     1      -5.091   4.127  25.736  0.00  0.00    -0.351 OA
ATOM     11  C   UNL     1      -5.022   3.580  25.123  0.00  0.00    +0.161 C 
BRANCH   8  12
ATOM     12  N   UNL     1      -3.529   3.148  25.678  0.00  0.00    -0.217 NA
BRANCH  12  13
ATOM     13  C   UNL     1      -2.869   3.603  25.481  0.00  0.00    +0.076 C 
ATOM     14  C   UNL     1      -2.877   4.418  25.612  0.00  0.00    +0.039 C 
ATOM     15  C   UNL     1      -2.217   4.872  25.414  0.00  0.00    +0.095 C 
ATOM     16  N   UNL     1      -1.550   4.512  25.087  0.00  0.00    -0.279 N 
ATOM     17  C   UNL     1      -1.544   3.697  24.957  0.00  0.00    +0.095 C 
ATOM     18  C   UNL     1      -2.203   3.242  25.154  0.00  0.00    +0.039 C 
ATOM     19  C   UNL     1      -0.890   4.966  24.890  0.00  0.00    +0.226 C 
ATOM     20  C   UNL     1      -0.224   4.607  24.563  0.00  0.00    +0.095 C 
ATOM     21  O   UNL     1      -0.897   5.781  25.021  0.00  0.00    -0.275 OA
ENDBRANCH  12  13
ENDBRANCH   8  12
ENDBRANCH   7   8
ENDBRANCH   6   7
TORSDOF 8
ENDMDL
MODEL 2
REMARK VINA RESULT:     -10.2      1.308      5.054
REMARK  Name = 
REMARK  8 active torsions:
REMARK  status: ('A' for Active; 'I' for Inactive)
REMARK    1  A    between atoms: N_2  and  C_3
REMARK    2  A    between atoms: N_2  and  C_24
REMARK    3  A    between atoms: C_3  and  C_4
REMARK    4  A    between atoms: C_6  and  C_7
REMARK    5  A    between atoms: C_7  and  C_8
REMARK    6  A    between atoms: C_8  and  N_12
REMARK    7  A    between atoms: N_12  and  C_13
REMARK    8  A    between atoms: C_24  and  C_25
REMARK                            x       y       z     vdW  Elec       q    Type
REMARK                         _______ _______ _______ _____ _____    ______ ____
ROOT
ATOM      4  C   UNL     1      -3.434   3.624  24.683  0.00  0.00    +0.170 A 
ATOM      5  C   UNL     1      -3.523   2.853  24.402  0.00  0.00    +0.055 A 
ATOM      6  C   UNL     1      -4.296   2.612  24.564  0.00  0.00    +0.102 A 
ATOM     22  N   UNL     1      -4.684   3.233  24.944  0.00  0.00    -0.082 NA
ATOM     23  O   UNL     1      -4.151   3.858  25.018  0.00  0.00    -0.357 OA
ENDROOT
BRANCH   4   3
ATOM      3  C   UNL     1      -2.748   4.079  24.637  0.00  0.00    +0.141 C 
BRANCH   3   2
ATOM      1  C   UNL     1      -2.461   3.980  26.033  0.00  0.00    +0.090 C 
ATOM      2  N   UNL     1      -2.201   4.067  25.255  0.00  0.00    -0.261 NA
BRANCH   2  24
ATOM     24  C   UNL     1      -1.396   4.140  25.095  0.00  0.00    +0.100 C 
BRANCH  24  25
ATOM     25  C   UNL     1      -0.885   3.509  25.244  0.00  0.00    -0.006 A 
ATOM     26  C   UNL     1      -0.506   3.129  24.616  0.00  0.00    -0.003 A 
ATOM     27  C   UNL     1       0.004   2.499  24.765  0.00  0.00    -0.000 A 
ATOM     28  C   UNL     1       0.136   2.248  25.541  0.00  0.00    -0.000 A 
ATOM     29  C   UNL     1      -0.243   2.628  26.167  0.00  0.00    -0.000 A 
ATOM     30  C   UNL     1      -0.753   3.259  26.019  0.00  0.00    -0.003 A 
ENDBRANCH  24  25
ENDBRANCH   2  24
ENDBRANCH   3   2
ENDBRANCH   4   3
BRANCH   6   7
ATOM      7  C   UNL     1      -4.623   1.878  24.377  0.00  0.00    +0.070 C 
BRANCH   7   8
ATOM      8  C   UNL     1      -4.889   1.380  24.979  0.00  0.00    +0.119 C 
ATOM      9  C   UNL     1      -5.154   0.882  25.581  0.00  0.00    +0.161 C 
ATOM     10  O   UNL     1      -5.896   1.242  25.551  0.00  0.00    -0.351 OA
ATOM     11  C   UNL     1      -5.631   1.739  24.949  0.00  0.00    +0.161 C 
BRANCH   8  12
ATOM     12  N   UNL     1      -4.147   1.020  25.009  0.00  0.00    -0.217 NA
BRANCH  12  13
ATOM     13  C   UNL     1      -4.073   0.215  24.845  0.00  0.00    +0.076 C 
ATOM     14  C   UNL     1      -4.328  -0.084  24.120  0.00  0.00    +0.039 C 
ATOM     15  C   UNL     1      -4.254  -0.889  23.957  0.00  0.00    +0.095 C 
ATOM     16  N   UNL     1      -3.925  -1.396  24.519  0.00  0.00    -0.279 N 
ATOM     17  C   UNL     1      -3.670  -1.097  25.244  0.00  0.00    +0.095 C 
ATOM     18  C   UNL     1      -3.744  -0.291  25.408  0.00  0.00    +0.039 C 
ATOM     19  C   UNL     1      -3.851  -2.201  24.356  0.00  0.00    +0.226 C 
ATOM     20  C   UNL     1      -3.523  -2.708  24.918  0.00  0.00    +0.095 C 
ATOM     21  O   UNL     1      -4.106  -2.500  23.630  0.00  0.00    -0.275 OA
ENDBRANCH  12  13
ENDBRANCH   8  12
ENDBRANCH   7   8
ENDBRANCH   6   7
TORSDOF 8
ENDMDL
MODEL 3
REMARK VINA RESULT:     -10.1      1.174      5.573
REMARK  Name = 
REMARK  8 active torsions:
REMARK  status: ('A' for Active; 'I' for Inactive)
REMARK    1  A    between atoms: N_2  and  C_3
REMARK    2  A    between atoms: N_2  and  C_24
REMARK    3  A    between atoms: C_3  and  C_4
REMARK    4  A    between atoms: C_6  and  C_7
REMARK    5  A    between atoms: C_7  and  C_8
REMARK    6  A    between atoms: C_8  and  N_12
REMARK    7  A    between atoms: N_12  and  C_13
REMARK    8  A    between atoms: C_24  and  C_25
REMARK                            x       y       z     vdW  Elec       q    Type
REMARK                         _______ _______ _______ _____ _____    ______ ____
ROOT
ATOM      4  C   UNL     1      -3.871   3.331  24.657  0.00  0.00    +0.170 A 
ATOM      5  C   UNL     1      -3.767   2.517  24.565  0.00  0.00    +0.055 A 
ATOM      6  C   UNL     1      -4.513   2.167  24.534  0.00  0.00    +0.102 A 
ATOM     22  N   UNL     1      -5.079   2.763  24.605  0.00  0.00    -0.082 NA
ATOM     23  O   UNL     1      -4.682   3.483  24.681  0.00  0.00    -0.357 OA
ENDROOT
BRANCH   4   3
ATOM      3  C   UNL     1      -3.271   3.893  24.714  0.00  0.00    +0.141 C 
BRANCH   3   2
ATOM      1  C   UNL     1      -3.301   4.336  26.072  0.00  0.00    +0.090 C 
ATOM      2  N   UNL     1      -2.887   4.017  25.434  0.00  0.00    -0.261 NA
BRANCH   2  24
ATOM     24  C   UNL     1      -2.090   3.820  25.515  0.00  0.00    +0.100 C 
BRANCH  24  25
ATOM     25  C   UNL     1      -1.508   4.322  25.214  0.00  0.00    -0.006 A 
ATOM     26  C   UNL     1      -0.827   4.003  24.874  0.00  0.00    -0.003 A 
ATOM     27  C   UNL     1      -0.244   4.503  24.573  0.00  0.00    -0.000 A 
ATOM     28  C   UNL     1      -0.343   5.322  24.612  0.00  0.00    -0.000 A 
ATOM     29  C   UNL     1      -1.025   5.640  24.952  0.00  0.00    -0.000 A 
ATOM     30  C   UNL     1      -1.607   5.140  25.253  0.00  0.00    -0.003 A 
ENDBRANCH  24  25
ENDBRANCH   2  24
ENDBRANCH   3   2
ENDBRANCH   4   3
BRANCH   6   7
ATOM      7  C   UNL     1      -4.666   1.361  24.445  0.00  0.00    +0.070 C 
BRANCH   7   8
ATOM      8  C   UNL     1      -4.803   0.893  25.110  0.00  0.00    +0.119 C 
ATOM      9  C   UNL     1      -4.939   0.423  25.776  0.00  0.00    +0.161 C 
ATOM     10  O   UNL     1      -5.695   0.748  25.849  0.00  0.00    -0.351 OA
ATOM     11  C   UNL     1      -5.558   1.216  25.184  0.00  0.00    +0.161 C 
BRANCH   8  12
ATOM     12  N   UNL     1      -4.047   0.569  25.038  0.00  0.00    -0.217 NA
BRANCH  12  13
ATOM     13  C   UNL     1      -3.958  -0.241  24.905  0.00  0.00    +0.076 C 
ATOM     14  C   UNL     1      -3.624  -0.720  25.488  0.00  0.00    +0.039 C 
ATOM     15  C   UNL     1      -3.535  -1.529  25.355  0.00  0.00    +0.095 C 
ATOM     16  N   UNL     1      -3.779  -1.860  24.639  0.00  0.00    -0.279 N 
ATOM     17  C   UNL     1      -4.112  -1.380  24.056  0.00  0.00    +0.095 C 
ATOM     18  C   UNL     1      -4.202  -0.570  24.189  0.00  0.00    +0.039 C 
ATOM     19  C   UNL     1      -3.690  -2.669  24.505  0.00  0.00    +0.226 C 
ATOM     20  C   UNL     1      -3.933  -2.999  23.790  0.00  0.00    +0.095 C 
ATOM     21  O   UNL     1      -3.356  -3.148  25.089  0.00  0.00    -0.275 OA
ENDBRANCH  12  13
ENDBRANCH   8  12
ENDBRANCH   7   8
ENDBRANCH   6   7
TORSDOF 8
ENDMDL
MODEL 4
REMARK VINA RESULT:     -10.1      2.184      3.071
REMARK  Name = 
REMARK  8 active torsions:
REMARK  status: ('A' for Active; 'I' for Inactive)
REMARK    1  A    between atoms: N_2  and  C_3
REMARK    2  A    between atoms: N_2  and  C_24
REMARK    3  A    between atoms: C_3  and  C_4
REMARK    4  A    between atoms: C_6  and  C_7
REMARK    5  A    between atoms: C_7  and  C_8
REMARK    6  A    between atoms: C_8  and  N_12
REMARK    7  A    between atoms: N_12  and  C_13
REMARK    8  A    between atoms: C_24  and  C_25
REMARK                            x       y       z     vdW  Elec       q    Type
REMARK                         _______ _______ _______ _____ _____    ______ ____
ROOT
ATOM      4  C   UNL     1      -0.817  -0.816  24.977  0.00  0.00    +0.170 A 
ATOM      5  C   UNL     1      -1.031  -0.020  25.022  0.00  0.00    +0.055 A 
ATOM      6  C   UNL     1      -0.521   0.408  24.534  0.00  0.00    +0.102 A 
ATOM     22  N   UNL     1       0.007  -0.122  24.188  0.00  0.00    -0.082 NA
ATOM     23  O   UNL     1      -0.175  -0.879  24.461  0.00  0.00    -0.357 OA
ENDROOT
BRANCH   4   3
ATOM      3  C   UNL     1      -1.181  -1.439  25.377  0.00  0.00    +0.141 C 
BRANCH   3   2
ATOM      1  C   UNL     1      -1.626  -2.379  24.398  0.00  0.00    +0.090 C 
ATOM      2  N   UNL     1      -1.792  -1.860  25.017  0.00  0.00    -0.261 NA
BRANCH   2  24
ATOM     24  C   UNL     1      -2.568  -1.761  25.276  0.00  0.00    +0.100 C 
BRANCH  24  25
ATOM     25  C   UNL     1      -3.199  -1.964  24.783  0.00  0.00    -0.006 A 
ATOM     26  C   UNL     1      -3.382  -2.759  24.656  0.00  0.00    -0.003 A 
ATOM     27  C   UNL     1      -4.011  -2.963  24.164  0.00  0.00    -0.000 A 
ATOM     28  C   UNL     1      -4.457  -2.372  23.798  0.00  0.00    -0.000 A 
ATOM     29  C   UNL     1      -4.273  -1.577  23.925  0.00  0.00    -0.000 A 
ATOM     30  C   UNL     1      -3.644  -1.374  24.418  0.00  0.00    -0.003 A 
ENDBRANCH  24  25
ENDBRANCH   2  24
ENDBRANCH   3   2
ENDBRANCH   4   3
BRANCH   6   7
ATOM      7  C   UNL     1      -0.538   1.224  24.414  0.00  0.00    +0.070 C 
BRANCH   7   8
ATOM      8  C   UNL     1      -1.201   1.577  24.075  0.00  0.00    +0.119 C 
ATOM      9  C   UNL     1      -1.866   1.931  23.735  0.00  0.00    +0.161 C 
ATOM     10  O   UNL     1      -1.687   1.572  23.013  0.00  0.00    -0.351 OA
ATOM     11  C   UNL     1      -1.023   1.220  23.353  0.00  0.00    +0.161 C 
BRANCH   8  12
ATOM     12  N   UNL     1      -1.381   1.935  24.796  0.00  0.00    -0.217 NA
BRANCH  12  13
ATOM     13  C   UNL     1      -1.364   2.758  24.863  0.00  0.00    +0.076 C 
ATOM     14  C   UNL     1      -0.658   3.167  24.739  0.00  0.00    +0.039 C 
ATOM     15  C   UNL     1      -0.642   3.989  24.806  0.00  0.00    +0.095 C 
ATOM     16  N   UNL     1      -1.331   4.402  24.997  0.00  0.00    -0.279 N 
ATOM     17  C   UNL     1      -2.036   3.992  25.121  0.00  0.00    +0.095 C 
ATOM     18  C   UNL     1      -2.053   3.169  25.054  0.00  0.00    +0.039 C 
ATOM     19  C   UNL     1      -1.315   5.224  25.064  0.00  0.00    +0.226 C 
ATOM     20  C   UNL     1      -2.003   5.636  25.255  0.00  0.00    +0.095 C 
ATOM     21  O   UNL     1      -0.609   5.633  24.940  0.00  0.00    -0.275 OA
ENDBRANCH  12  13
ENDBRANCH   8  12
ENDBRANCH   7   8
ENDBRANCH   6   7
TORSDOF 8
ENDMDL
MODEL 5
REMARK VINA RESULT:      -9.6      1.985      3.252
REMARK  Name = 
REMARK  8 active torsions:
REMARK  status: ('A' for Active; 'I' for Inactive)
REMARK    1  A    between atoms: N_2  and  C_3
REMARK    2  A    between atoms: N_2  and  C_24
REMARK    3  A    between atoms: C_3  and  C_4
REMARK    4  A    between atoms: C_6  and  C_7
REMARK    5  A    between atoms: C_7  and  C_8
REMARK    6  A    between atoms: C_8  and  N_12
REMARK    7  A    between atoms: N_12  and  C_13
REMARK    8  A    between atoms: C_24  and  C_25
REMARK                            x       y       z     vdW  Elec       q    Type
REMARK                         _______ _______ _______ _____ _____    ______ ____
ROOT
ATOM      4  C   UNL     1      -0.766  -0.512  25.069  0.00  0.00    +0.170 A 
ATOM      5  C   UNL     1      -1.103   0.169  25.392  0.00  0.00    +0.055 A 
ATOM      6  C   UNL     1      -0.708   0.822  25.077  0.00  0.00    +0.102 A 
ATOM     22  N   UNL     1      -0.128   0.545  24.560  0.00  0.00    -0.082 NA
ATOM     23  O   UNL     1      -0.164  -0.280  24.555  0.00  0.00    -0.357 OA
ENDROOT
BRANCH   4   3
ATOM      3  C   UNL     1      -0.992  -1.288  25.233  0.00  0.00    +0.141 C 
BRANCH   3   2
ATOM      1  C   UNL     1      -1.514  -1.951  24.080  0.00  0.00    +0.090 C 
ATOM      2  N   UNL     1      -1.627  -1.627  24.829  0.00  0.00    -0.261 NA
BRANCH   2  24
ATOM     24  C   UNL     1      -2.376  -1.640  25.176  0.00  0.00    +0.100 C 
BRANCH  24  25
ATOM     25  C   UNL     1      -3.025  -1.914  24.747  0.00  0.00    -0.006 A 
ATOM     26  C   UNL     1      -3.166  -2.725  24.687  0.00  0.00    -0.003 A 
ATOM     27  C   UNL     1      -3.815  -3.000  24.259  0.00  0.00    -0.000 A 
ATOM     28  C   UNL     1      -4.324  -2.463  23.890  0.00  0.00    -0.000 A 
ATOM     29  C   UNL     1      -4.182  -1.653  23.950  0.00  0.00    -0.000 A 
ATOM     30  C   UNL     1      -3.533  -1.378  24.379  0.00  0.00    -0.003 A 
ENDBRANCH  24  25
ENDBRANCH   2  24
ENDBRANCH   3   2
ENDBRANCH   4   3
BRANCH   6   7
ATOM      7  C   UNL     1      -0.866   1.613  25.249  0.00  0.00    +0.070 C 
BRANCH   7   8
ATOM      8  C   UNL     1      -1.024   2.144  24.638  0.00  0.00    +0.119 C 
ATOM      9  C   UNL     1      -1.181   2.675  24.026  0.00  0.00    +0.161 C 
ATOM     10  O   UNL     1      -0.397   2.929  24.045  0.00  0.00    -0.351 OA
ATOM     11  C   UNL     1      -0.239   2.399  24.656  0.00  0.00    +0.161 C 
BRANCH   8  12
ATOM     12  N   UNL     1      -1.809   1.890  24.618  0.00  0.00    -0.217 NA
BRANCH  12  13
ATOM     13  C   UNL     1      -2.411   2.396  24.867  0.00  0.00    +0.076 C 
ATOM     14  C   UNL     1      -2.277   2.923  25.488  0.00  0.00    +0.039 C 
ATOM     15  C   UNL     1      -2.880   3.428  25.736  0.00  0.00    +0.095 C 
ATOM     16  N   UNL     1      -3.617   3.407  25.364  0.00  0.00    -0.279 N 
ATOM     17  C   UNL     1      -3.750   2.880  24.743  0.00  0.00    +0.095 C 
ATOM     18  C   UNL     1      -3.147   2.374  24.495  0.00  0.00    +0.039 C 
ATOM     19  C   UNL     1      -4.220   3.913  25.612  0.00  0.00    +0.226 C 
ATOM     20  C   UNL     1      -4.955   3.891  25.240  0.00  0.00    +0.095 C 
ATOM     21  O   UNL     1      -4.086   4.440  26.232  0.00  0.00    -0.275 OA
ENDBRANCH  12  13
ENDBRANCH   8  12
ENDBRANCH   7   8
ENDBRANCH   6   7
TORSDOF 8
ENDMDL
MODEL 6
REMARK VINA RESULT:      -9.5      2.516      6.433
REMARK  Name = 
REMARK  8 active torsions:
REMARK  status: ('A' for Active; 'I' for Inactive)
REMARK    1  A    between atoms: N_2  and  C_3
REMARK    2  A    between atoms: N_2  and  C_24
REMARK    3  A    between atoms: C_3  and  C_4
REMARK    4  A    between atoms: C_6  and  C_7
REMARK    5  A    between atoms: C_7  and  C_8
REMARK    6  A    between atoms: C_8  and  N_12
REMARK    7  A    between atoms: N_12  and  C_13
REMARK    8  A    between atoms: C_24  and  C_25
REMARK                            x       y       z     vdW  Elec       q    Type
REMARK                         _______ _______ _______ _____ _____    ______ ____
ROOT
ATOM      4  C   UNL     1       0.054   1.652  24.553  0.00  0.00    +0.170 A 
ATOM      5  C   UNL     1      -0.534   1.090  24.694  0.00  0.00    +0.055 A 
ATOM      6  C   UNL     1      -0.379   0.435  24.217  0.00  0.00    +0.102 A 
ATOM     22  N   UNL     1       0.303   0.591  23.781  0.00  0.00    -0.082 NA
ATOM     23  O   UNL     1       0.571   1.343  23.989  0.00  0.00    -0.357 OA
ENDROOT
BRANCH   4   3
ATOM      3  C   UNL     1       0.114   2.391  24.913  0.00  0.00    +0.141 C 
BRANCH   3   2
ATOM      1  C   UNL     1      -0.721   2.700  26.031  0.00  0.00    +0.090 C 
ATOM      2  N   UNL     1      -0.559   2.755  25.224  0.00  0.00    -0.261 NA
BRANCH   2  24
ATOM     24  C   UNL     1      -1.068   3.172  24.728  0.00  0.00    +0.100 C 
BRANCH  24  25
ATOM     25  C   UNL     1      -1.274   3.951  24.907  0.00  0.00    -0.006 A 
ATOM     26  C   UNL     1      -0.748   4.565  24.738  0.00  0.00    -0.003 A 
ATOM     27  C   UNL     1      -0.953   5.343  24.917  0.00  0.00    -0.000 A 
ATOM     28  C   UNL     1      -1.684   5.509  25.264  0.00  0.00    -0.000 A 
ATOM     29  C   UNL     1      -2.209   4.895  25.432  0.00  0.00    -0.000 A 
ATOM     30  C   UNL     1      -2.004   4.116  25.253  0.00  0.00    -0.003 A 
ENDBRANCH  24  25
ENDBRANCH   2  24
ENDBRANCH   3   2
ENDBRANCH   4   3
BRANCH   6   7
ATOM      7  C   UNL     1      -0.829  -0.256  24.182  0.00  0.00    +0.070 C 
BRANCH   7   8
ATOM      8  C   UNL     1      -0.729  -0.842  24.753  0.00  0.00    +0.119 C 
ATOM      9  C   UNL     1      -0.628  -1.429  25.325  0.00  0.00    +0.161 C 
ATOM     10  O   UNL     1       0.129  -1.581  25.036  0.00  0.00    -0.351 OA
ATOM     11  C   UNL     1       0.029  -0.994  24.465  0.00  0.00    +0.161 C 
BRANCH   8  12
ATOM     12  N   UNL     1      -1.487  -0.691  25.042  0.00  0.00    -0.217 NA
BRANCH  12  13
ATOM     13  C   UNL     1      -2.121  -1.160  24.800  0.00  0.00    +0.076 C 
ATOM     14  C   UNL     1      -2.082  -1.980  24.880  0.00  0.00    +0.039 C 
ATOM     15  C   UNL     1      -2.716  -2.448  24.638  0.00  0.00    +0.095 C 
ATOM     16  N   UNL     1      -3.390  -2.097  24.315  0.00  0.00    -0.279 N 
ATOM     17  C   UNL     1      -3.428  -1.276  24.235  0.00  0.00    +0.095 C 
ATOM     18  C   UNL     1      -2.794  -0.807  24.478  0.00  0.00    +0.039 C 
ATOM     19  C   UNL     1      -4.024  -2.565  24.073  0.00  0.00    +0.226 C 
ATOM     20  C   UNL     1      -4.697  -2.213  23.750  0.00  0.00    +0.095 C 
ATOM     21  O   UNL     1      -3.985  -3.385  24.153  0.00  0.00    -0.275 OA
ENDBRANCH  12  13
ENDBRANCH   8  12
ENDBRANCH   7   8
ENDBRANCH   6   7
TORSDOF 8
ENDMDL
MODEL 7
REMARK VINA RESULT:      -9.3      2.253      4.773
REMARK  Name = 
REMARK  8 active torsions:
REMARK  status: ('A' for Active; 'I' for Inactive)
REMARK    1  A    between atoms: N_2  and  C_3
REMARK    2  A    between atoms: N_2  and  C_24
REMARK    3  A    between atoms: C_3  and  C_4
REMARK    4  A    between atoms: C_6  and  C_7
REMARK    5  A    between atoms: C_7  and  C_8
REMARK    6  A    between atoms: C_8  and  N_12
REMARK    7  A    between atoms: N_12  and  C_13
REMARK    8  A    between atoms: C_24  and  C_25
REMARK                            x       y       z     vdW  Elec       q    Type
REMARK                         _______ _______ _______ _____ _____    ______ ____
ROOT
ATOM      4  C   UNL     1      -2.524   4.096  24.991  0.00  0.00    +0.170 A 
ATOM      5  C   UNL     1      -2.125   3.420  24.736  0.00  0.00    +0.055 A 
ATOM      6  C   UNL     1      -1.354   3.454  25.030  0.00  0.00    +0.102 A 
ATOM     22  N   UNL     1      -1.277   4.149  25.466  0.00  0.00    -0.082 NA
ATOM     23  O   UNL     1      -2.000   4.546  25.442  0.00  0.00    -0.357 OA
ENDROOT
BRANCH   4   3
ATOM      3  C   UNL     1      -3.309   4.287  24.824  0.00  0.00    +0.141 C 
BRANCH   3   2
ATOM      1  C   UNL     1      -3.976   3.771  25.977  0.00  0.00    +0.090 C 
ATOM      2  N   UNL     1      -3.921   3.846  25.158  0.00  0.00    -0.261 NA
BRANCH   2  24
ATOM     24  C   UNL     1      -4.478   3.480  24.672  0.00  0.00    +0.100 C 
BRANCH  24  25
ATOM     25  C   UNL     1      -4.950   2.872  24.969  0.00  0.00    -0.006 A 
ATOM     26  C   UNL     1      -4.818   2.093  24.729  0.00  0.00    -0.003 A 
ATOM     27  C   UNL     1      -5.290   1.486  25.025  0.00  0.00    -0.000 A 
ATOM     28  C   UNL     1      -5.894   1.656  25.562  0.00  0.00    -0.000 A 
ATOM     29  C   UNL     1      -6.025   2.435  25.802  0.00  0.00    -0.000 A 
ATOM     30  C   UNL     1      -5.553   3.043  25.505  0.00  0.00    -0.003 A 
ENDBRANCH  24  25
ENDBRANCH   2  24
ENDBRANCH   3   2
ENDBRANCH   4   3
BRANCH   6   7
ATOM      7  C   UNL     1      -0.764   2.890  24.908  0.00  0.00    +0.070 C 
BRANCH   7   8
ATOM      8  C   UNL     1      -0.480   2.447  25.543  0.00  0.00    +0.119 C 
ATOM      9  C   UNL     1      -0.195   2.004  26.179  0.00  0.00    +0.161 C 
ATOM     10  O   UNL     1       0.419   2.546  26.280  0.00  0.00    -0.351 OA
ATOM     11  C   UNL     1       0.135   2.988  25.645  0.00  0.00    +0.161 C 
BRANCH   8  12
ATOM     12  N   UNL     1      -1.094   1.906  25.442  0.00  0.00    -0.217 NA
BRANCH  12  13
ATOM     13  C   UNL     1      -0.926   1.129  25.218  0.00  0.00    +0.076 C 
ATOM     14  C   UNL     1      -0.502   0.982  24.526  0.00  0.00    +0.039 C 
ATOM     15  C   UNL     1      -0.334   0.206  24.303  0.00  0.00    +0.095 C 
ATOM     16  N   UNL     1      -0.590  -0.424  24.772  0.00  0.00    -0.279 N 
ATOM     17  C   UNL     1      -1.013  -0.275  25.465  0.00  0.00    +0.095 C 
ATOM     18  C   UNL     1      -1.182   0.501  25.688  0.00  0.00    +0.039 C 
ATOM     19  C   UNL     1      -0.422  -1.200  24.550  0.00  0.00    +0.226 C 
ATOM     20  C   UNL     1      -0.677  -1.828  25.019  0.00  0.00    +0.095 C 
ATOM     21  O   UNL     1       0.002  -1.347  23.857  0.00  0.00    -0.275 OA
ENDBRANCH  12  13
ENDBRANCH   8  12
ENDBRANCH   7   8
ENDBRANCH   6   7
TORSDOF 8
ENDMDL
MODEL 8
REMARK VINA RESULT:      -9.3      1.741      5.084
REMARK  Name = 
REMARK  8 active torsions:
REMARK  status: ('A' for Active; 'I' for Inactive)
REMARK    1  A    between atoms: N_2  and  C_3
REMARK    2  A    between atoms: N_2  and  C_24
REMARK    3  A    between atoms: C_3  and  C_4
REMARK    4  A    between atoms: C_6  and  C_7
REMARK    5  A    between atoms: C_7  and  C_8
REMARK    6  A    between atoms: C_8  and  N_12
REMARK    7  A    between atoms: N_12  and  C_13
REMARK    8  A    between atoms: C_24  and  C_25
REMARK                            x       y       z     vdW  Elec       q    Type
REMARK                         _______ _______ _______ _____ _____    ______ ____
ROOT
ATOM      4  C   UNL     1      -4.555   2.638  25.205  0.00  0.00    +0.170 A 
ATOM      5  C   UNL     1      -4.118   1.977  25.435  0.00  0.00    +0.055 A 
ATOM      6  C   UNL     1      -4.489   1.308  25.125  0.00  0.00    +0.102 A 
ATOM     22  N   UNL     1      -5.153   1.554  24.704  0.00  0.00    -0.082 NA
ATOM     23  O   UNL     1      -5.194   2.377  24.753  0.00  0.00    -0.357 OA
ENDROOT
BRANCH   4   3
ATOM      3  C   UNL     1      -4.382   3.423  25.393  0.00  0.00    +0.141 C 
BRANCH   3   2
ATOM      1  C   UNL     1      -3.545   3.939  24.356  0.00  0.00    +0.090 C 
ATOM      2  N   UNL     1      -3.667   3.757  25.151  0.00  0.00    -0.261 NA
BRANCH   2  24
ATOM     24  C   UNL     1      -3.076   3.909  25.705  0.00  0.00    +0.100 C 
BRANCH  24  25
ATOM     25  C   UNL     1      -2.356   4.232  25.464  0.00  0.00    -0.006 A 
ATOM     26  C   UNL     1      -1.709   3.739  25.327  0.00  0.00    -0.003 A 
ATOM     27  C   UNL     1      -0.989   4.061  25.086  0.00  0.00    -0.000 A 
ATOM     28  C   UNL     1      -0.916   4.877  24.980  0.00  0.00    -0.000 A 
ATOM     29  C   UNL     1      -1.564   5.370  25.117  0.00  0.00    -0.000 A 
ATOM     30  C   UNL     1      -2.283   5.047  25.358  0.00  0.00    -0.003 A 
ENDBRANCH  24  25
ENDBRANCH   2  24
ENDBRANCH   3   2
ENDBRANCH   4   3
BRANCH   6   7
ATOM      7  C   UNL     1      -4.238   0.527  25.221  0.00  0.00    +0.070 C 
BRANCH   7   8
ATOM      8  C   UNL     1      -3.963   0.100  24.571  0.00  0.00    +0.119 C 
ATOM      9  C   UNL     1      -3.689  -0.327  23.920  0.00  0.00    +0.161 C 
ATOM     10  O   UNL     1      -4.430  -0.681  23.841  0.00  0.00    -0.351 OA
ATOM     11  C   UNL     1      -4.704  -0.254  24.491  0.00  0.00    +0.161 C 
BRANCH   8  12
ATOM     12  N   UNL     1      -3.222   0.454  24.650  0.00  0.00    -0.217 NA
BRANCH  12  13
ATOM     13  C   UNL     1      -2.551  -0.014  24.756  0.00  0.00    +0.076 C 
ATOM     14  C   UNL     1      -2.513  -0.544  25.388  0.00  0.00    +0.039 C 
ATOM     15  C   UNL     1      -1.842  -1.012  25.492  0.00  0.00    +0.095 C 
ATOM     16  N   UNL     1      -1.209  -0.951  24.967  0.00  0.00    -0.279 N 
ATOM     17  C   UNL     1      -1.248  -0.421  24.335  0.00  0.00    +0.095 C 
ATOM     18  C   UNL     1      -1.919   0.047  24.229  0.00  0.00    +0.039 C 
ATOM     19  C   UNL     1      -0.538  -1.419  25.071  0.00  0.00    +0.226 C 
ATOM     20  C   UNL     1       0.094  -1.358  24.546  0.00  0.00    +0.095 C 
ATOM     21  O   UNL     1      -0.500  -1.949  25.703  0.00  0.00    -0.275 OA
ENDBRANCH  12  13
ENDBRANCH   8  12
ENDBRANCH   7   8
ENDBRANCH   6   7
TORSDOF 8
ENDMDL
