MODEL 1
REMARK VINA RESULT:      -8.7      0.000      0.000
REMARK  Name = 
REMARK  7 active torsions:
REMARK  status: ('A' for Active; 'I' for Inactive)
REMARK    1  A    between atoms: O_2  and  C_3
REMARK    2  A    between atoms: C_3  and  C_4
REMARK    3  A    between atoms: C_4  and  N_5
REMARK    4  A    between atoms: C_6  and  C_8
REMARK    5  A    between atoms: C_8  and  C_9
REMARK    6  A    between atoms: C_11  and  C_12
REMARK    7  A    between atoms: C_15  and  C_16
REMARK                            x       y       z     vdW  Elec       q    Type
REMARK                         _______ _______ _______ _____ _____    ______ ____
ROOT
ATOM      9  C   UNL     1      -3.649  -0.804  24.694  0.00  0.00    +0.027 C 
ATOM     10  C   UNL     1      -2.960  -0.525  25.052  0.00  0.00    +0.005 C 
ATOM     11  C   UNL     1      -2.274  -0.985  25.039  0.00  0.00    +0.007 C 
ATOM     15  C   UNL     1      -2.277  -1.721  24.667  0.00  0.00    +0.054 C 
ATOM     18  C   UNL     1      -2.967  -1.999  24.309  0.00  0.00    -0.032 C 
ATOM     19  C   UNL     1      -3.652  -1.541  24.322  0.00  0.00    -0.048 C 
ATOM     20  C   UNL     1      -4.342  -1.818  23.964  0.00  0.00    +0.026 C 
ENDROOT
BRANCH  11  12
ATOM     12  C   UNL     1      -1.585  -0.706  25.397  0.00  0.00    +0.000 C 
ATOM     13  C   UNL     1      -1.471  -0.811  26.208  0.00  0.00    +0.000 C 
ATOM     14  C   UNL     1      -1.011  -0.324  24.946  0.00  0.00    +0.000 C 
ENDBRANCH  11  12
BRANCH  15  16
ATOM     16  C   UNL     1      -1.592  -2.180  24.654  0.00  0.00    +0.186 C 
ATOM     17  O   UNL     1      -1.584  -2.899  24.250  0.00  0.00    -0.220 OA
ENDBRANCH  15  16
BRANCH   9   8
ATOM      8  C   UNL     1      -4.335  -0.345  24.707  0.00  0.00    +0.091 C 
BRANCH   8   6
ATOM      5  N   UNL     1      -4.620   1.007  25.074  0.00  0.00    -0.203 NA
ATOM      6  C   UNL     1      -4.293   0.463  24.545  0.00  0.00    +0.242 C 
ATOM      7  O   UNL     1      -3.924   0.728  23.856  0.00  0.00    -0.273 OA
BRANCH   5   4
ATOM      4  C   UNL     1      -4.578   1.814  24.912  0.00  0.00    +0.147 C 
BRANCH   4   3
ATOM      3  C   UNL     1      -5.057   2.343  25.328  0.00  0.00    +0.166 C 
BRANCH   3   2
ATOM      1  C   UNL     1      -5.370   3.713  25.583  0.00  0.00    +0.174 C 
ATOM      2  O   UNL     1      -4.812   3.124  25.434  0.00  0.00    -0.349 OA
ENDBRANCH   3   2
ENDBRANCH   4   3
ENDBRANCH   5   4
ENDBRANCH   8   6
ENDBRANCH   9   8
TORSDOF 7
ENDMDL
MODEL 2
REMARK VINA RESULT:      -8.3      2.431      4.510
REMARK  Name = 
REMARK  7 active torsions:
REMARK  status: ('A' for Active; 'I' for Inactive)
REMARK    1  A    between atoms: O_2  and  C_3
REMARK    2  A    between atoms: C_3  and  C_4
REMARK    3  A    between atoms: C_4  and  N_5
REMARK    4  A    between atoms: C_6  and  C_8
REMARK    5  A    between atoms: C_8  and  C_9
REMARK    6  A    between atoms: C_11  and  C_12
REMARK    7  A    between atoms: C_15  and  C_16
REMARK                            x       y       z     vdW  Elec       q    Type
REMARK                         _______ _______ _______ _____ _____    ______ ____
ROOT
ATOM      9  C   UNL     1      -3.105   2.826  25.046  0.00  0.00    +0.027 C 
ATOM     10  C   UNL     1      -2.328   2.564  25.140  0.00  0.00    +0.005 C 
ATOM     11  C   UNL     1      -1.714   3.111  25.211  0.00  0.00    +0.007 C 
ATOM     15  C   UNL     1      -1.877   3.920  25.187  0.00  0.00    +0.054 C 
ATOM     18  C   UNL     1      -2.655   4.181  25.093  0.00  0.00    -0.032 C 
ATOM     19  C   UNL     1      -3.268   3.634  25.022  0.00  0.00    -0.048 C 
ATOM     20  C   UNL     1      -4.045   3.895  24.928  0.00  0.00    +0.026 C 
ENDROOT
BRANCH  11  12
ATOM     12  C   UNL     1      -0.938   2.849  25.305  0.00  0.00    +0.000 C 
ATOM     13  C   UNL     1      -0.446   2.773  24.646  0.00  0.00    +0.000 C 
ATOM     14  C   UNL     1      -0.653   2.664  26.056  0.00  0.00    +0.000 C 
ENDBRANCH  11  12
BRANCH  15  16
ATOM     16  C   UNL     1      -1.264   4.466  25.257  0.00  0.00    +0.186 C 
ATOM     17  O   UNL     1      -1.423   5.274  25.210  0.00  0.00    -0.220 OA
ENDBRANCH  15  16
BRANCH   9   8
ATOM      8  C   UNL     1      -3.719   2.278  24.975  0.00  0.00    +0.091 C 
BRANCH   8   6
ATOM      5  N   UNL     1      -3.784   0.882  24.681  0.00  0.00    -0.203 NA
ATOM      6  C   UNL     1      -3.658   1.659  24.434  0.00  0.00    +0.242 C 
ATOM      7  O   UNL     1      -3.472   1.817  23.646  0.00  0.00    -0.273 OA
BRANCH   5   4
ATOM      4  C   UNL     1      -3.723   0.262  24.139  0.00  0.00    +0.147 C 
BRANCH   4   3
ATOM      3  C   UNL     1      -3.950  -0.501  24.358  0.00  0.00    +0.166 C 
BRANCH   3   2
ATOM      1  C   UNL     1      -4.102  -1.876  24.005  0.00  0.00    +0.174 C 
ATOM      2  O   UNL     1      -4.043  -1.084  23.783  0.00  0.00    -0.349 OA
ENDBRANCH   3   2
ENDBRANCH   4   3
ENDBRANCH   5   4
ENDBRANCH   8   6
ENDBRANCH   9   8
TORSDOF 7
ENDMDL
MODEL 3
REMARK VINA RESULT:      -8.3      1.622      4.309
REMARK  Name = 
REMARK  7 active torsions:
REMARK  status: ('A' for Active; 'I' for Inactive)
REMARK    1  A    between atoms: O_2  and  C_3
REMARK    2  A    between atoms: C_3  and  C_4
REMARK    3  A    between atoms: C_4  and  N_5
REMARK    4  A    between atoms: C_6  and  C_8
REMARK    5  A    between atoms: C_8  and  C_9
REMARK    6  A    between atoms: C_11  and  C_12
REMARK    7  A    between atoms: C_15  and  C_16
REMARK                            x       y       z     vdW  Elec       q    Type
REMARK                         _______ _______ _______ _____ _____    ______ ____
ROOT
ATOM      9  C   UNL     1      -4.502   1.323  24.547  0.00  0.00    +0.027 C 
ATOM     10  C   UNL     1      -3.803   1.378  24.112  0.00  0.00    +0.005 C 
ATOM     11  C   UNL     1      -3.478   2.118  23.946  0.00  0.00    +0.007 C 
ATOM     15  C   UNL     1      -3.852   2.803  24.215  0.00  0.00    +0.054 C 
ATOM     18  C   UNL     1      -4.551   2.746  24.650  0.00  0.00    -0.032 C 
ATOM     19  C   UNL     1      -4.876   2.007  24.816  0.00  0.00    -0.048 C 
ATOM     20  C   UNL     1      -5.575   1.951  25.251  0.00  0.00    +0.026 C 
ENDROOT
BRANCH  11  12
ATOM     12  C   UNL     1      -2.779   2.173  23.512  0.00  0.00    +0.000 C 
ATOM     13  C   UNL     1      -2.058   2.269  23.901  0.00  0.00    +0.000 C 
ATOM     14  C   UNL     1      -2.801   2.132  22.689  0.00  0.00    +0.000 C 
ENDBRANCH  11  12
BRANCH  15  16
ATOM     16  C   UNL     1      -3.527   3.542  24.049  0.00  0.00    +0.186 C 
ATOM     17  O   UNL     1      -3.893   4.226  24.330  0.00  0.00    -0.220 OA
ENDBRANCH  15  16
BRANCH   9   8
ATOM      8  C   UNL     1      -4.827   0.582  24.713  0.00  0.00    +0.091 C 
BRANCH   8   6
ATOM      5  N   UNL     1      -4.308  -0.717  24.422  0.00  0.00    -0.203 NA
ATOM      6  C   UNL     1      -4.333  -0.050  24.907  0.00  0.00    +0.242 C 
ATOM      7  O   UNL     1      -3.866  -0.015  25.586  0.00  0.00    -0.273 OA
BRANCH   5   4
ATOM      4  C   UNL     1      -3.815  -1.349  24.616  0.00  0.00    +0.147 C 
BRANCH   4   3
ATOM      3  C   UNL     1      -3.896  -2.071  24.223  0.00  0.00    +0.166 C 
BRANCH   3   2
ATOM      1  C   UNL     1      -3.301  -3.330  24.538  0.00  0.00    +0.174 C 
ATOM      2  O   UNL     1      -3.256  -2.589  24.178  0.00  0.00    -0.349 OA
ENDBRANCH   3   2
ENDBRANCH   4   3
ENDBRANCH   5   4
ENDBRANCH   8   6
ENDBRANCH   9   8
TORSDOF 7
ENDMDL
MODEL 4
REMARK VINA RESULT:      -8.2      1.788      4.311
REMARK  Name = 
REMARK  7 active torsions:
REMARK  status: ('A' for Active; 'I' for Inactive)
REMARK    1  A    between atoms: O_2  and  C_3
REMARK    2  A    between atoms: C_3  and  C_4
REMARK    3  A    between atoms: C_4  and  N_5
REMARK    4  A    between atoms: C_6  and  C_8
REMARK    5  A    between atoms: C_8  and  C_9
REMARK    6  A    between atoms: C_11  and  C_12
REMARK    7  A    between atoms: C_15  and  C_16
REMARK                            x       y       z     vdW  Elec       q    Type
REMARK                         _______ _______ _______ _____ _____    ______ ____
ROOT
ATOM      9  C   UNL     1      -3.492   0.571  24.554  0.00  0.00    +0.027 C 
ATOM     10  C   UNL     1      -3.353   1.365  24.377  0.00  0.00    +0.005 C 
ATOM     11  C   UNL     1      -3.942   1.927  24.514  0.00  0.00    +0.007 C 
ATOM     15  C   UNL     1      -4.670   1.694  24.826  0.00  0.00    +0.054 C 
ATOM     18  C   UNL     1      -4.808   0.900  25.002  0.00  0.00    -0.032 C 
ATOM     19  C   UNL     1      -4.219   0.339  24.867  0.00  0.00    -0.048 C 
ATOM     20  C   UNL     1      -4.357  -0.455  25.043  0.00  0.00    +0.026 C 
ENDROOT
BRANCH  11  12
ATOM     12  C   UNL     1      -3.803   2.720  24.337  0.00  0.00    +0.000 C 
ATOM     13  C   UNL     1      -3.871   2.987  23.558  0.00  0.00    +0.000 C 
ATOM     14  C   UNL     1      -3.597   3.247  24.936  0.00  0.00    +0.000 C 
ENDBRANCH  11  12
BRANCH  15  16
ATOM     16  C   UNL     1      -5.258   2.256  24.962  0.00  0.00    +0.186 C 
ATOM     17  O   UNL     1      -6.006   2.017  25.215  0.00  0.00    -0.220 OA
ENDBRANCH  15  16
BRANCH   9   8
ATOM      8  C   UNL     1      -2.902   0.009  24.418  0.00  0.00    +0.091 C 
BRANCH   8   6
ATOM      5  N   UNL     1      -1.528   0.121  24.042  0.00  0.00    -0.203 NA
ATOM      6  C   UNL     1      -2.120   0.178  24.616  0.00  0.00    +0.242 C 
ATOM      7  O   UNL     1      -1.927   0.402  25.386  0.00  0.00    -0.273 OA
BRANCH   5   4
ATOM      4  C   UNL     1      -0.745   0.290  24.240  0.00  0.00    +0.147 C 
BRANCH   4   3
ATOM      3  C   UNL     1      -0.129  -0.057  23.814  0.00  0.00    +0.166 C 
BRANCH   3   2
ATOM      1  C   UNL     1       1.083   0.068  23.070  0.00  0.00    +0.174 C 
ATOM      2  O   UNL     1       0.460   0.416  23.483  0.00  0.00    -0.349 OA
ENDBRANCH   3   2
ENDBRANCH   4   3
ENDBRANCH   5   4
ENDBRANCH   8   6
ENDBRANCH   9   8
TORSDOF 7
ENDMDL
MODEL 5
REMARK VINA RESULT:      -8.2      1.506      4.732
REMARK  Name = 
REMARK  7 active torsions:
REMARK  status: ('A' for Active; 'I' for Inactive)
REMARK    1  A    between atoms: O_2  and  C_3
REMARK    2  A    between atoms: C_3  and  C_4
REMARK    3  A    between atoms: C_4  and  N_5
REMARK    4  A    between atoms: C_6  and  C_8
REMARK    5  A    between atoms: C_8  and  C_9
REMARK    6  A    between atoms: C_11  and  C_12
REMARK    7  A    between atoms: C_15  and  C_16
REMARK                            x       y       z     vdW  Elec       q    Type
REMARK                         _______ _______ _______ _____ _____    ______ ____
ROOT
ATOM      9  C   UNL     1      -3.964   1.700  24.265  0.00  0.00    +0.027 C 
ATOM     10  C   UNL     1      -4.683   1.537  24.637  0.00  0.00    +0.005 C 
ATOM     11  C   UNL     1      -5.106   2.145  25.001  0.00  0.00    +0.007 C 
ATOM     15  C   UNL     1      -4.810   2.916  24.993  0.00  0.00    +0.054 C 
ATOM     18  C   UNL     1      -4.092   3.078  24.621  0.00  0.00    -0.032 C 
ATOM     19  C   UNL     1      -3.669   2.471  24.257  0.00  0.00    -0.048 C 
ATOM     20  C   UNL     1      -2.951   2.633  23.885  0.00  0.00    +0.026 C 
ENDROOT
BRANCH  11  12
ATOM     12  C   UNL     1      -5.824   1.982  25.373  0.00  0.00    +0.000 C 
ATOM     13  C   UNL     1      -6.511   1.897  24.923  0.00  0.00    +0.000 C 
ATOM     14  C   UNL     1      -5.856   1.904  26.192  0.00  0.00    +0.000 C 
ENDBRANCH  11  12
BRANCH  15  16
ATOM     16  C   UNL     1      -5.233   3.523  25.357  0.00  0.00    +0.186 C 
ATOM     17  O   UNL     1      -4.936   4.293  25.354  0.00  0.00    -0.220 OA
ENDBRANCH  15  16
BRANCH   9   8
ATOM      8  C   UNL     1      -3.541   1.092  23.901  0.00  0.00    +0.091 C 
BRANCH   8   6
ATOM      5  N   UNL     1      -3.697  -0.323  24.029  0.00  0.00    -0.203 NA
ATOM      6  C   UNL     1      -3.393   0.392  24.310  0.00  0.00    +0.242 C 
ATOM      7  O   UNL     1      -2.940   0.404  25.000  0.00  0.00    -0.273 OA
BRANCH   5   4
ATOM      4  C   UNL     1      -3.548  -1.023  24.439  0.00  0.00    +0.147 C 
BRANCH   4   3
ATOM      3  C   UNL     1      -3.777  -1.747  24.113  0.00  0.00    +0.166 C 
BRANCH   3   2
ATOM      1  C   UNL     1      -3.473  -3.108  24.422  0.00  0.00    +0.174 C 
ATOM      2  O   UNL     1      -3.869  -2.406  24.600  0.00  0.00    -0.349 OA
ENDBRANCH   3   2
ENDBRANCH   4   3
ENDBRANCH   5   4
ENDBRANCH   8   6
ENDBRANCH   9   8
TORSDOF 7
ENDMDL
MODEL 6
REMARK VINA RESULT:      -8.2      2.034      2.967
REMARK  Name = 
REMARK  7 active torsions:
REMARK  status: ('A' for Active; 'I' for Inactive)
REMARK    1  A    between atoms: O_2  and  C_3
REMARK    2  A    between atoms: C_3  and  C_4
REMARK    3  A    between atoms: C_4  and  N_5
REMARK    4  A    between atoms: C_6  and  C_8
REMARK    5  A    between atoms: C_8  and  C_9
REMARK    6  A    between atoms: C_11  and  C_12
REMARK    7  A    between atoms: C_15  and  C_16
REMARK                            x       y       z     vdW  Elec       q    Type
REMARK                         _______ _______ _______ _____ _____    ______ ____
ROOT
ATOM      9  C   UNL     1      -1.707  -0.722  25.140  0.00  0.00    +0.027 C 
ATOM     10  C   UNL     1      -2.447  -0.377  25.027  0.00  0.00    +0.005 C 
ATOM     11  C   UNL     1      -3.094  -0.846  24.819  0.00  0.00    +0.007 C 
ATOM     15  C   UNL     1      -2.999  -1.661  24.726  0.00  0.00    +0.054 C 
ATOM     18  C   UNL     1      -2.258  -2.005  24.839  0.00  0.00    -0.032 C 
ATOM     19  C   UNL     1      -1.612  -1.537  25.046  0.00  0.00    -0.048 C 
ATOM     20  C   UNL     1      -0.871  -1.881  25.160  0.00  0.00    +0.026 C 
ENDROOT
BRANCH  11  12
ATOM     12  C   UNL     1      -3.834  -0.501  24.706  0.00  0.00    +0.000 C 
ATOM     13  C   UNL     1      -4.291  -0.282  25.359  0.00  0.00    +0.000 C 
ATOM     14  C   UNL     1      -4.118  -0.374  23.943  0.00  0.00    +0.000 C 
ENDBRANCH  11  12
BRANCH  15  16
ATOM     16  C   UNL     1      -3.645  -2.129  24.519  0.00  0.00    +0.186 C 
ATOM     17  O   UNL     1      -3.565  -2.950  24.480  0.00  0.00    -0.220 OA
ENDBRANCH  15  16
BRANCH   9   8
ATOM      8  C   UNL     1      -1.060  -0.253  25.347  0.00  0.00    +0.091 C 
BRANCH   8   6
ATOM      5  N   UNL     1      -0.910   1.168  25.328  0.00  0.00    -0.203 NA
ATOM      6  C   UNL     1      -0.907   0.443  24.932  0.00  0.00    +0.242 C 
ATOM      7  O   UNL     1      -0.751   0.416  24.123  0.00  0.00    -0.273 OA
BRANCH   5   4
ATOM      4  C   UNL     1      -0.757   1.864  24.913  0.00  0.00    +0.147 C 
BRANCH   4   3
ATOM      3  C   UNL     1      -0.769   2.590  25.307  0.00  0.00    +0.166 C 
BRANCH   3   2
ATOM      1  C   UNL     1      -0.885   4.008  25.188  0.00  0.00    +0.174 C 
ATOM      2  O   UNL     1      -0.618   3.287  24.891  0.00  0.00    -0.349 OA
ENDBRANCH   3   2
ENDBRANCH   4   3
ENDBRANCH   5   4
ENDBRANCH   8   6
ENDBRANCH   9   8
TORSDOF 7
ENDMDL
