REMARK  Name = 
REMARK  6 active torsions:
REMARK  status: ('A' for Active; 'I' for Inactive)
REMARK    1  A    between atoms: C_2  and  C_4
REMARK    2  A    between atoms: C_4  and  C_5
REMARK    3  A    between atoms: C_5  and  C_6
REMARK    4  A    between atoms: N_15  and  C_16
REMARK    5  A    between atoms: N_26  and  C_27
REMARK    6  A    between atoms: C_27  and  C_28
REMARK                            x       y       z     vdW  Elec       q    Type
REMARK                         _______ _______ _______ _____ _____    ______ ____
ROOT
ATOM      6  C   UNL     1      -0.398   0.754   0.000  0.00  0.00    +0.227 C 
ATOM      7  O   UNL     1       0.154   1.367   0.000  0.00  0.00    -0.275 OA
ATOM      8  N   UNL     1      -0.143  -0.030   0.000  0.00  0.00    -0.272 N 
ATOM      9  C   UNL     1      -0.628  -0.698   0.000  0.00  0.00    +0.096 C 
ATOM     10  C   UNL     1      -0.143  -1.365   0.000  0.00  0.00    +0.044 C 
ATOM     11  C   UNL     1       0.641  -1.110   0.000  0.00  0.00    +0.106 C 
ATOM     12  C   UNL     1       0.641  -0.285   0.000  0.00  0.00    +0.171 C 
ATOM     13  C   UNL     1       1.356   0.127   0.000  0.00  0.00    +0.256 C 
ATOM     14  O   UNL     1       1.356   0.952   0.000  0.00  0.00    -0.272 OA
ATOM     15  N   UNL     1       2.070  -0.285   0.000  0.00  0.00    -0.191 N 
ATOM     24  C   UNL     1       2.070  -1.110   0.000  0.00  0.00    +0.317 C 
ATOM     25  O   UNL     1       2.784  -1.523   0.000  0.00  0.00    -0.252 OA
ATOM     26  N   UNL     1       1.356  -1.523   0.000  0.00  0.00    -0.259 N 
ENDROOT
BRANCH  15  16
ATOM     16  C   UNL     1       2.784   0.127   0.000  0.00  0.00    +0.063 A 
ATOM     17  C   UNL     1       2.784   0.952   0.000  0.00  0.00    +0.029 A 
ATOM     18  C   UNL     1       3.499   1.365   0.000  0.00  0.00    +0.086 A 
ATOM     19 CL   UNL     1       3.499   2.190   0.000  0.00  0.00    -0.080 Cl
ATOM     20  C   UNL     1       4.213   0.952   0.000  0.00  0.00    +0.151 A 
ATOM     21  F   UNL     1       4.928   1.365   0.000  0.00  0.00    -0.203 F 
ATOM     22  C   UNL     1       4.213   0.127   0.000  0.00  0.00    +0.032 A 
ATOM     23  C   UNL     1       3.499  -0.285   0.000  0.00  0.00    +0.018 A 
ENDBRANCH  15  16
BRANCH   6   5
ATOM      5  C   UNL     1      -1.205   0.926   0.000  0.00  0.00    +0.097 C 
BRANCH   5   4
ATOM      4  C   UNL     1      -1.460   1.710   0.000  0.00  0.00    +0.124 C 
BRANCH   4   2
ATOM      1  O   UNL     1      -2.522   2.666   0.000  0.00  0.00    -0.246 OA
ATOM      2  C   UNL     1      -2.267   1.882   0.000  0.00  0.00    +0.365 C 
ATOM      3  O   UNL     1      -2.819   1.269   0.000  0.00  0.00    -0.246 OA
ENDBRANCH   4   2
ENDBRANCH   5   4
ENDBRANCH   6   5
BRANCH  26  27
ATOM     27  C   UNL     1       1.356  -2.348   0.000  0.00  0.00    +0.122 C 
BRANCH  27  28
ATOM     28  C   UNL     1       0.641  -2.760   0.000  0.00  0.00    -0.002 A 
ATOM     29  C   UNL     1       0.641  -3.585   0.000  0.00  0.00    -0.003 A 
ATOM     30  C   UNL     1      -0.073  -3.998   0.000  0.00  0.00    -0.000 A 
ATOM     31  C   UNL     1      -0.788  -3.585   0.000  0.00  0.00    -0.000 A 
ATOM     32  C   UNL     1      -0.788  -2.760   0.000  0.00  0.00    -0.000 A 
ATOM     33  C   UNL     1      -0.073  -2.348   0.000  0.00  0.00    -0.003 A 
ENDBRANCH  27  28
ENDBRANCH  26  27
TORSDOF 6
