MODEL 1
REMARK VINA RESULT:     -12.0      0.000      0.000
REMARK  Name = 
REMARK  8 active torsions:
REMARK  status: ('A' for Active; 'I' for Inactive)
REMARK    1  A    between atoms: C_2  and  C_4
REMARK    2  A    between atoms: C_6  and  C_7
REMARK    3  A    between atoms: C_7  and  C_8
REMARK    4  A    between atoms: N_10  and  C_11
REMARK    5  A    between atoms: C_19  and  C_20
REMARK    6  A    between atoms: C_20  and  N_21
REMARK    7  A    between atoms: C_22  and  C_24
REMARK    8  A    between atoms: C_24  and  C_25
REMARK                            x       y       z     vdW  Elec       q    Type
REMARK                         _______ _______ _______ _____ _____    ______ ____
ROOT
ATOM      4  C   UNL     1      -3.240   1.576  23.946  0.00  0.00    +0.006 C 
ATOM      5  C   UNL     1      -3.267   2.350  24.230  0.00  0.00    +0.005 C 
ATOM      6  C   UNL     1      -3.850   2.570  24.771  0.00  0.00    +0.027 C 
ATOM     16  C   UNL     1      -4.406   2.018  25.026  0.00  0.00    -0.048 C 
ATOM     17  C   UNL     1      -4.989   2.239  25.567  0.00  0.00    +0.026 C 
ATOM     18  C   UNL     1      -4.379   1.244  24.741  0.00  0.00    -0.033 C 
ATOM     19  C   UNL     1      -3.796   1.023  24.201  0.00  0.00    +0.043 C 
ENDROOT
BRANCH   4   2
ATOM      1  C   UNL     1      -1.940   1.048  23.675  0.00  0.00    +0.000 C 
ATOM      2  C   UNL     1      -2.657   1.355  23.406  0.00  0.00    +0.000 C 
ATOM      3  C   UNL     1      -2.790   1.441  22.596  0.00  0.00    +0.000 C 
ENDBRANCH   4   2
BRANCH   6   7
ATOM      7  C   UNL     1      -3.876   3.345  25.056  0.00  0.00    +0.091 C 
BRANCH   7   8
ATOM      8  C   UNL     1      -3.257   3.866  24.894  0.00  0.00    +0.242 C 
ATOM      9  O   UNL     1      -3.232   4.263  24.171  0.00  0.00    -0.273 OA
ATOM     10  N   UNL     1      -2.665   3.989  25.454  0.00  0.00    -0.207 NA
BRANCH  10  11
ATOM     11  C   UNL     1      -2.046   4.509  25.293  0.00  0.00    +0.095 C 
ATOM     12  C   UNL     1      -1.258   4.301  25.162  0.00  0.00    +0.022 C 
ATOM     13  C   UNL     1      -0.831   4.993  25.022  0.00  0.00    +0.002 C 
ATOM     14  C   UNL     1      -1.355   5.629  25.066  0.00  0.00    +0.002 C 
ATOM     15  C   UNL     1      -2.106   5.330  25.234  0.00  0.00    +0.022 C 
ENDBRANCH  10  11
ENDBRANCH   7   8
ENDBRANCH   6   7
BRANCH  19  20
ATOM     20  C   UNL     1      -3.770   0.249  23.917  0.00  0.00    +0.119 C 
BRANCH  20  21
ATOM     21  N   UNL     1      -3.909  -0.383  24.428  0.00  0.00    -0.205 NA
ATOM     22  C   UNL     1      -4.047  -1.138  24.123  0.00  0.00    +0.241 C 
ATOM     23  O   UNL     1      -4.045  -1.259  23.307  0.00  0.00    -0.273 OA
BRANCH  22  24
ATOM     24  C   UNL     1      -4.186  -1.770  24.634  0.00  0.00    +0.087 C 
BRANCH  24  25
ATOM     25  C   UNL     1      -3.738  -2.459  24.569  0.00  0.00    +0.009 C 
ATOM     26  C   UNL     1      -3.289  -3.149  24.503  0.00  0.00    +0.000 C 
ATOM     27  C   UNL     1      -3.306  -2.242  25.236  0.00  0.00    +0.000 C 
ATOM     28  C   UNL     1      -4.170  -2.678  23.901  0.00  0.00    +0.000 C 
ENDBRANCH  24  25
ENDBRANCH  22  24
ENDBRANCH  20  21
ENDBRANCH  19  20
TORSDOF 8
ENDMDL
MODEL 2
REMARK VINA RESULT:     -11.5      0.607      5.299
REMARK  Name = 
REMARK  8 active torsions:
REMARK  status: ('A' for Active; 'I' for Inactive)
REMARK    1  A    between atoms: C_2  and  C_4
REMARK    2  A    between atoms: C_6  and  C_7
REMARK    3  A    between atoms: C_7  and  C_8
REMARK    4  A    between atoms: N_10  and  C_11
REMARK    5  A    between atoms: C_19  and  C_20
REMARK    6  A    between atoms: C_20  and  N_21
REMARK    7  A    between atoms: C_22  and  C_24
REMARK    8  A    between atoms: C_24  and  C_25
REMARK                            x       y       z     vdW  Elec       q    Type
REMARK                         _______ _______ _______ _____ _____    ______ ____
ROOT
ATOM      4  C   UNL     1      -3.282   1.485  23.722  0.00  0.00    +0.006 C 
ATOM      5  C   UNL     1      -3.648   0.753  23.820  0.00  0.00    +0.005 C 
ATOM      6  C   UNL     1      -4.210   0.649  24.414  0.00  0.00    +0.027 C 
ATOM     16  C   UNL     1      -4.406   1.277  24.912  0.00  0.00    -0.048 C 
ATOM     17  C   UNL     1      -4.968   1.173  25.506  0.00  0.00    +0.026 C 
ATOM     18  C   UNL     1      -4.039   2.010  24.814  0.00  0.00    -0.033 C 
ATOM     19  C   UNL     1      -3.477   2.114  24.219  0.00  0.00    +0.043 C 
ENDROOT
BRANCH   4   2
ATOM      1  C   UNL     1      -2.941   1.917  22.403  0.00  0.00    +0.000 C 
ATOM      2  C   UNL     1      -2.720   1.588  23.127  0.00  0.00    +0.000 C 
ATOM      3  C   UNL     1      -1.936   1.365  23.256  0.00  0.00    +0.000 C 
ENDBRANCH   4   2
BRANCH   6   7
ATOM      7  C   UNL     1      -4.577  -0.084  24.512  0.00  0.00    +0.091 C 
BRANCH   7   8
ATOM      8  C   UNL     1      -4.164  -0.778  24.347  0.00  0.00    +0.242 C 
ATOM      9  O   UNL     1      -4.095  -1.041  23.567  0.00  0.00    -0.273 OA
ATOM     10  N   UNL     1      -3.819  -1.209  24.960  0.00  0.00    -0.207 NA
BRANCH  10  11
ATOM     11  C   UNL     1      -3.405  -1.903  24.794  0.00  0.00    +0.095 C 
ATOM     12  C   UNL     1      -2.585  -1.992  24.803  0.00  0.00    +0.022 C 
ATOM     13  C   UNL     1      -2.411  -2.774  24.605  0.00  0.00    +0.002 C 
ATOM     14  C   UNL     1      -3.124  -3.168  24.474  0.00  0.00    +0.002 C 
ATOM     15  C   UNL     1      -3.738  -2.630  24.591  0.00  0.00    +0.022 C 
ENDBRANCH  10  11
ENDBRANCH   7   8
ENDBRANCH   6   7
BRANCH  19  20
ATOM     20  C   UNL     1      -3.110   2.846  24.122  0.00  0.00    +0.119 C 
BRANCH  20  21
ATOM     21  N   UNL     1      -2.683   3.179  24.743  0.00  0.00    -0.205 NA
ATOM     22  C   UNL     1      -2.553   3.994  24.766  0.00  0.00    +0.241 C 
ATOM     23  O   UNL     1      -2.852   4.475  24.166  0.00  0.00    -0.273 OA
BRANCH  22  24
ATOM     24  C   UNL     1      -2.126   4.327  25.388  0.00  0.00    +0.087 C 
BRANCH  24  25
ATOM     25  C   UNL     1      -1.467   4.798  25.230  0.00  0.00    +0.009 C 
ATOM     26  C   UNL     1      -0.808   5.269  25.071  0.00  0.00    +0.000 C 
ATOM     27  C   UNL     1      -1.953   5.463  25.188  0.00  0.00    +0.000 C 
ATOM     28  C   UNL     1      -0.981   4.133  25.271  0.00  0.00    +0.000 C 
ENDBRANCH  24  25
ENDBRANCH  22  24
ENDBRANCH  20  21
ENDBRANCH  19  20
TORSDOF 8
ENDMDL
MODEL 3
REMARK VINA RESULT:     -11.0      1.169      5.729
REMARK  Name = 
REMARK  8 active torsions:
REMARK  status: ('A' for Active; 'I' for Inactive)
REMARK    1  A    between atoms: C_2  and  C_4
REMARK    2  A    between atoms: C_6  and  C_7
REMARK    3  A    between atoms: C_7  and  C_8
REMARK    4  A    between atoms: N_10  and  C_11
REMARK    5  A    between atoms: C_19  and  C_20
REMARK    6  A    between atoms: C_20  and  N_21
REMARK    7  A    between atoms: C_22  and  C_24
REMARK    8  A    between atoms: C_24  and  C_25
REMARK                            x       y       z     vdW  Elec       q    Type
REMARK                         _______ _______ _______ _____ _____    ______ ____
ROOT
ATOM      4  C   UNL     1      -3.100   1.222  24.897  0.00  0.00    +0.006 C 
ATOM      5  C   UNL     1      -3.063   0.413  25.046  0.00  0.00    +0.005 C 
ATOM      6  C   UNL     1      -2.361   0.076  25.319  0.00  0.00    +0.027 C 
ATOM     16  C   UNL     1      -1.697   0.549  25.443  0.00  0.00    -0.048 C 
ATOM     17  C   UNL     1      -0.995   0.212  25.716  0.00  0.00    +0.026 C 
ATOM     18  C   UNL     1      -1.735   1.360  25.294  0.00  0.00    -0.033 C 
ATOM     19  C   UNL     1      -2.436   1.697  25.020  0.00  0.00    +0.043 C 
ENDROOT
BRANCH   4   2
ATOM      1  C   UNL     1      -4.399   1.760  25.157  0.00  0.00    +0.000 C 
ATOM      2  C   UNL     1      -3.802   1.559  24.623  0.00  0.00    +0.000 C 
ATOM      3  C   UNL     1      -3.908   1.696  23.817  0.00  0.00    +0.000 C 
ENDBRANCH   4   2
BRANCH   6   7
ATOM      7  C   UNL     1      -2.323  -0.736  25.469  0.00  0.00    +0.091 C 
BRANCH   7   8
ATOM      8  C   UNL     1      -2.646  -1.270  24.930  0.00  0.00    +0.242 C 
ATOM      9  O   UNL     1      -2.301  -1.364  24.186  0.00  0.00    -0.273 OA
ATOM     10  N   UNL     1      -3.313  -1.710  25.134  0.00  0.00    -0.207 NA
BRANCH  10  11
ATOM     11  C   UNL     1      -3.635  -2.244  24.595  0.00  0.00    +0.095 C 
ATOM     12  C   UNL     1      -3.429  -3.040  24.518  0.00  0.00    +0.022 C 
ATOM     13  C   UNL     1      -3.887  -3.365  23.913  0.00  0.00    +0.002 C 
ATOM     14  C   UNL     1      -4.376  -2.771  23.617  0.00  0.00    +0.002 C 
ATOM     15  C   UNL     1      -4.220  -2.078  24.038  0.00  0.00    +0.022 C 
ENDBRANCH  10  11
ENDBRANCH   7   8
ENDBRANCH   6   7
BRANCH  19  20
ATOM     20  C   UNL     1      -2.474   2.506  24.871  0.00  0.00    +0.119 C 
BRANCH  20  21
ATOM     21  N   UNL     1      -1.940   3.018  25.237  0.00  0.00    -0.205 NA
ATOM     22  C   UNL     1      -1.912   3.813  25.015  0.00  0.00    +0.241 C 
ATOM     23  O   UNL     1      -2.419   4.095  24.428  0.00  0.00    -0.273 OA
BRANCH  22  24
ATOM     24  C   UNL     1      -1.378   4.325  25.381  0.00  0.00    +0.087 C 
BRANCH  24  25
ATOM     25  C   UNL     1      -1.184   5.042  25.023  0.00  0.00    +0.009 C 
ATOM     26  C   UNL     1      -0.988   5.759  24.664  0.00  0.00    +0.000 C 
ATOM     27  C   UNL     1      -0.496   4.704  24.720  0.00  0.00    +0.000 C 
ATOM     28  C   UNL     1      -1.872   5.381  25.326  0.00  0.00    +0.000 C 
ENDBRANCH  24  25
ENDBRANCH  22  24
ENDBRANCH  20  21
ENDBRANCH  19  20
TORSDOF 8
ENDMDL
MODEL 4
REMARK VINA RESULT:      -9.2      1.993      2.507
REMARK  Name = 
REMARK  8 active torsions:
REMARK  status: ('A' for Active; 'I' for Inactive)
REMARK    1  A    between atoms: C_2  and  C_4
REMARK    2  A    between atoms: C_6  and  C_7
REMARK    3  A    between atoms: C_7  and  C_8
REMARK    4  A    between atoms: N_10  and  C_11
REMARK    5  A    between atoms: C_19  and  C_20
REMARK    6  A    between atoms: C_20  and  N_21
REMARK    7  A    between atoms: C_22  and  C_24
REMARK    8  A    between atoms: C_24  and  C_25
REMARK                            x       y       z     vdW  Elec       q    Type
REMARK                         _______ _______ _______ _____ _____    ______ ____
ROOT
ATOM      4  C   UNL     1      -0.571   0.662  24.264  0.00  0.00    +0.006 C 
ATOM      5  C   UNL     1      -0.256   1.387  24.498  0.00  0.00    +0.005 C 
ATOM      6  C   UNL     1      -0.353   1.647  25.275  0.00  0.00    +0.027 C 
ATOM     16  C   UNL     1      -0.766   1.183  25.817  0.00  0.00    -0.048 C 
ATOM     17  C   UNL     1      -0.863   1.443  26.594  0.00  0.00    +0.026 C 
ATOM     18  C   UNL     1      -1.081   0.456  25.583  0.00  0.00    -0.033 C 
ATOM     19  C   UNL     1      -0.983   0.196  24.806  0.00  0.00    +0.043 C 
ENDROOT
BRANCH   4   2
ATOM      1  C   UNL     1      -1.033   0.597  22.913  0.00  0.00    +0.000 C 
ATOM      2  C   UNL     1      -0.473   0.402  23.487  0.00  0.00    +0.000 C 
ATOM      3  C   UNL     1       0.184  -0.054  23.284  0.00  0.00    +0.000 C 
ENDBRANCH   4   2
BRANCH   6   7
ATOM      7  C   UNL     1      -0.038   2.373  25.510  0.00  0.00    +0.091 C 
BRANCH   7   8
ATOM      8  C   UNL     1      -0.331   3.074  25.187  0.00  0.00    +0.242 C 
ATOM      9  O   UNL     1      -0.180   3.258  24.397  0.00  0.00    -0.273 OA
ATOM     10  N   UNL     1      -0.773   3.590  25.654  0.00  0.00    -0.207 NA
BRANCH  10  11
ATOM     11  C   UNL     1      -1.066   4.290  25.331  0.00  0.00    +0.095 C 
ATOM     12  C   UNL     1      -1.860   4.509  25.288  0.00  0.00    +0.022 C 
ATOM     13  C   UNL     1      -1.901   5.250  24.925  0.00  0.00    +0.002 C 
ATOM     14  C   UNL     1      -1.132   5.487  24.744  0.00  0.00    +0.002 C 
ATOM     15  C   UNL     1      -0.616   4.894  24.995  0.00  0.00    +0.022 C 
ENDBRANCH  10  11
ENDBRANCH   7   8
ENDBRANCH   6   7
BRANCH  19  20
ATOM     20  C   UNL     1      -1.298  -0.529  24.572  0.00  0.00    +0.119 C 
BRANCH  20  21
ATOM     21  N   UNL     1      -2.035  -0.769  24.855  0.00  0.00    -0.205 NA
ATOM     22  C   UNL     1      -2.282  -1.550  24.752  0.00  0.00    +0.241 C 
ATOM     23  O   UNL     1      -1.792  -2.090  24.365  0.00  0.00    -0.273 OA
BRANCH  22  24
ATOM     24  C   UNL     1      -3.019  -1.791  25.035  0.00  0.00    +0.087 C 
BRANCH  24  25
ATOM     25  C   UNL     1      -3.537  -2.199  24.540  0.00  0.00    +0.009 C 
ATOM     26  C   UNL     1      -4.055  -2.609  24.046  0.00  0.00    +0.000 C 
ATOM     27  C   UNL     1      -3.175  -2.910  24.750  0.00  0.00    +0.000 C 
ATOM     28  C   UNL     1      -3.899  -1.489  24.331  0.00  0.00    +0.000 C 
ENDBRANCH  24  25
ENDBRANCH  22  24
ENDBRANCH  20  21
ENDBRANCH  19  20
TORSDOF 8
ENDMDL
MODEL 5
REMARK VINA RESULT:      -8.8      2.507      4.817
REMARK  Name = 
REMARK  8 active torsions:
REMARK  status: ('A' for Active; 'I' for Inactive)
REMARK    1  A    between atoms: C_2  and  C_4
REMARK    2  A    between atoms: C_6  and  C_7
REMARK    3  A    between atoms: C_7  and  C_8
REMARK    4  A    between atoms: N_10  and  C_11
REMARK    5  A    between atoms: C_19  and  C_20
REMARK    6  A    between atoms: C_20  and  N_21
REMARK    7  A    between atoms: C_22  and  C_24
REMARK    8  A    between atoms: C_24  and  C_25
REMARK                            x       y       z     vdW  Elec       q    Type
REMARK                         _______ _______ _______ _____ _____    ______ ____
ROOT
ATOM      4  C   UNL     1      -1.114   1.919  24.930  0.00  0.00    +0.006 C 
ATOM      5  C   UNL     1      -0.594   1.314  24.722  0.00  0.00    +0.005 C 
ATOM      6  C   UNL     1      -0.888   0.580  24.486  0.00  0.00    +0.027 C 
ATOM     16  C   UNL     1      -1.702   0.451  24.459  0.00  0.00    -0.048 C 
ATOM     17  C   UNL     1      -1.997  -0.283  24.223  0.00  0.00    +0.026 C 
ATOM     18  C   UNL     1      -2.223   1.057  24.667  0.00  0.00    -0.033 C 
ATOM     19  C   UNL     1      -1.929   1.791  24.903  0.00  0.00    +0.043 C 
ENDROOT
BRANCH   4   2
ATOM      1  C   UNL     1      -0.627   2.785  25.957  0.00  0.00    +0.000 C 
ATOM      2  C   UNL     1      -0.820   2.652  25.166  0.00  0.00    +0.000 C 
ATOM      3  C   UNL     1      -0.718   3.254  24.611  0.00  0.00    +0.000 C 
ENDBRANCH   4   2
BRANCH   6   7
ATOM      7  C   UNL     1      -0.368  -0.026  24.278  0.00  0.00    +0.091 C 
BRANCH   7   8
ATOM      8  C   UNL     1       0.163   0.081  23.655  0.00  0.00    +0.242 C 
ATOM      9  O   UNL     1      -0.080   0.473  22.971  0.00  0.00    -0.273 OA
ATOM     10  N   UNL     1       0.934  -0.204  23.717  0.00  0.00    -0.207 NA
BRANCH  10  11
ATOM     11  C   UNL     1       1.464  -0.097  23.094  0.00  0.00    +0.095 C 
ATOM     12  C   UNL     1       1.394  -0.417  22.337  0.00  0.00    +0.022 C 
ATOM     13  C   UNL     1       2.044  -0.169  21.893  0.00  0.00    +0.002 C 
ATOM     14  C   UNL     1       2.516   0.305  22.376  0.00  0.00    +0.002 C 
ATOM     15  C   UNL     1       2.157   0.350  23.119  0.00  0.00    +0.022 C 
ENDBRANCH  10  11
ENDBRANCH   7   8
ENDBRANCH   6   7
BRANCH  19  20
ATOM     20  C   UNL     1      -2.449   2.396  25.111  0.00  0.00    +0.119 C 
BRANCH  20  21
ATOM     21  N   UNL     1      -3.206   2.419  24.784  0.00  0.00    -0.205 NA
ATOM     22  C   UNL     1      -3.793   2.882  25.135  0.00  0.00    +0.241 C 
ATOM     23  O   UNL     1      -3.621   3.321  25.812  0.00  0.00    -0.273 OA
BRANCH  22  24
ATOM     24  C   UNL     1      -4.550   2.905  24.809  0.00  0.00    +0.087 C 
BRANCH  24  25
ATOM     25  C   UNL     1      -5.209   2.962  25.301  0.00  0.00    +0.009 C 
ATOM     26  C   UNL     1      -5.869   3.020  25.794  0.00  0.00    +0.000 C 
ATOM     27  C   UNL     1      -5.065   3.767  25.401  0.00  0.00    +0.000 C 
ATOM     28  C   UNL     1      -5.355   2.156  25.201  0.00  0.00    +0.000 C 
ENDBRANCH  24  25
ENDBRANCH  22  24
ENDBRANCH  20  21
ENDBRANCH  19  20
TORSDOF 8
ENDMDL
MODEL 6
REMARK VINA RESULT:      -8.7      2.548      4.270
REMARK  Name = 
REMARK  8 active torsions:
REMARK  status: ('A' for Active; 'I' for Inactive)
REMARK    1  A    between atoms: C_2  and  C_4
REMARK    2  A    between atoms: C_6  and  C_7
REMARK    3  A    between atoms: C_7  and  C_8
REMARK    4  A    between atoms: N_10  and  C_11
REMARK    5  A    between atoms: C_19  and  C_20
REMARK    6  A    between atoms: C_20  and  N_21
REMARK    7  A    between atoms: C_22  and  C_24
REMARK    8  A    between atoms: C_24  and  C_25
REMARK                            x       y       z     vdW  Elec       q    Type
REMARK                         _______ _______ _______ _____ _____    ______ ____
ROOT
ATOM      4  C   UNL     1      -1.627   0.797  24.801  0.00  0.00    +0.006 C 
ATOM      5  C   UNL     1      -2.194   1.330  25.073  0.00  0.00    +0.005 C 
ATOM      6  C   UNL     1      -2.123   2.133  24.896  0.00  0.00    +0.027 C 
ATOM     16  C   UNL     1      -1.485   2.402  24.448  0.00  0.00    -0.048 C 
ATOM     17  C   UNL     1      -1.414   3.205  24.271  0.00  0.00    +0.026 C 
ATOM     18  C   UNL     1      -0.918   1.868  24.175  0.00  0.00    -0.033 C 
ATOM     19  C   UNL     1      -0.989   1.065  24.352  0.00  0.00    +0.043 C 
ENDROOT
BRANCH   4   2
ATOM      1  C   UNL     1      -1.356  -0.310  25.664  0.00  0.00    +0.000 C 
ATOM      2  C   UNL     1      -1.698  -0.006  24.977  0.00  0.00    +0.000 C 
ATOM      3  C   UNL     1      -2.112  -0.506  24.468  0.00  0.00    +0.000 C 
ENDBRANCH   4   2
BRANCH   6   7
ATOM      7  C   UNL     1      -2.690   2.667  25.169  0.00  0.00    +0.091 C 
BRANCH   7   8
ATOM      8  C   UNL     1      -3.488   2.546  24.997  0.00  0.00    +0.242 C 
ATOM      9  O   UNL     1      -3.740   2.509  24.212  0.00  0.00    -0.273 OA
ATOM     10  N   UNL     1      -4.033   2.460  25.610  0.00  0.00    -0.207 NA
BRANCH  10  11
ATOM     11  C   UNL     1      -4.830   2.339  25.439  0.00  0.00    +0.095 C 
ATOM     12  C   UNL     1      -5.420   2.916  25.440  0.00  0.00    +0.022 C 
ATOM     13  C   UNL     1      -6.133   2.552  25.238  0.00  0.00    +0.002 C 
ATOM     14  C   UNL     1      -5.984   1.751  25.112  0.00  0.00    +0.002 C 
ATOM     15  C   UNL     1      -5.178   1.619  25.237  0.00  0.00    +0.022 C 
ENDBRANCH  10  11
ENDBRANCH   7   8
ENDBRANCH   6   7
BRANCH  19  20
ATOM     20  C   UNL     1      -0.422   0.531  24.080  0.00  0.00    +0.119 C 
BRANCH  20  21
ATOM     21  N   UNL     1       0.138   0.773  23.525  0.00  0.00    -0.205 NA
ATOM     22  C   UNL     1       0.731   0.252  23.283  0.00  0.00    +0.241 C 
ATOM     23  O   UNL     1       0.763  -0.510  23.598  0.00  0.00    -0.273 OA
BRANCH  22  24
ATOM     24  C   UNL     1       1.292   0.493  22.728  0.00  0.00    +0.087 C 
BRANCH  24  25
ATOM     25  C   UNL     1       1.993   0.069  22.640  0.00  0.00    +0.009 C 
ATOM     26  C   UNL     1       2.696  -0.355  22.552  0.00  0.00    +0.000 C 
ATOM     27  C   UNL     1       1.621  -0.436  22.105  0.00  0.00    +0.000 C 
ATOM     28  C   UNL     1       2.366   0.574  23.175  0.00  0.00    +0.000 C 
ENDBRANCH  24  25
ENDBRANCH  22  24
ENDBRANCH  20  21
ENDBRANCH  19  20
TORSDOF 8
ENDMDL
