MODEL 1
REMARK VINA RESULT:     -10.8      0.000      0.000
REMARK  Name = 
REMARK  7 active torsions:
REMARK  status: ('A' for Active; 'I' for Inactive)
REMARK    1  A    between atoms: C_2  and  C_5
REMARK    2  A    between atoms: C_5  and  C_6
REMARK    3  A    between atoms: N_8  and  C_9
REMARK    4  A    between atoms: C_9  and  C_10
REMARK    5  A    between atoms: C_13  and  N_14
REMARK    6  A    between atoms: N_14  and  C_15
REMARK    7  A    between atoms: C_15  and  C_16
REMARK                            x       y       z     vdW  Elec       q    Type
REMARK                         _______ _______ _______ _____ _____    ______ ____
ROOT
ATOM     10  C   UNL     1      -3.712   2.206  24.619  0.00  0.00    +0.169 C 
ATOM     11  O   UNL     1      -4.294   2.021  25.173  0.00  0.00    -0.350 OA
ATOM     12  C   UNL     1      -4.453   1.214  25.115  0.00  0.00    +0.162 C 
ATOM     13  C   UNL     1      -3.969   0.900  24.525  0.00  0.00    +0.135 C 
ATOM     23  C   UNL     1      -3.510   1.513  24.219  0.00  0.00    +0.199 C 
ATOM     24  O   UNL     1      -2.950   1.446  23.618  0.00  0.00    -0.219 OA
ENDROOT
BRANCH  10   9
ATOM      9  C   UNL     1      -3.387   2.954  24.488  0.00  0.00    +0.147 C 
BRANCH   9   8
ATOM      6  C   UNL     1      -2.535   4.023  24.904  0.00  0.00    +0.241 C 
ATOM      7  O   UNL     1      -2.768   4.464  24.247  0.00  0.00    -0.273 OA
ATOM      8  N   UNL     1      -2.845   3.267  25.024  0.00  0.00    -0.203 NA
BRANCH   6   5
ATOM      5  C   UNL     1      -1.992   4.336  25.440  0.00  0.00    +0.087 C 
BRANCH   5   2
ATOM      1  C   UNL     1      -0.746   5.273  24.900  0.00  0.00    +0.000 C 
ATOM      2  C   UNL     1      -1.369   4.804  25.170  0.00  0.00    +0.009 C 
ATOM      3  C   UNL     1      -0.885   4.137  25.128  0.00  0.00    +0.000 C 
ATOM      4  C   UNL     1      -1.852   5.472  25.213  0.00  0.00    +0.000 C 
ENDBRANCH   5   2
ENDBRANCH   6   5
ENDBRANCH   9   8
ENDBRANCH  10   9
BRANCH  13  14
ATOM     14  N   UNL     1      -3.947   0.111  24.284  0.00  0.00    -0.209 NA
BRANCH  14  15
ATOM     15  C   UNL     1      -4.200  -0.484  24.797  0.00  0.00    +0.115 C 
BRANCH  15  16
ATOM     16  C   UNL     1      -4.020  -1.272  24.634  0.00  0.00    -0.005 A 
ATOM     17  C   UNL     1      -4.341  -1.639  23.968  0.00  0.00    -0.001 A 
ATOM     18  C   UNL     1      -4.162  -2.427  23.805  0.00  0.00    +0.029 A 
ATOM     19  C   UNL     1      -3.662  -2.850  24.307  0.00  0.00    +0.140 A 
ATOM     20  F   UNL     1      -3.482  -3.638  24.144  0.00  0.00    -0.204 F 
ATOM     21  C   UNL     1      -3.341  -2.483  24.973  0.00  0.00    +0.029 A 
ATOM     22  C   UNL     1      -3.521  -1.694  25.136  0.00  0.00    -0.001 A 
ENDBRANCH  15  16
ENDBRANCH  14  15
ENDBRANCH  13  14
TORSDOF 7
ENDMDL
MODEL 2
REMARK VINA RESULT:     -10.4      2.641      6.109
REMARK  Name = 
REMARK  7 active torsions:
REMARK  status: ('A' for Active; 'I' for Inactive)
REMARK    1  A    between atoms: C_2  and  C_5
REMARK    2  A    between atoms: C_5  and  C_6
REMARK    3  A    between atoms: N_8  and  C_9
REMARK    4  A    between atoms: C_9  and  C_10
REMARK    5  A    between atoms: C_13  and  N_14
REMARK    6  A    between atoms: N_14  and  C_15
REMARK    7  A    between atoms: C_15  and  C_16
REMARK                            x       y       z     vdW  Elec       q    Type
REMARK                         _______ _______ _______ _____ _____    ______ ____
ROOT
ATOM     10  C   UNL     1      -1.419   0.189  24.949  0.00  0.00    +0.169 C 
ATOM     11  O   UNL     1      -1.094   0.310  25.697  0.00  0.00    -0.350 OA
ATOM     12  C   UNL     1      -0.925   1.113  25.775  0.00  0.00    +0.162 C 
ATOM     13  C   UNL     1      -1.147   1.489  25.074  0.00  0.00    +0.135 C 
ATOM     23  C   UNL     1      -1.452   0.918  24.564  0.00  0.00    +0.199 C 
ATOM     24  O   UNL     1      -1.739   1.051  23.803  0.00  0.00    -0.219 OA
ENDROOT
BRANCH  10   9
ATOM      9  C   UNL     1      -1.668  -0.535  24.640  0.00  0.00    +0.147 C 
BRANCH   9   8
ATOM      6  C   UNL     1      -2.593  -1.624  24.640  0.00  0.00    +0.241 C 
ATOM      7  O   UNL     1      -2.090  -2.051  24.146  0.00  0.00    -0.273 OA
ATOM      8  N   UNL     1      -2.381  -0.865  24.887  0.00  0.00    -0.203 NA
BRANCH   6   5
ATOM      5  C   UNL     1      -3.307  -1.954  24.888  0.00  0.00    +0.087 C 
BRANCH   5   2
ATOM      1  C   UNL     1      -4.237  -2.802  23.820  0.00  0.00    +0.000 C 
ATOM      2  C   UNL     1      -3.772  -2.378  24.354  0.00  0.00    +0.009 C 
ATOM      3  C   UNL     1      -3.416  -3.080  24.601  0.00  0.00    +0.000 C 
ATOM      4  C   UNL     1      -4.128  -1.676  24.107  0.00  0.00    +0.000 C 
ENDBRANCH   5   2
ENDBRANCH   6   5
ENDBRANCH   9   8
ENDBRANCH  10   9
BRANCH  13  14
ATOM     14  N   UNL     1      -1.075   2.296  24.913  0.00  0.00    -0.209 NA
BRANCH  14  15
ATOM     15  C   UNL     1      -1.065   2.841  25.532  0.00  0.00    +0.115 C 
BRANCH  15  16
ATOM     16  C   UNL     1      -1.168   3.644  25.376  0.00  0.00    -0.005 A 
ATOM     17  C   UNL     1      -0.572   4.069  24.994  0.00  0.00    -0.001 A 
ATOM     18  C   UNL     1      -0.675   4.872  24.837  0.00  0.00    +0.029 A 
ATOM     19  C   UNL     1      -1.373   5.251  25.061  0.00  0.00    +0.140 A 
ATOM     20  F   UNL     1      -1.475   6.054  24.905  0.00  0.00    -0.204 F 
ATOM     21  C   UNL     1      -1.968   4.826  25.443  0.00  0.00    +0.029 A 
ATOM     22  C   UNL     1      -1.865   4.023  25.600  0.00  0.00    -0.001 A 
ENDBRANCH  15  16
ENDBRANCH  14  15
ENDBRANCH  13  14
TORSDOF 7
ENDMDL
MODEL 3
REMARK VINA RESULT:     -10.0      1.608      1.942
REMARK  Name = 
REMARK  7 active torsions:
REMARK  status: ('A' for Active; 'I' for Inactive)
REMARK    1  A    between atoms: C_2  and  C_5
REMARK    2  A    between atoms: C_5  and  C_6
REMARK    3  A    between atoms: N_8  and  C_9
REMARK    4  A    between atoms: C_9  and  C_10
REMARK    5  A    between atoms: C_13  and  N_14
REMARK    6  A    between atoms: N_14  and  C_15
REMARK    7  A    between atoms: C_15  and  C_16
REMARK                            x       y       z     vdW  Elec       q    Type
REMARK                         _______ _______ _______ _____ _____    ______ ____
ROOT
ATOM     10  C   UNL     1      -1.026   1.270  24.949  0.00  0.00    +0.169 C 
ATOM     11  O   UNL     1      -0.962   0.909  25.688  0.00  0.00    -0.350 OA
ATOM     12  C   UNL     1      -1.321   0.168  25.642  0.00  0.00    +0.162 C 
ATOM     13  C   UNL     1      -1.606   0.070  24.874  0.00  0.00    +0.135 C 
ATOM     23  C   UNL     1      -1.424   0.751  24.446  0.00  0.00    +0.199 C 
ATOM     24  O   UNL     1      -1.608   0.889  23.654  0.00  0.00    -0.219 OA
ENDROOT
BRANCH  10   9
ATOM      9  C   UNL     1      -0.742   2.018  24.749  0.00  0.00    +0.147 C 
BRANCH   9   8
ATOM      6  C   UNL     1      -0.757   3.429  24.976  0.00  0.00    +0.241 C 
ATOM      7  O   UNL     1      -0.496   3.556  24.204  0.00  0.00    -0.273 OA
ATOM      8  N   UNL     1      -0.880   2.659  25.248  0.00  0.00    -0.203 NA
BRANCH   6   5
ATOM      5  C   UNL     1      -0.896   4.070  25.476  0.00  0.00    +0.087 C 
BRANCH   5   2
ATOM      1  C   UNL     1      -1.685   5.403  24.908  0.00  0.00    +0.000 C 
ATOM      2  C   UNL     1      -1.290   4.737  25.192  0.00  0.00    +0.009 C 
ATOM      3  C   UNL     1      -1.993   4.465  25.529  0.00  0.00    +0.000 C 
ATOM      4  C   UNL     1      -0.588   5.008  24.855  0.00  0.00    +0.000 C 
ENDBRANCH   5   2
ENDBRANCH   6   5
ENDBRANCH   9   8
ENDBRANCH  10   9
BRANCH  13  14
ATOM     14  N   UNL     1      -2.004  -0.593  24.585  0.00  0.00    -0.209 NA
BRANCH  14  15
ATOM     15  C   UNL     1      -2.604  -0.942  25.032  0.00  0.00    +0.115 C 
BRANCH  15  16
ATOM     16  C   UNL     1      -3.109  -1.493  24.684  0.00  0.00    -0.005 A 
ATOM     17  C   UNL     1      -2.933  -2.298  24.726  0.00  0.00    -0.001 A 
ATOM     18  C   UNL     1      -3.438  -2.849  24.378  0.00  0.00    +0.029 A 
ATOM     19  C   UNL     1      -4.121  -2.596  23.989  0.00  0.00    +0.140 A 
ATOM     20  F   UNL     1      -4.626  -3.147  23.641  0.00  0.00    -0.204 F 
ATOM     21  C   UNL     1      -4.296  -1.791  23.947  0.00  0.00    +0.029 A 
ATOM     22  C   UNL     1      -3.791  -1.240  24.295  0.00  0.00    -0.001 A 
ENDBRANCH  15  16
ENDBRANCH  14  15
ENDBRANCH  13  14
TORSDOF 7
ENDMDL
