MODEL 1
REMARK VINA RESULT:      -9.4      0.000      0.000
REMARK  Name = 
REMARK  6 active torsions:
REMARK  status: ('A' for Active; 'I' for Inactive)
REMARK    1  A    between atoms: N_3  and  C_4
REMARK    2  A    between atoms: C_8  and  N_12
REMARK    3  A    between atoms: C_14  and  C_17
REMARK    4  A    between atoms: N_23  and  C_24
REMARK    5  A    between atoms: C_27  and  O_28
REMARK    6  A    between atoms: O_28  and  C_29
REMARK                            x       y       z     vdW  Elec       q    Type
REMARK                         _______ _______ _______ _____ _____    ______ ____
ROOT
ATOM      4  C   UNL     1       0.050   0.401  23.497  0.00  0.00    +0.156 C 
ATOM      5  C   UNL     1       0.431   0.908  24.024  0.00  0.00    +0.166 C 
ATOM      6  O   UNL     1       1.235   0.907  23.841  0.00  0.00    -0.350 OA
ATOM      7  C   UNL     1       1.351   0.400  23.202  0.00  0.00    +0.169 C 
ATOM      8  C   UNL     1       1.920   0.085  22.693  0.00  0.00    +0.166 C 
ATOM      9  C   UNL     1       1.539  -0.423  22.167  0.00  0.00    +0.169 C 
ATOM     10  O   UNL     1       0.734  -0.422  22.350  0.00  0.00    -0.350 OA
ATOM     11  C   UNL     1       0.619   0.087  22.989  0.00  0.00    +0.167 C 
ENDROOT
BRANCH   8  12
ATOM     12  N   UNL     1       2.728   0.249  22.709  0.00  0.00    -0.227 N 
ATOM     13  C   UNL     1       3.289  -0.115  23.193  0.00  0.00    +0.119 A 
ATOM     14  C   UNL     1       4.025   0.217  23.027  0.00  0.00    +0.141 A 
ATOM     15  N   UNL     1       3.920   0.787  22.440  0.00  0.00    -0.127 NA
ATOM     16  N   UNL     1       3.119   0.807  22.244  0.00  0.00    -0.064 NA
BRANCH  14  17
ATOM     17  C   UNL     1       4.740   0.015  23.385  0.00  0.00    +0.102 A 
ATOM     18  N   UNL     1       4.823  -0.717  23.756  0.00  0.00    -0.242 NA
ATOM     19  C   UNL     1       5.539  -0.919  24.113  0.00  0.00    +0.099 A 
ATOM     20  C   UNL     1       6.171  -0.389  24.100  0.00  0.00    +0.021 A 
ATOM     21  C   UNL     1       6.087   0.343  23.728  0.00  0.00    +0.003 A 
ATOM     22  C   UNL     1       5.372   0.545  23.371  0.00  0.00    +0.021 A 
ENDBRANCH  14  17
ENDBRANCH   8  12
BRANCH   4   3
ATOM      1  O   UNL     1      -1.036   1.554  23.958  0.00  0.00    -0.249 OA
ATOM      2  C   UNL     1      -1.302   0.813  23.712  0.00  0.00    +0.344 C 
ATOM      3  N   UNL     1      -0.759   0.236  23.481  0.00  0.00    -0.184 NA
ATOM     23  N   UNL     1      -2.110   0.649  23.696  0.00  0.00    -0.161 NA
BRANCH  23  24
ATOM     24  C   UNL     1      -2.653   1.225  23.927  0.00  0.00    +0.075 A 
ATOM     25  C   UNL     1      -2.775   1.381  24.727  0.00  0.00    +0.020 A 
ATOM     26  C   UNL     1      -3.318   1.958  24.957  0.00  0.00    +0.039 A 
ATOM     27  C   UNL     1      -3.740   2.379  24.387  0.00  0.00    +0.145 A 
ATOM     35  C   UNL     1      -3.618   2.223  23.585  0.00  0.00    +0.039 A 
ATOM     36  C   UNL     1      -3.074   1.646  23.356  0.00  0.00    +0.020 A 
BRANCH  27  28
ATOM     28  O   UNL     1      -4.283   2.956  24.616  0.00  0.00    -0.453 OA
BRANCH  28  29
ATOM     29  C   UNL     1      -4.964   2.740  25.029  0.00  0.00    +0.145 A 
ATOM     30  C   UNL     1      -5.090   3.025  25.793  0.00  0.00    +0.037 A 
ATOM     31  C   UNL     1      -5.770   2.810  26.206  0.00  0.00    +0.003 A 
ATOM     32  C   UNL     1      -6.325   2.310  25.855  0.00  0.00    +0.000 A 
ATOM     33  C   UNL     1      -6.200   2.025  25.091  0.00  0.00    +0.003 A 
ATOM     34  C   UNL     1      -5.518   2.241  24.678  0.00  0.00    +0.037 A 
ENDBRANCH  28  29
ENDBRANCH  27  28
ENDBRANCH  23  24
ENDBRANCH   4   3
TORSDOF 6
ENDMDL
MODEL 2
REMARK VINA RESULT:      -8.3      1.435      7.981
REMARK  Name = 
REMARK  6 active torsions:
REMARK  status: ('A' for Active; 'I' for Inactive)
REMARK    1  A    between atoms: N_3  and  C_4
REMARK    2  A    between atoms: C_8  and  N_12
REMARK    3  A    between atoms: C_14  and  C_17
REMARK    4  A    between atoms: N_23  and  C_24
REMARK    5  A    between atoms: C_27  and  O_28
REMARK    6  A    between atoms: O_28  and  C_29
REMARK                            x       y       z     vdW  Elec       q    Type
REMARK                         _______ _______ _______ _____ _____    ______ ____
ROOT
ATOM      4  C   UNL     1      -0.772   0.733  23.724  0.00  0.00    +0.156 C 
ATOM      5  C   UNL     1      -0.744   0.806  24.545  0.00  0.00    +0.166 C 
ATOM      6  O   UNL     1      -1.348   1.319  24.776  0.00  0.00    -0.350 OA
ATOM      7  C   UNL     1      -1.749   1.562  24.099  0.00  0.00    +0.169 C 
ATOM      8  C   UNL     1      -2.371   2.029  23.821  0.00  0.00    +0.166 C 
ATOM      9  C   UNL     1      -2.399   1.956  23.000  0.00  0.00    +0.169 C 
ATOM     10  O   UNL     1      -1.795   1.444  22.769  0.00  0.00    -0.350 OA
ATOM     11  C   UNL     1      -1.393   1.200  23.448  0.00  0.00    +0.167 C 
ENDROOT
BRANCH   8  12
ATOM     12  N   UNL     1      -2.876   2.489  24.284  0.00  0.00    -0.227 N 
ATOM     13  C   UNL     1      -3.650   2.296  24.496  0.00  0.00    +0.119 A 
ATOM     14  C   UNL     1      -3.947   2.910  24.960  0.00  0.00    +0.141 A 
ATOM     15  N   UNL     1      -3.358   3.481  25.035  0.00  0.00    -0.127 NA
ATOM     16  N   UNL     1      -2.695   3.221  24.617  0.00  0.00    -0.064 NA
BRANCH  14  17
ATOM     17  C   UNL     1      -4.702   2.946  25.291  0.00  0.00    +0.102 A 
ATOM     18  N   UNL     1      -5.047   3.677  25.454  0.00  0.00    -0.242 NA
ATOM     19  C   UNL     1      -5.802   3.713  25.784  0.00  0.00    +0.099 A 
ATOM     20  C   UNL     1      -6.212   3.017  25.952  0.00  0.00    +0.021 A 
ATOM     21  C   UNL     1      -5.867   2.286  25.789  0.00  0.00    +0.003 A 
ATOM     22  C   UNL     1      -5.113   2.250  25.458  0.00  0.00    +0.021 A 
ENDBRANCH  14  17
ENDBRANCH   8  12
BRANCH   4   3
ATOM      1  O   UNL     1       0.837   1.091  23.655  0.00  0.00    -0.249 OA
ATOM      2  C   UNL     1       0.537   0.452  23.226  0.00  0.00    +0.344 C 
ATOM      3  N   UNL     1      -0.267   0.274  23.261  0.00  0.00    -0.184 NA
ATOM     23  N   UNL     1       1.042  -0.007  22.763  0.00  0.00    -0.161 NA
BRANCH  23  24
ATOM     24  C   UNL     1       1.847   0.171  22.727  0.00  0.00    +0.075 A 
ATOM     25  C   UNL     1       2.161   0.759  23.213  0.00  0.00    +0.020 A 
ATOM     26  C   UNL     1       2.966   0.937  23.177  0.00  0.00    +0.039 A 
ATOM     27  C   UNL     1       3.457   0.527  22.656  0.00  0.00    +0.145 A 
ATOM     35  C   UNL     1       3.142  -0.062  22.170  0.00  0.00    +0.039 A 
ATOM     36  C   UNL     1       2.337  -0.239  22.206  0.00  0.00    +0.020 A 
BRANCH  27  28
ATOM     28  O   UNL     1       4.261   0.705  22.620  0.00  0.00    -0.453 OA
BRANCH  28  29
ATOM     29  C   UNL     1       4.781   0.377  23.170  0.00  0.00    +0.145 A 
ATOM     30  C   UNL     1       5.107   0.851  23.762  0.00  0.00    +0.037 A 
ATOM     31  C   UNL     1       5.627   0.523  24.312  0.00  0.00    +0.003 A 
ATOM     32  C   UNL     1       5.822  -0.278  24.271  0.00  0.00    +0.000 A 
ATOM     33  C   UNL     1       5.496  -0.752  23.679  0.00  0.00    +0.003 A 
ATOM     34  C   UNL     1       4.975  -0.423  23.128  0.00  0.00    +0.037 A 
ENDBRANCH  28  29
ENDBRANCH  27  28
ENDBRANCH  23  24
ENDBRANCH   4   3
TORSDOF 6
ENDMDL
MODEL 3
REMARK VINA RESULT:      -7.8     14.464     17.016
REMARK  Name = 
REMARK  6 active torsions:
REMARK  status: ('A' for Active; 'I' for Inactive)
REMARK    1  A    between atoms: N_3  and  C_4
REMARK    2  A    between atoms: C_8  and  N_12
REMARK    3  A    between atoms: C_14  and  C_17
REMARK    4  A    between atoms: N_23  and  C_24
REMARK    5  A    between atoms: C_27  and  O_28
REMARK    6  A    between atoms: O_28  and  C_29
REMARK                            x       y       z     vdW  Elec       q    Type
REMARK                         _______ _______ _______ _____ _____    ______ ____
ROOT
ATOM      4  C   UNL     1      -4.817 -10.559  15.181  0.00  0.00    +0.156 C 
ATOM      5  C   UNL     1      -5.520 -10.755  14.798  0.00  0.00    +0.166 C 
ATOM      6  O   UNL     1      -6.140 -10.641  15.330  0.00  0.00    -0.350 OA
ATOM      7  C   UNL     1      -5.820 -10.375  16.041  0.00  0.00    +0.169 C 
ATOM      8  C   UNL     1      -6.004 -10.140  16.810  0.00  0.00    +0.166 C 
ATOM      9  C   UNL     1      -5.301  -9.944  17.194  0.00  0.00    +0.169 C 
ATOM     10  O   UNL     1      -4.681 -10.058  16.662  0.00  0.00    -0.350 OA
ATOM     11  C   UNL     1      -5.002 -10.325  15.949  0.00  0.00    +0.167 C 
ENDROOT
BRANCH   8  12
ATOM     12  N   UNL     1      -6.761 -10.106  17.139  0.00  0.00    -0.227 N 
ATOM     13  C   UNL     1      -7.337  -9.539  16.974  0.00  0.00    +0.119 A 
ATOM     14  C   UNL     1      -8.006  -9.716  17.422  0.00  0.00    +0.141 A 
ATOM     15  N   UNL     1      -7.843 -10.393  17.865  0.00  0.00    -0.127 NA
ATOM     16  N   UNL     1      -7.074 -10.634  17.689  0.00  0.00    -0.064 NA
BRANCH  14  17
ATOM     17  C   UNL     1      -8.713  -9.291  17.428  0.00  0.00    +0.102 A 
ATOM     18  N   UNL     1      -9.380  -9.605  17.799  0.00  0.00    -0.242 NA
ATOM     19  C   UNL     1     -10.087  -9.180  17.804  0.00  0.00    +0.099 A 
ATOM     20  C   UNL     1     -10.127  -8.441  17.439  0.00  0.00    +0.021 A 
ATOM     21  C   UNL     1      -9.460  -8.128  17.068  0.00  0.00    +0.003 A 
ATOM     22  C   UNL     1      -8.753  -8.553  17.062  0.00  0.00    +0.021 A 
ENDBRANCH  14  17
ENDBRANCH   8  12
BRANCH   4   3
ATOM      1  O   UNL     1      -4.616 -10.390  13.552  0.00  0.00    -0.249 OA
ATOM      2  C   UNL     1      -3.959 -10.508  14.038  0.00  0.00    +0.344 C 
ATOM      3  N   UNL     1      -4.060 -10.593  14.853  0.00  0.00    -0.184 NA
ATOM     23  N   UNL     1      -3.204 -10.542  13.710  0.00  0.00    -0.161 NA
BRANCH  23  24
ATOM     24  C   UNL     1      -3.103 -10.457  12.895  0.00  0.00    +0.075 A 
ATOM     25  C   UNL     1      -3.655 -10.781  12.375  0.00  0.00    +0.020 A 
ATOM     26  C   UNL     1      -3.554 -10.697  11.561  0.00  0.00    +0.039 A 
ATOM     27  C   UNL     1      -2.901 -10.288  11.266  0.00  0.00    +0.145 A 
ATOM     35  C   UNL     1      -2.348  -9.964  11.787  0.00  0.00    +0.039 A 
ATOM     36  C   UNL     1      -2.450 -10.048  12.601  0.00  0.00    +0.020 A 
BRANCH  27  28
ATOM     28  O   UNL     1      -2.799 -10.203  10.452  0.00  0.00    -0.453 OA
BRANCH  28  29
ATOM     29  C   UNL     1      -3.358  -9.791  10.007  0.00  0.00    +0.145 A 
ATOM     30  C   UNL     1      -3.347  -8.966   9.993  0.00  0.00    +0.037 A 
ATOM     31  C   UNL     1      -3.906  -8.554   9.548  0.00  0.00    +0.003 A 
ATOM     32  C   UNL     1      -4.476  -8.966   9.117  0.00  0.00    +0.000 A 
ATOM     33  C   UNL     1      -4.488  -9.791   9.131  0.00  0.00    +0.003 A 
ATOM     34  C   UNL     1      -3.928 -10.203   9.577  0.00  0.00    +0.037 A 
ENDBRANCH  28  29
ENDBRANCH  27  28
ENDBRANCH  23  24
ENDBRANCH   4   3
TORSDOF 6
ENDMDL
MODEL 4
REMARK VINA RESULT:      -7.3     15.329     17.335
REMARK  Name = 
REMARK  6 active torsions:
REMARK  status: ('A' for Active; 'I' for Inactive)
REMARK    1  A    between atoms: N_3  and  C_4
REMARK    2  A    between atoms: C_8  and  N_12
REMARK    3  A    between atoms: C_14  and  C_17
REMARK    4  A    between atoms: N_23  and  C_24
REMARK    5  A    between atoms: C_27  and  O_28
REMARK    6  A    between atoms: O_28  and  C_29
REMARK                            x       y       z     vdW  Elec       q    Type
REMARK                         _______ _______ _______ _____ _____    ______ ____
ROOT
ATOM      4  C   UNL     1      -8.098 -10.061  13.950  0.00  0.00    +0.156 C 
ATOM      5  C   UNL     1      -7.640 -10.719  14.145  0.00  0.00    +0.166 C 
ATOM      6  O   UNL     1      -7.620 -10.781  14.967  0.00  0.00    -0.350 OA
ATOM      7  C   UNL     1      -8.066 -10.163  15.281  0.00  0.00    +0.169 C 
ATOM      8  C   UNL     1      -8.330  -9.818  15.982  0.00  0.00    +0.166 C 
ATOM      9  C   UNL     1      -8.788  -9.160  15.788  0.00  0.00    +0.169 C 
ATOM     10  O   UNL     1      -8.807  -9.098  14.965  0.00  0.00    -0.350 OA
ATOM     11  C   UNL     1      -8.361  -9.717  14.652  0.00  0.00    +0.167 C 
ENDROOT
BRANCH   8  12
ATOM     12  N   UNL     1      -8.164 -10.085  16.745  0.00  0.00    -0.227 N 
ATOM     13  C   UNL     1      -7.423 -10.091  17.107  0.00  0.00    +0.119 A 
ATOM     14  C   UNL     1      -7.512 -10.402  17.866  0.00  0.00    +0.141 A 
ATOM     15  N   UNL     1      -8.308 -10.589  17.973  0.00  0.00    -0.127 NA
ATOM     16  N   UNL     1      -8.711 -10.393  17.280  0.00  0.00    -0.064 NA
BRANCH  14  17
ATOM     17  C   UNL     1      -6.910 -10.508  18.420  0.00  0.00    +0.102 A 
ATOM     18  N   UNL     1      -6.127 -10.583  18.170  0.00  0.00    -0.242 NA
ATOM     19  C   UNL     1      -5.525 -10.689  18.724  0.00  0.00    +0.099 A 
ATOM     20  C   UNL     1      -5.706 -10.721  19.528  0.00  0.00    +0.021 A 
ATOM     21  C   UNL     1      -6.489 -10.646  19.778  0.00  0.00    +0.003 A 
ATOM     22  C   UNL     1      -7.090 -10.540  19.225  0.00  0.00    +0.021 A 
ENDBRANCH  14  17
ENDBRANCH   8  12
BRANCH   4   3
ATOM      1  O   UNL     1      -6.905 -10.030  12.810  0.00  0.00    -0.249 OA
ATOM      2  C   UNL     1      -7.667  -9.778  12.617  0.00  0.00    +0.344 C 
ATOM      3  N   UNL     1      -8.263  -9.794  13.187  0.00  0.00    -0.184 NA
ATOM     23  N   UNL     1      -7.832  -9.512  11.854  0.00  0.00    -0.161 NA
BRANCH  23  24
ATOM     24  C   UNL     1      -7.236  -9.496  11.284  0.00  0.00    +0.075 A 
ATOM     25  C   UNL     1      -6.781  -8.816  11.181  0.00  0.00    +0.020 A 
ATOM     26  C   UNL     1      -6.185  -8.801  10.611  0.00  0.00    +0.039 A 
ATOM     27  C   UNL     1      -6.044  -9.466  10.143  0.00  0.00    +0.145 A 
ATOM     35  C   UNL     1      -6.499 -10.147  10.246  0.00  0.00    +0.039 A 
ATOM     36  C   UNL     1      -7.095 -10.161  10.817  0.00  0.00    +0.020 A 
BRANCH  27  28
ATOM     28  O   UNL     1      -5.448  -9.451   9.573  0.00  0.00    -0.453 OA
BRANCH  28  29
ATOM     29  C   UNL     1      -4.659  -9.536   9.798  0.00  0.00    +0.145 A 
ATOM     30  C   UNL     1      -4.177  -8.871   9.869  0.00  0.00    +0.037 A 
ATOM     31  C   UNL     1      -3.387  -8.956  10.093  0.00  0.00    +0.003 A 
ATOM     32  C   UNL     1      -3.081  -9.707  10.247  0.00  0.00    +0.000 A 
ATOM     33  C   UNL     1      -3.563 -10.372  10.176  0.00  0.00    +0.003 A 
ATOM     34  C   UNL     1      -4.353 -10.287   9.951  0.00  0.00    +0.037 A 
ENDBRANCH  28  29
ENDBRANCH  27  28
ENDBRANCH  23  24
ENDBRANCH   4   3
TORSDOF 6
ENDMDL
MODEL 5
REMARK VINA RESULT:      -6.9     15.542     18.177
REMARK  Name = 
REMARK  6 active torsions:
REMARK  status: ('A' for Active; 'I' for Inactive)
REMARK    1  A    between atoms: N_3  and  C_4
REMARK    2  A    between atoms: C_8  and  N_12
REMARK    3  A    between atoms: C_14  and  C_17
REMARK    4  A    between atoms: N_23  and  C_24
REMARK    5  A    between atoms: C_27  and  O_28
REMARK    6  A    between atoms: O_28  and  C_29
REMARK                            x       y       z     vdW  Elec       q    Type
REMARK                         _______ _______ _______ _____ _____    ______ ____
ROOT
ATOM      4  C   UNL     1      -7.658  -9.629  12.298  0.00  0.00    +0.156 C 
ATOM      5  C   UNL     1      -7.207  -9.550  12.984  0.00  0.00    +0.166 C 
ATOM      6  O   UNL     1      -7.722  -9.543  13.628  0.00  0.00    -0.350 OA
ATOM      7  C   UNL     1      -8.491  -9.617  13.341  0.00  0.00    +0.169 C 
ATOM      8  C   UNL     1      -9.285  -9.658  13.560  0.00  0.00    +0.166 C 
ATOM      9  C   UNL     1      -9.736  -9.738  12.874  0.00  0.00    +0.169 C 
ATOM     10  O   UNL     1      -9.221  -9.745  12.230  0.00  0.00    -0.350 OA
ATOM     11  C   UNL     1      -8.451  -9.671  12.518  0.00  0.00    +0.167 C 
ENDROOT
BRANCH   8  12
ATOM     12  N   UNL     1      -9.577  -9.626  14.331  0.00  0.00    -0.227 N 
ATOM     13  C   UNL     1      -9.584  -8.961  14.820  0.00  0.00    +0.119 A 
ATOM     14  C   UNL     1      -9.925  -9.178  15.540  0.00  0.00    +0.141 A 
ATOM     15  N   UNL     1     -10.129  -9.975  15.495  0.00  0.00    -0.127 NA
ATOM     16  N   UNL     1      -9.914 -10.252  14.748  0.00  0.00    -0.064 NA
BRANCH  14  17
ATOM     17  C   UNL     1     -10.041  -8.682  16.189  0.00  0.00    +0.102 A 
ATOM     18  N   UNL     1      -9.594  -8.790  16.875  0.00  0.00    -0.242 NA
ATOM     19  C   UNL     1      -9.710  -8.295  17.525  0.00  0.00    +0.099 A 
ATOM     20  C   UNL     1     -10.273  -7.692  17.489  0.00  0.00    +0.021 A 
ATOM     21  C   UNL     1     -10.719  -7.585  16.803  0.00  0.00    +0.003 A 
ATOM     22  C   UNL     1     -10.603  -8.080  16.154  0.00  0.00    +0.021 A 
ENDBRANCH  14  17
ENDBRANCH   8  12
BRANCH   4   3
ATOM      1  O   UNL     1      -6.032  -9.731  12.035  0.00  0.00    -0.249 OA
ATOM      2  C   UNL     1      -6.553  -9.712  11.395  0.00  0.00    +0.344 C 
ATOM      3  N   UNL     1      -7.366  -9.662  11.527  0.00  0.00    -0.184 NA
ATOM     23  N   UNL     1      -6.261  -9.745  10.625  0.00  0.00    -0.161 NA
BRANCH  23  24
ATOM     24  C   UNL     1      -5.448  -9.795  10.493  0.00  0.00    +0.075 A 
ATOM     25  C   UNL     1      -4.996  -9.109  10.432  0.00  0.00    +0.020 A 
ATOM     26  C   UNL     1      -4.183  -9.160  10.300  0.00  0.00    +0.039 A 
ATOM     27  C   UNL     1      -3.822  -9.898  10.229  0.00  0.00    +0.145 A 
ATOM     35  C   UNL     1      -4.275 -10.586  10.290  0.00  0.00    +0.039 A 
ATOM     36  C   UNL     1      -5.087 -10.534  10.422  0.00  0.00    +0.020 A 
BRANCH  27  28
ATOM     28  O   UNL     1      -3.010  -9.950  10.097  0.00  0.00    -0.453 OA
BRANCH  28  29
ATOM     29  C   UNL     1      -2.486  -9.927  10.733  0.00  0.00    +0.145 A 
ATOM     30  C   UNL     1      -2.460 -10.553  11.269  0.00  0.00    +0.037 A 
ATOM     31  C   UNL     1      -1.936 -10.530  11.906  0.00  0.00    +0.003 A 
ATOM     32  C   UNL     1      -1.438  -9.880  12.007  0.00  0.00    +0.000 A 
ATOM     33  C   UNL     1      -1.463  -9.253  11.471  0.00  0.00    +0.003 A 
ATOM     34  C   UNL     1      -1.988  -9.277  10.834  0.00  0.00    +0.037 A 
ENDBRANCH  28  29
ENDBRANCH  27  28
ENDBRANCH  23  24
ENDBRANCH   4   3
TORSDOF 6
ENDMDL
MODEL 6
REMARK VINA RESULT:      -6.8     15.521     16.590
REMARK  Name = 
REMARK  6 active torsions:
REMARK  status: ('A' for Active; 'I' for Inactive)
REMARK    1  A    between atoms: N_3  and  C_4
REMARK    2  A    between atoms: C_8  and  N_12
REMARK    3  A    between atoms: C_14  and  C_17
REMARK    4  A    between atoms: N_23  and  C_24
REMARK    5  A    between atoms: C_27  and  O_28
REMARK    6  A    between atoms: O_28  and  C_29
REMARK                            x       y       z     vdW  Elec       q    Type
REMARK                         _______ _______ _______ _____ _____    ______ ____
ROOT
ATOM      4  C   UNL     1      -7.383 -10.028  12.239  0.00  0.00    +0.156 C 
ATOM      5  C   UNL     1      -6.942 -10.672  12.505  0.00  0.00    +0.166 C 
ATOM      6  O   UNL     1      -6.207 -10.648  12.132  0.00  0.00    -0.350 OA
ATOM      7  C   UNL     1      -6.194  -9.991  11.635  0.00  0.00    +0.169 C 
ATOM      8  C   UNL     1      -5.733  -9.569  11.097  0.00  0.00    +0.166 C 
ATOM      9  C   UNL     1      -6.174  -8.925  10.831  0.00  0.00    +0.169 C 
ATOM     10  O   UNL     1      -6.909  -8.949  11.204  0.00  0.00    -0.350 OA
ATOM     11  C   UNL     1      -6.921  -9.607  11.701  0.00  0.00    +0.167 C 
ENDROOT
BRANCH   8  12
ATOM     12  N   UNL     1      -4.963  -9.758  10.865  0.00  0.00    -0.227 N 
ATOM     13  C   UNL     1      -4.274  -9.587  11.286  0.00  0.00    +0.119 A 
ATOM     14  C   UNL     1      -3.634  -9.875  10.853  0.00  0.00    +0.141 A 
ATOM     15  N   UNL     1      -3.927 -10.224  10.166  0.00  0.00    -0.127 NA
ATOM     16  N   UNL     1      -4.748 -10.152  10.174  0.00  0.00    -0.064 NA
BRANCH  14  17
ATOM     17  C   UNL     1      -2.839  -9.823  11.070  0.00  0.00    +0.102 A 
ATOM     18  N   UNL     1      -2.536 -10.328  11.648  0.00  0.00    -0.242 NA
ATOM     19  C   UNL     1      -1.741 -10.276  11.865  0.00  0.00    +0.099 A 
ATOM     20  C   UNL     1      -1.251  -9.720  11.504  0.00  0.00    +0.021 A 
ATOM     21  C   UNL     1      -1.555  -9.215  10.926  0.00  0.00    +0.003 A 
ATOM     22  C   UNL     1      -2.348  -9.267  10.709  0.00  0.00    +0.021 A 
ENDBRANCH  14  17
ENDBRANCH   8  12
BRANCH   4   3
ATOM      1  O   UNL     1      -7.771  -9.967  13.842  0.00  0.00    -0.249 OA
ATOM      2  C   UNL     1      -8.347  -9.808  13.272  0.00  0.00    +0.344 C 
ATOM      3  N   UNL     1      -8.153  -9.839  12.471  0.00  0.00    -0.184 NA
ATOM     23  N   UNL     1      -9.115  -9.619  13.503  0.00  0.00    -0.161 NA
BRANCH  23  24
ATOM     24  C   UNL     1      -9.310  -9.588  14.305  0.00  0.00    +0.075 A 
ATOM     25  C   UNL     1      -9.589 -10.263  14.688  0.00  0.00    +0.020 A 
ATOM     26  C   UNL     1      -9.783 -10.232  15.489  0.00  0.00    +0.039 A 
ATOM     27  C   UNL     1      -9.699  -9.526  15.907  0.00  0.00    +0.145 A 
ATOM     35  C   UNL     1      -9.420  -8.851  15.524  0.00  0.00    +0.039 A 
ATOM     36  C   UNL     1      -9.225  -8.882  14.723  0.00  0.00    +0.020 A 
BRANCH  27  28
ATOM     28  O   UNL     1      -9.893  -9.495  16.708  0.00  0.00    -0.453 OA
BRANCH  28  29
ATOM     29  C   UNL     1      -9.358  -9.768  17.274  0.00  0.00    +0.145 A 
ATOM     30  C   UNL     1      -9.484 -10.495  17.643  0.00  0.00    +0.037 A 
ATOM     31  C   UNL     1      -8.949 -10.768  18.209  0.00  0.00    +0.003 A 
ATOM     32  C   UNL     1      -8.288 -10.314  18.405  0.00  0.00    +0.000 A 
ATOM     33  C   UNL     1      -8.162  -9.587  18.035  0.00  0.00    +0.003 A 
ATOM     34  C   UNL     1      -8.698  -9.314  17.469  0.00  0.00    +0.037 A 
ENDBRANCH  28  29
ENDBRANCH  27  28
ENDBRANCH  23  24
ENDBRANCH   4   3
TORSDOF 6
ENDMDL
MODEL 7
REMARK VINA RESULT:      -6.5     16.655     18.659
REMARK  Name = 
REMARK  6 active torsions:
REMARK  status: ('A' for Active; 'I' for Inactive)
REMARK    1  A    between atoms: N_3  and  C_4
REMARK    2  A    between atoms: C_8  and  N_12
REMARK    3  A    between atoms: C_14  and  C_17
REMARK    4  A    between atoms: N_23  and  C_24
REMARK    5  A    between atoms: C_27  and  O_28
REMARK    6  A    between atoms: O_28  and  C_29
REMARK                            x       y       z     vdW  Elec       q    Type
REMARK                         _______ _______ _______ _____ _____    ______ ____
ROOT
ATOM      4  C   UNL     1      16.225  -7.308  26.835  0.00  0.00    +0.156 C 
ATOM      5  C   UNL     1      15.408  -7.357  26.733  0.00  0.00    +0.166 C 
ATOM      6  O   UNL     1      15.063  -7.440  27.477  0.00  0.00    -0.350 OA
ATOM      7  C   UNL     1      15.666  -7.443  28.039  0.00  0.00    +0.169 C 
ATOM      8  C   UNL     1      15.827  -7.497  28.847  0.00  0.00    +0.166 C 
ATOM      9  C   UNL     1      16.643  -7.448  28.949  0.00  0.00    +0.169 C 
ATOM     10  O   UNL     1      16.988  -7.364  28.205  0.00  0.00    -0.350 OA
ATOM     11  C   UNL     1      16.384  -7.361  27.642  0.00  0.00    +0.167 C 
ENDROOT
BRANCH   8  12
ATOM     12  N   UNL     1      15.267  -7.584  29.447  0.00  0.00    -0.227 N 
ATOM     13  C   UNL     1      14.633  -7.077  29.597  0.00  0.00    +0.119 A 
ATOM     14  C   UNL     1      14.218  -7.373  30.245  0.00  0.00    +0.141 A 
ATOM     15  N   UNL     1      14.594  -8.062  30.496  0.00  0.00    -0.127 NA
ATOM     16  N   UNL     1      15.243  -8.193  30.003  0.00  0.00    -0.064 NA
BRANCH  14  17
ATOM     17  C   UNL     1      13.544  -7.038  30.584  0.00  0.00    +0.102 A 
ATOM     18  N   UNL     1      13.619  -6.478  31.185  0.00  0.00    -0.242 NA
ATOM     19  C   UNL     1      12.945  -6.143  31.523  0.00  0.00    +0.099 A 
ATOM     20  C   UNL     1      12.196  -6.368  31.260  0.00  0.00    +0.021 A 
ATOM     21  C   UNL     1      12.121  -6.929  30.659  0.00  0.00    +0.003 A 
ATOM     22  C   UNL     1      12.795  -7.263  30.320  0.00  0.00    +0.021 A 
ENDBRANCH  14  17
ENDBRANCH   8  12
BRANCH   4   3
ATOM      1  O   UNL     1      16.233  -5.944  25.906  0.00  0.00    -0.249 OA
ATOM      2  C   UNL     1      16.789  -6.539  25.770  0.00  0.00    +0.344 C 
ATOM      3  N   UNL     1      16.785  -7.221  26.235  0.00  0.00    -0.184 NA
ATOM     23  N   UNL     1      17.348  -6.451  25.170  0.00  0.00    -0.161 NA
BRANCH  23  24
ATOM     24  C   UNL     1      17.352  -5.769  24.706  0.00  0.00    +0.075 A 
ATOM     25  C   UNL     1      17.401  -5.027  25.062  0.00  0.00    +0.020 A 
ATOM     26  C   UNL     1      17.405  -4.346  24.597  0.00  0.00    +0.039 A 
ATOM     27  C   UNL     1      17.360  -4.406  23.776  0.00  0.00    +0.145 A 
ATOM     35  C   UNL     1      17.311  -5.149  23.419  0.00  0.00    +0.039 A 
ATOM     36  C   UNL     1      17.307  -5.830  23.884  0.00  0.00    +0.020 A 
BRANCH  27  28
ATOM     28  O   UNL     1      17.365  -3.725  23.310  0.00  0.00    -0.453 OA
BRANCH  28  29
ATOM     29  C   UNL     1      16.670  -3.293  23.204  0.00  0.00    +0.145 A 
ATOM     30  C   UNL     1      16.101  -3.553  22.667  0.00  0.00    +0.037 A 
ATOM     31  C   UNL     1      15.406  -3.121  22.561  0.00  0.00    +0.003 A 
ATOM     32  C   UNL     1      15.280  -2.429  22.992  0.00  0.00    +0.000 A 
ATOM     33  C   UNL     1      15.849  -2.169  23.530  0.00  0.00    +0.003 A 
ATOM     34  C   UNL     1      16.545  -2.602  23.636  0.00  0.00    +0.037 A 
ENDBRANCH  28  29
ENDBRANCH  27  28
ENDBRANCH  23  24
ENDBRANCH   4   3
TORSDOF 6
ENDMDL
MODEL 8
REMARK VINA RESULT:      -6.4     17.013     18.347
REMARK  Name = 
REMARK  6 active torsions:
REMARK  status: ('A' for Active; 'I' for Inactive)
REMARK    1  A    between atoms: N_3  and  C_4
REMARK    2  A    between atoms: C_8  and  N_12
REMARK    3  A    between atoms: C_14  and  C_17
REMARK    4  A    between atoms: N_23  and  C_24
REMARK    5  A    between atoms: C_27  and  O_28
REMARK    6  A    between atoms: O_28  and  C_29
REMARK                            x       y       z     vdW  Elec       q    Type
REMARK                         _______ _______ _______ _____ _____    ______ ____
ROOT
ATOM      4  C   UNL     1      17.274  -5.981  26.550  0.00  0.00    +0.156 C 
ATOM      5  C   UNL     1      17.178  -5.184  26.740  0.00  0.00    +0.166 C 
ATOM      6  O   UNL     1      17.161  -4.756  26.035  0.00  0.00    -0.350 OA
ATOM      7  C   UNL     1      17.248  -5.287  25.411  0.00  0.00    +0.169 C 
ATOM      8  C   UNL     1      17.292  -5.351  24.590  0.00  0.00    +0.166 C 
ATOM      9  C   UNL     1      17.389  -6.148  24.400  0.00  0.00    +0.169 C 
ATOM     10  O   UNL     1      17.405  -6.576  25.104  0.00  0.00    -0.350 OA
ATOM     11  C   UNL     1      17.318  -6.044  25.729  0.00  0.00    +0.167 C 
ENDROOT
BRANCH   8  12
ATOM     12  N   UNL     1      17.247  -4.727  24.052  0.00  0.00    -0.227 N 
ATOM     13  C   UNL     1      17.275  -3.923  24.237  0.00  0.00    +0.119 A 
ATOM     14  C   UNL     1      17.211  -3.496  23.534  0.00  0.00    +0.141 A 
ATOM     15  N   UNL     1      17.144  -4.036  22.914  0.00  0.00    -0.127 NA
ATOM     16  N   UNL     1      17.166  -4.796  23.234  0.00  0.00    -0.064 NA
BRANCH  14  17
ATOM     17  C   UNL     1      17.214  -2.674  23.464  0.00  0.00    +0.102 A 
ATOM     18  N   UNL     1      17.101  -2.203  24.132  0.00  0.00    -0.242 NA
ATOM     19  C   UNL     1      17.104  -1.381  24.061  0.00  0.00    +0.099 A 
ATOM     20  C   UNL     1      17.220  -1.030  23.324  0.00  0.00    +0.021 A 
ATOM     21  C   UNL     1      17.332  -1.502  22.656  0.00  0.00    +0.003 A 
ATOM     22  C   UNL     1      17.329  -2.324  22.726  0.00  0.00    +0.021 A 
ENDBRANCH  14  17
ENDBRANCH   8  12
BRANCH   4   3
ATOM      1  O   UNL     1      16.135  -6.134  27.734  0.00  0.00    -0.249 OA
ATOM      2  C   UNL     1      16.750  -6.683  27.680  0.00  0.00    +0.344 C 
ATOM      3  N   UNL     1      17.320  -6.606  27.088  0.00  0.00    -0.184 NA
ATOM     23  N   UNL     1      16.795  -7.306  28.218  0.00  0.00    -0.161 NA
BRANCH  23  24
ATOM     24  C   UNL     1      16.226  -7.383  28.810  0.00  0.00    +0.075 A 
ATOM     25  C   UNL     1      15.511  -7.762  28.649  0.00  0.00    +0.020 A 
ATOM     26  C   UNL     1      14.942  -7.839  29.241  0.00  0.00    +0.039 A 
ATOM     27  C   UNL     1      15.088  -7.537  29.994  0.00  0.00    +0.145 A 
ATOM     35  C   UNL     1      15.803  -7.157  30.156  0.00  0.00    +0.039 A 
ATOM     36  C   UNL     1      16.371  -7.081  29.563  0.00  0.00    +0.020 A 
BRANCH  27  28
ATOM     28  O   UNL     1      14.519  -7.613  30.587  0.00  0.00    -0.453 OA
BRANCH  28  29
ATOM     29  C   UNL     1      13.923  -7.047  30.663  0.00  0.00    +0.145 A 
ATOM     30  C   UNL     1      13.194  -7.165  30.295  0.00  0.00    +0.037 A 
ATOM     31  C   UNL     1      12.598  -6.599  30.372  0.00  0.00    +0.003 A 
ATOM     32  C   UNL     1      12.732  -5.916  30.816  0.00  0.00    +0.000 A 
ATOM     33  C   UNL     1      13.461  -5.799  31.184  0.00  0.00    +0.003 A 
ATOM     34  C   UNL     1      14.057  -6.366  31.107  0.00  0.00    +0.037 A 
ENDBRANCH  28  29
ENDBRANCH  27  28
ENDBRANCH  23  24
ENDBRANCH   4   3
TORSDOF 6
ENDMDL
MODEL 9
REMARK VINA RESULT:      -6.2     16.802     17.928
REMARK  Name = 
REMARK  6 active torsions:
REMARK  status: ('A' for Active; 'I' for Inactive)
REMARK    1  A    between atoms: N_3  and  C_4
REMARK    2  A    between atoms: C_8  and  N_12
REMARK    3  A    between atoms: C_14  and  C_17
REMARK    4  A    between atoms: N_23  and  C_24
REMARK    5  A    between atoms: C_27  and  O_28
REMARK    6  A    between atoms: O_28  and  C_29
REMARK                            x       y       z     vdW  Elec       q    Type
REMARK                         _______ _______ _______ _____ _____    ______ ____
ROOT
ATOM      4  C   UNL     1      -6.564  -9.683  10.711  0.00  0.00    +0.156 C 
ATOM      5  C   UNL     1      -6.415  -9.088  11.263  0.00  0.00    +0.166 C 
ATOM      6  O   UNL     1      -5.622  -9.140  11.484  0.00  0.00    -0.350 OA
ATOM      7  C   UNL     1      -5.281  -9.766  11.069  0.00  0.00    +0.169 C 
ATOM      8  C   UNL     1      -4.581 -10.185  10.948  0.00  0.00    +0.166 C 
ATOM      9  C   UNL     1      -4.731 -10.780  10.396  0.00  0.00    +0.169 C 
ATOM     10  O   UNL     1      -5.524 -10.728  10.176  0.00  0.00    -0.350 OA
ATOM     11  C   UNL     1      -5.864 -10.101  10.591  0.00  0.00    +0.167 C 
ENDROOT
BRANCH   8  12
ATOM     12  N   UNL     1      -3.857 -10.036  11.315  0.00  0.00    -0.227 N 
ATOM     13  C   UNL     1      -3.153  -9.834  10.935  0.00  0.00    +0.119 A 
ATOM     14  C   UNL     1      -2.572  -9.735  11.512  0.00  0.00    +0.141 A 
ATOM     15  N   UNL     1      -2.916  -9.877  12.248  0.00  0.00    -0.127 NA
ATOM     16  N   UNL     1      -3.711 -10.063  12.126  0.00  0.00    -0.064 NA
BRANCH  14  17
ATOM     17  C   UNL     1      -1.784  -9.531  11.376  0.00  0.00    +0.102 A 
ATOM     18  N   UNL     1      -1.181  -9.925  11.779  0.00  0.00    -0.242 NA
ATOM     19  C   UNL     1      -0.393  -9.721  11.643  0.00  0.00    +0.099 A 
ATOM     20  C   UNL     1      -0.208  -9.124  11.106  0.00  0.00    +0.021 A 
ATOM     21  C   UNL     1      -0.812  -8.730  10.703  0.00  0.00    +0.003 A 
ATOM     22  C   UNL     1      -1.599  -8.934  10.839  0.00  0.00    +0.021 A 
ENDBRANCH  14  17
ENDBRANCH   8  12
BRANCH   4   3
ATOM      1  O   UNL     1      -7.382  -8.456   9.970  0.00  0.00    -0.249 OA
ATOM      2  C   UNL     1      -7.697  -9.219   9.973  0.00  0.00    +0.344 C 
ATOM      3  N   UNL     1      -7.288  -9.832  10.344  0.00  0.00    -0.184 NA
ATOM     23  N   UNL     1      -8.420  -9.368   9.606  0.00  0.00    -0.161 NA
BRANCH  23  24
ATOM     24  C   UNL     1      -8.829  -8.755   9.235  0.00  0.00    +0.075 A 
ATOM     25  C   UNL     1      -8.567  -8.462   8.510  0.00  0.00    +0.020 A 
ATOM     26  C   UNL     1      -8.976  -7.849   8.139  0.00  0.00    +0.039 A 
ATOM     27  C   UNL     1      -9.648  -7.529   8.494  0.00  0.00    +0.145 A 
ATOM     35  C   UNL     1      -9.912  -7.822   9.219  0.00  0.00    +0.039 A 
ATOM     36  C   UNL     1      -9.502  -8.435   9.589  0.00  0.00    +0.020 A 
BRANCH  27  28
ATOM     28  O   UNL     1     -10.058  -6.916   8.124  0.00  0.00    -0.453 OA
BRANCH  28  29
ATOM     29  C   UNL     1      -9.959  -6.139   8.381  0.00  0.00    +0.145 A 
ATOM     30  C   UNL     1     -10.549  -5.775   8.829  0.00  0.00    +0.037 A 
ATOM     31  C   UNL     1     -10.451  -4.997   9.087  0.00  0.00    +0.003 A 
ATOM     32  C   UNL     1      -9.762  -4.584   8.897  0.00  0.00    +0.000 A 
ATOM     33  C   UNL     1      -9.172  -4.948   8.450  0.00  0.00    +0.003 A 
ATOM     34  C   UNL     1      -9.271  -5.726   8.192  0.00  0.00    +0.037 A 
ENDBRANCH  28  29
ENDBRANCH  27  28
ENDBRANCH  23  24
ENDBRANCH   4   3
TORSDOF 6
ENDMDL
MODEL 10
REMARK VINA RESULT:      -6.1     17.040     18.926
REMARK  Name = 
REMARK  6 active torsions:
REMARK  status: ('A' for Active; 'I' for Inactive)
REMARK    1  A    between atoms: N_3  and  C_4
REMARK    2  A    between atoms: C_8  and  N_12
REMARK    3  A    between atoms: C_14  and  C_17
REMARK    4  A    between atoms: N_23  and  C_24
REMARK    5  A    between atoms: C_27  and  O_28
REMARK    6  A    between atoms: O_28  and  C_29
REMARK                            x       y       z     vdW  Elec       q    Type
REMARK                         _______ _______ _______ _____ _____    ______ ____
ROOT
ATOM      4  C   UNL     1      16.897  -7.132  25.842  0.00  0.00    +0.156 C 
ATOM      5  C   UNL     1      16.649  -6.595  26.417  0.00  0.00    +0.166 C 
ATOM      6  O   UNL     1      16.688  -5.838  26.092  0.00  0.00    -0.350 OA
ATOM      7  C   UNL     1      16.961  -5.906  25.318  0.00  0.00    +0.169 C 
ATOM      8  C   UNL     1      17.155  -5.481  24.637  0.00  0.00    +0.166 C 
ATOM      9  C   UNL     1      17.404  -6.018  24.063  0.00  0.00    +0.169 C 
ATOM     10  O   UNL     1      17.364  -6.775  24.387  0.00  0.00    -0.350 OA
ATOM     11  C   UNL     1      17.090  -6.706  25.163  0.00  0.00    +0.167 C 
ENDROOT
BRANCH   8  12
ATOM     12  N   UNL     1      17.108  -4.662  24.548  0.00  0.00    -0.227 N 
ATOM     13  C   UNL     1      16.754  -4.262  23.919  0.00  0.00    +0.119 A 
ATOM     14  C   UNL     1      16.834  -3.452  24.055  0.00  0.00    +0.141 A 
ATOM     15  N   UNL     1      17.236  -3.352  24.767  0.00  0.00    -0.127 NA
ATOM     16  N   UNL     1      17.405  -4.099  25.072  0.00  0.00    -0.064 NA
BRANCH  14  17
ATOM     17  C   UNL     1      16.560  -2.849  23.563  0.00  0.00    +0.102 A 
ATOM     18  N   UNL     1      17.042  -2.200  23.398  0.00  0.00    -0.242 NA
ATOM     19  C   UNL     1      16.767  -1.597  22.907  0.00  0.00    +0.099 A 
ATOM     20  C   UNL     1      16.011  -1.642  22.581  0.00  0.00    +0.021 A 
ATOM     21  C   UNL     1      15.529  -2.291  22.746  0.00  0.00    +0.003 A 
ATOM     22  C   UNL     1      15.803  -2.894  23.237  0.00  0.00    +0.021 A 
ENDBRANCH  14  17
ENDBRANCH   8  12
BRANCH   4   3
ATOM      1  O   UNL     1      16.118  -7.871  27.095  0.00  0.00    -0.249 OA
ATOM      2  C   UNL     1      16.555  -8.321  26.557  0.00  0.00    +0.344 C 
ATOM      3  N   UNL     1      16.944  -7.951  25.931  0.00  0.00    -0.184 NA
ATOM     23  N   UNL     1      16.602  -9.139  26.647  0.00  0.00    -0.161 NA
BRANCH  23  24
ATOM     24  C   UNL     1      16.213  -9.510  27.273  0.00  0.00    +0.075 A 
ATOM     25  C   UNL     1      16.564  -9.538  28.018  0.00  0.00    +0.020 A 
ATOM     26  C   UNL     1      16.174  -9.909  28.644  0.00  0.00    +0.039 A 
ATOM     27  C   UNL     1      15.433 -10.250  28.525  0.00  0.00    +0.145 A 
ATOM     35  C   UNL     1      15.081 -10.222  27.778  0.00  0.00    +0.039 A 
ATOM     36  C   UNL     1      15.471  -9.851  27.153  0.00  0.00    +0.020 A 
BRANCH  27  28
ATOM     28  O   UNL     1      15.043 -10.621  29.150  0.00  0.00    -0.453 OA
BRANCH  28  29
ATOM     29  C   UNL     1      14.511 -10.195  29.615  0.00  0.00    +0.145 A 
ATOM     30  C   UNL     1      13.701 -10.340  29.553  0.00  0.00    +0.037 A 
ATOM     31  C   UNL     1      13.169  -9.914  30.018  0.00  0.00    +0.003 A 
ATOM     32  C   UNL     1      13.448  -9.343  30.545  0.00  0.00    +0.000 A 
ATOM     33  C   UNL     1      14.257  -9.198  30.607  0.00  0.00    +0.003 A 
ATOM     34  C   UNL     1      14.789  -9.625  30.142  0.00  0.00    +0.037 A 
ENDBRANCH  28  29
ENDBRANCH  27  28
ENDBRANCH  23  24
ENDBRANCH   4   3
TORSDOF 6
ENDMDL
