REMARK  Name = 
REMARK  7 active torsions:
REMARK  status: ('A' for Active; 'I' for Inactive)
REMARK    1  A    between atoms: C_2  and  C_4
REMARK    2  A    between atoms: C_4  and  C_5
REMARK    3  A    between atoms: C_10  and  C_11
REMARK    4  A    between atoms: C_11  and  C_12
REMARK    5  A    between atoms: C_12  and  N_13
REMARK    6  A    between atoms: N_16  and  C_19
REMARK    7  A    between atoms: C_26  and  C_28
REMARK                            x       y       z     vdW  Elec       q    Type
REMARK                         _______ _______ _______ _____ _____    ______ ____
ROOT
ATOM      5  C   UNL     1      -4.895  -3.072   0.000  0.00  0.00    +0.015 C 
ATOM      6  C   UNL     1      -4.180  -2.660   0.000  0.00  0.00    +0.022 C 
ATOM      7  C   UNL     1      -3.466  -3.072   0.000  0.00  0.00    +0.093 C 
ATOM      8  N   UNL     1      -3.466  -3.897   0.000  0.00  0.00    -0.280 N 
ATOM      9  C   UNL     1      -4.180  -4.310   0.000  0.00  0.00    +0.093 C 
ATOM     10  C   UNL     1      -4.895  -3.897   0.000  0.00  0.00    +0.022 C 
ATOM     26  C   UNL     1      -2.751  -4.310   0.000  0.00  0.00    +0.225 C 
ATOM     27  O   UNL     1      -2.037  -3.897   0.000  0.00  0.00    -0.275 OA
ENDROOT
BRANCH  26  28
ATOM     28  C   UNL     1      -2.751  -5.135   0.000  0.00  0.00    +0.077 C 
ATOM     29  C   UNL     1      -2.084  -5.620   0.000  0.00  0.00    +0.009 C 
ATOM     30  C   UNL     1      -2.339  -6.404   0.000  0.00  0.00    +0.001 C 
ATOM     31  C   UNL     1      -3.164  -6.404   0.000  0.00  0.00    +0.001 C 
ATOM     32  C   UNL     1      -3.419  -5.620   0.000  0.00  0.00    +0.009 C 
ENDBRANCH  26  28
BRANCH   5   4
ATOM      4  C   UNL     1      -5.609  -2.660   0.000  0.00  0.00    +0.114 C 
BRANCH   4   2
ATOM      1  O   UNL     1      -6.324  -1.422   0.000  0.00  0.00    -0.246 OA
ATOM      2  C   UNL     1      -5.609  -1.835   0.000  0.00  0.00    +0.365 C 
ATOM      3  O   UNL     1      -4.895  -1.422   0.000  0.00  0.00    -0.246 OA
ENDBRANCH   4   2
ENDBRANCH   5   4
BRANCH  10  11
ATOM     11  C   UNL     1      -5.609  -4.310   0.000  0.00  0.00    +0.019 C 
BRANCH  11  12
ATOM     12  C   UNL     1      -6.324  -3.897   0.000  0.00  0.00    +0.072 C 
BRANCH  12  13
ATOM     13  N   UNL     1      -7.038  -4.310   0.000  0.00  0.00    -0.270 NA
ATOM     14  C   UNL     1      -7.038  -5.135   0.000  0.00  0.00    +0.094 C 
ATOM     15  C   UNL     1      -7.753  -5.547   0.000  0.00  0.00    +0.108 C 
ATOM     16  N   UNL     1      -8.467  -5.135   0.000  0.00  0.00    -0.305 N 
ATOM     17  C   UNL     1      -8.467  -4.310   0.000  0.00  0.00    +0.108 C 
ATOM     18  C   UNL     1      -7.753  -3.897   0.000  0.00  0.00    +0.094 C 
BRANCH  16  19
ATOM     19  C   UNL     1      -9.181  -5.547   0.000  0.00  0.00    +0.048 A 
ATOM     20  C   UNL     1      -9.181  -6.372   0.000  0.00  0.00    +0.017 A 
ATOM     21  C   UNL     1      -9.896  -6.785   0.000  0.00  0.00    +0.031 A 
ATOM     22  C   UNL     1     -10.610  -6.372   0.000  0.00  0.00    +0.140 A 
ATOM     23  F   UNL     1     -11.325  -6.785   0.000  0.00  0.00    -0.204 F 
ATOM     24  C   UNL     1     -10.610  -5.547   0.000  0.00  0.00    +0.031 A 
ATOM     25  C   UNL     1      -9.896  -5.135   0.000  0.00  0.00    +0.017 A 
ENDBRANCH  16  19
ENDBRANCH  12  13
ENDBRANCH  11  12
ENDBRANCH  10  11
TORSDOF 7
