MODEL 1
REMARK VINA RESULT:      -8.3      0.000      0.000
REMARK  Name = 
REMARK  8 active torsions:
REMARK  status: ('A' for Active; 'I' for Inactive)
REMARK    1  A    between atoms: O_2  and  C_3
REMARK    2  A    between atoms: C_3  and  C_4
REMARK    3  A    between atoms: C_6  and  C_7
REMARK    4  A    between atoms: C_7  and  C_8
REMARK    5  A    between atoms: C_8  and  N_12
REMARK    6  A    between atoms: N_12  and  C_13
REMARK    7  A    between atoms: C_13  and  C_14
REMARK    8  A    between atoms: C_17  and  C_18
REMARK                            x       y       z     vdW  Elec       q    Type
REMARK                         _______ _______ _______ _____ _____    ______ ____
ROOT
ATOM      8  C   UNL     1      -4.900   2.174  24.984  0.00  0.00    +0.120 C 
ATOM      9  C   UNL     1      -5.326   2.664  25.494  0.00  0.00    +0.161 C 
ATOM     10  O   UNL     1      -6.029   2.310  25.245  0.00  0.00    -0.351 OA
ATOM     11  C   UNL     1      -5.603   1.820  24.736  0.00  0.00    +0.161 C 
ENDROOT
BRANCH   8   7
ATOM      7  C   UNL     1      -4.473   1.685  24.476  0.00  0.00    +0.070 C 
BRANCH   7   6
ATOM      4  C   UNL     1      -3.947  -0.378  24.628  0.00  0.00    +0.184 A 
ATOM      5  C   UNL     1      -3.997   0.323  24.195  0.00  0.00    +0.056 A 
ATOM      6  C   UNL     1      -4.325   0.901  24.684  0.00  0.00    +0.102 A 
ATOM     21  N   UNL     1      -4.477   0.557  25.419  0.00  0.00    -0.082 NA
ATOM     22  O   UNL     1      -4.244  -0.234  25.383  0.00  0.00    -0.356 OA
BRANCH   4   3
ATOM      3  C   UNL     1      -3.652  -1.098  24.351  0.00  0.00    +0.209 C 
BRANCH   3   2
ATOM      1  C   UNL     1      -3.793  -2.510  24.187  0.00  0.00    +0.175 C 
ATOM      2  O   UNL     1      -4.103  -1.785  24.430  0.00  0.00    -0.343 OA
ENDBRANCH   3   2
ENDBRANCH   4   3
ENDBRANCH   7   6
ENDBRANCH   8   7
BRANCH   8  12
ATOM     12  N   UNL     1      -4.197   2.529  25.233  0.00  0.00    -0.207 NA
BRANCH  12  13
ATOM     13  C   UNL     1      -4.105   3.347  25.176  0.00  0.00    +0.153 C 
BRANCH  13  14
ATOM     14  C   UNL     1      -3.393   3.697  25.398  0.00  0.00    +0.140 A 
ATOM     15  C   UNL     1      -3.178   3.918  26.163  0.00  0.00    +0.037 A 
ATOM     16  C   UNL     1      -2.421   4.246  26.132  0.00  0.00    +0.038 A 
ATOM     17  C   UNL     1      -2.169   4.229  25.347  0.00  0.00    +0.156 A 
ATOM     20  O   UNL     1      -2.769   3.889  24.893  0.00  0.00    -0.458 OA
BRANCH  17  18
ATOM     18  C   UNL     1      -1.444   4.502  25.065  0.00  0.00    +0.246 C 
ATOM     19  O   UNL     1      -1.268   5.309  25.092  0.00  0.00    -0.212 OA
ENDBRANCH  17  18
ENDBRANCH  13  14
ENDBRANCH  12  13
ENDBRANCH   8  12
TORSDOF 8
ENDMDL
MODEL 2
REMARK VINA RESULT:      -8.2      0.803      4.489
REMARK  Name = 
REMARK  8 active torsions:
REMARK  status: ('A' for Active; 'I' for Inactive)
REMARK    1  A    between atoms: O_2  and  C_3
REMARK    2  A    between atoms: C_3  and  C_4
REMARK    3  A    between atoms: C_6  and  C_7
REMARK    4  A    between atoms: C_7  and  C_8
REMARK    5  A    between atoms: C_8  and  N_12
REMARK    6  A    between atoms: N_12  and  C_13
REMARK    7  A    between atoms: C_13  and  C_14
REMARK    8  A    between atoms: C_17  and  C_18
REMARK                            x       y       z     vdW  Elec       q    Type
REMARK                         _______ _______ _______ _____ _____    ______ ____
ROOT
ATOM      8  C   UNL     1      -4.909   2.236  25.103  0.00  0.00    +0.120 C 
ATOM      9  C   UNL     1      -5.514   1.855  25.516  0.00  0.00    +0.161 C 
ATOM     10  O   UNL     1      -5.944   2.559  25.532  0.00  0.00    -0.351 OA
ATOM     11  C   UNL     1      -5.340   2.939  25.120  0.00  0.00    +0.161 C 
ENDROOT
BRANCH   8   7
ATOM      7  C   UNL     1      -4.304   2.616  24.691  0.00  0.00    +0.070 C 
BRANCH   7   6
ATOM      4  C   UNL     1      -2.661   3.768  25.418  0.00  0.00    +0.184 A 
ATOM      5  C   UNL     1      -2.998   3.271  24.852  0.00  0.00    +0.056 A 
ATOM      6  C   UNL     1      -3.768   3.095  25.093  0.00  0.00    +0.102 A 
ATOM     21  N   UNL     1      -3.906   3.485  25.808  0.00  0.00    -0.082 NA
ATOM     22  O   UNL     1      -3.221   3.901  26.008  0.00  0.00    -0.356 OA
BRANCH   4   3
ATOM      3  C   UNL     1      -1.897   4.079  25.396  0.00  0.00    +0.209 C 
BRANCH   3   2
ATOM      1  C   UNL     1      -1.005   5.124  25.003  0.00  0.00    +0.175 C 
ATOM      2  O   UNL     1      -1.774   4.850  25.129  0.00  0.00    -0.343 OA
ENDBRANCH   3   2
ENDBRANCH   4   3
ENDBRANCH   7   6
ENDBRANCH   8   7
BRANCH   8  12
ATOM     12  N   UNL     1      -4.478   1.532  25.087  0.00  0.00    -0.207 NA
BRANCH  12  13
ATOM     13  C   UNL     1      -4.846   0.828  24.860  0.00  0.00    +0.153 C 
BRANCH  13  14
ATOM     14  C   UNL     1      -4.406   0.133  24.803  0.00  0.00    +0.140 A 
ATOM     15  C   UNL     1      -4.165  -0.232  24.103  0.00  0.00    +0.037 A 
ATOM     16  C   UNL     1      -3.739  -0.910  24.303  0.00  0.00    +0.038 A 
ATOM     17  C   UNL     1      -3.718  -0.964  25.125  0.00  0.00    +0.156 A 
ATOM     20  O   UNL     1      -4.130  -0.319  25.435  0.00  0.00    -0.458 OA
BRANCH  17  18
ATOM     18  C   UNL     1      -3.349  -1.558  25.562  0.00  0.00    +0.246 C 
ATOM     19  O   UNL     1      -3.520  -2.351  25.407  0.00  0.00    -0.212 OA
ENDBRANCH  17  18
ENDBRANCH  13  14
ENDBRANCH  12  13
ENDBRANCH   8  12
TORSDOF 8
ENDMDL
MODEL 3
REMARK VINA RESULT:      -7.6      2.118      3.631
REMARK  Name = 
REMARK  8 active torsions:
REMARK  status: ('A' for Active; 'I' for Inactive)
REMARK    1  A    between atoms: O_2  and  C_3
REMARK    2  A    between atoms: C_3  and  C_4
REMARK    3  A    between atoms: C_6  and  C_7
REMARK    4  A    between atoms: C_7  and  C_8
REMARK    5  A    between atoms: C_8  and  N_12
REMARK    6  A    between atoms: N_12  and  C_13
REMARK    7  A    between atoms: C_13  and  C_14
REMARK    8  A    between atoms: C_17  and  C_18
REMARK                            x       y       z     vdW  Elec       q    Type
REMARK                         _______ _______ _______ _____ _____    ______ ____
ROOT
ATOM      8  C   UNL     1      -3.679  -1.246  24.589  0.00  0.00    +0.120 C 
ATOM      9  C   UNL     1      -4.283  -1.283  24.028  0.00  0.00    +0.161 C 
ATOM     10  O   UNL     1      -4.234  -2.106  24.031  0.00  0.00    -0.351 OA
ATOM     11  C   UNL     1      -3.631  -2.069  24.592  0.00  0.00    +0.161 C 
ENDROOT
BRANCH   8   7
ATOM      7  C   UNL     1      -3.076  -1.208  25.151  0.00  0.00    +0.070 C 
BRANCH   7   6
ATOM      4  C   UNL     1      -1.016  -1.119  24.600  0.00  0.00    +0.184 A 
ATOM      5  C   UNL     1      -1.717  -0.749  24.829  0.00  0.00    +0.056 A 
ATOM      6  C   UNL     1      -2.293  -1.333  24.925  0.00  0.00    +0.102 A 
ATOM     21  N   UNL     1      -1.947  -2.062  24.753  0.00  0.00    -0.082 NA
ATOM     22  O   UNL     1      -1.157  -1.929  24.553  0.00  0.00    -0.356 OA
BRANCH   4   3
ATOM      3  C   UNL     1      -0.298  -0.742  24.444  0.00  0.00    +0.209 C 
BRANCH   3   2
ATOM      1  C   UNL     1       0.624  -0.202  23.495  0.00  0.00    +0.175 C 
ATOM      2  O   UNL     1      -0.023  -0.685  23.668  0.00  0.00    -0.343 OA
ENDBRANCH   3   2
ENDBRANCH   4   3
ENDBRANCH   7   6
ENDBRANCH   8   7
BRANCH   8  12
ATOM     12  N   UNL     1      -3.728  -0.422  24.587  0.00  0.00    -0.207 NA
BRANCH  12  13
ATOM     13  C   UNL     1      -4.463  -0.052  24.651  0.00  0.00    +0.153 C 
BRANCH  13  14
ATOM     14  C   UNL     1      -4.509   0.770  24.692  0.00  0.00    +0.140 A 
ATOM     15  C   UNL     1      -4.921   1.205  25.259  0.00  0.00    +0.037 A 
ATOM     16  C   UNL     1      -4.817   2.006  25.092  0.00  0.00    +0.038 A 
ATOM     17  C   UNL     1      -4.341   2.067  24.422  0.00  0.00    +0.156 A 
ATOM     20  O   UNL     1      -4.150   1.303  24.174  0.00  0.00    -0.458 OA
BRANCH  17  18
ATOM     18  C   UNL     1      -4.097   2.768  24.062  0.00  0.00    +0.246 C 
ATOM     19  O   UNL     1      -4.101   3.474  24.489  0.00  0.00    -0.212 OA
ENDBRANCH  17  18
ENDBRANCH  13  14
ENDBRANCH  12  13
ENDBRANCH   8  12
TORSDOF 8
ENDMDL
MODEL 4
REMARK VINA RESULT:      -7.4      1.884      4.901
REMARK  Name = 
REMARK  8 active torsions:
REMARK  status: ('A' for Active; 'I' for Inactive)
REMARK    1  A    between atoms: O_2  and  C_3
REMARK    2  A    between atoms: C_3  and  C_4
REMARK    3  A    between atoms: C_6  and  C_7
REMARK    4  A    between atoms: C_7  and  C_8
REMARK    5  A    between atoms: C_8  and  N_12
REMARK    6  A    between atoms: N_12  and  C_13
REMARK    7  A    between atoms: C_13  and  C_14
REMARK    8  A    between atoms: C_17  and  C_18
REMARK                            x       y       z     vdW  Elec       q    Type
REMARK                         _______ _______ _______ _____ _____    ______ ____
ROOT
ATOM      8  C   UNL     1      -1.535   1.025  24.987  0.00  0.00    +0.120 C 
ATOM      9  C   UNL     1      -1.036   0.604  25.493  0.00  0.00    +0.161 C 
ATOM     10  O   UNL     1      -0.447   1.171  25.380  0.00  0.00    -0.351 OA
ATOM     11  C   UNL     1      -0.945   1.591  24.875  0.00  0.00    +0.161 C 
ENDROOT
BRANCH   8   7
ATOM      7  C   UNL     1      -2.034   1.445  24.482  0.00  0.00    +0.070 C 
BRANCH   7   6
ATOM      4  C   UNL     1      -3.457   2.951  24.995  0.00  0.00    +0.184 A 
ATOM      5  C   UNL     1      -3.253   2.260  24.592  0.00  0.00    +0.056 A 
ATOM      6  C   UNL     1      -2.464   2.088  24.767  0.00  0.00    +0.102 A 
ATOM     21  N   UNL     1      -2.183   2.673  25.278  0.00  0.00    -0.082 NA
ATOM     22  O   UNL     1      -2.797   3.206  25.418  0.00  0.00    -0.356 OA
BRANCH   4   3
ATOM      3  C   UNL     1      -4.195   3.322  24.976  0.00  0.00    +0.209 C 
BRANCH   3   2
ATOM      1  C   UNL     1      -5.473   3.560  25.568  0.00  0.00    +0.175 C 
ATOM      2  O   UNL     1      -4.719   3.226  25.606  0.00  0.00    -0.343 OA
ENDBRANCH   3   2
ENDBRANCH   4   3
ENDBRANCH   7   6
ENDBRANCH   8   7
BRANCH   8  12
ATOM     12  N   UNL     1      -2.125   0.459  25.100  0.00  0.00    -0.207 NA
BRANCH  12  13
ATOM     13  C   UNL     1      -1.930  -0.342  25.119  0.00  0.00    +0.153 C 
BRANCH  13  14
ATOM     14  C   UNL     1      -2.525  -0.912  25.098  0.00  0.00    +0.140 A 
ATOM     15  C   UNL     1      -2.995  -1.147  25.735  0.00  0.00    +0.037 A 
ATOM     16  C   UNL     1      -3.516  -1.728  25.468  0.00  0.00    +0.038 A 
ATOM     17  C   UNL     1      -3.369  -1.852  24.667  0.00  0.00    +0.156 A 
ATOM     20  O   UNL     1      -2.757  -1.349  24.437  0.00  0.00    -0.458 OA
BRANCH  17  18
ATOM     18  C   UNL     1      -3.765  -2.387  24.178  0.00  0.00    +0.246 C 
ATOM     19  O   UNL     1      -4.429  -2.144  23.753  0.00  0.00    -0.212 OA
ENDBRANCH  17  18
ENDBRANCH  13  14
ENDBRANCH  12  13
ENDBRANCH   8  12
TORSDOF 8
ENDMDL
MODEL 5
REMARK VINA RESULT:      -7.3      2.069      3.478
REMARK  Name = 
REMARK  8 active torsions:
REMARK  status: ('A' for Active; 'I' for Inactive)
REMARK    1  A    between atoms: O_2  and  C_3
REMARK    2  A    between atoms: C_3  and  C_4
REMARK    3  A    between atoms: C_6  and  C_7
REMARK    4  A    between atoms: C_7  and  C_8
REMARK    5  A    between atoms: C_8  and  N_12
REMARK    6  A    between atoms: N_12  and  C_13
REMARK    7  A    between atoms: C_13  and  C_14
REMARK    8  A    between atoms: C_17  and  C_18
REMARK                            x       y       z     vdW  Elec       q    Type
REMARK                         _______ _______ _______ _____ _____    ______ ____
ROOT
ATOM      8  C   UNL     1      -2.863  -0.224  24.940  0.00  0.00    +0.120 C 
ATOM      9  C   UNL     1      -2.414  -0.710  25.433  0.00  0.00    +0.161 C 
ATOM     10  O   UNL     1      -2.942  -1.330  25.300  0.00  0.00    -0.351 OA
ATOM     11  C   UNL     1      -3.391  -0.844  24.807  0.00  0.00    +0.161 C 
ENDROOT
BRANCH   8   7
ATOM      7  C   UNL     1      -3.311   0.263  24.447  0.00  0.00    +0.070 C 
BRANCH   7   6
ATOM      4  C   UNL     1      -4.870   1.615  24.992  0.00  0.00    +0.184 A 
ATOM      5  C   UNL     1      -4.181   1.441  24.573  0.00  0.00    +0.056 A 
ATOM      6  C   UNL     1      -3.966   0.663  24.746  0.00  0.00    +0.102 A 
ATOM     21  N   UNL     1      -4.524   0.357  25.273  0.00  0.00    -0.082 NA
ATOM     22  O   UNL     1      -5.082   0.946  25.424  0.00  0.00    -0.356 OA
BRANCH   4   3
ATOM      3  C   UNL     1      -5.276   2.333  24.980  0.00  0.00    +0.209 C 
BRANCH   3   2
ATOM      1  C   UNL     1      -5.515   3.628  25.535  0.00  0.00    +0.175 C 
ATOM      2  O   UNL     1      -5.129   2.899  25.563  0.00  0.00    -0.343 OA
ENDBRANCH   3   2
ENDBRANCH   4   3
ENDBRANCH   7   6
ENDBRANCH   8   7
BRANCH   8  12
ATOM     12  N   UNL     1      -2.335   0.397  25.072  0.00  0.00    -0.207 NA
BRANCH  12  13
ATOM     13  C   UNL     1      -1.522   0.266  25.016  0.00  0.00    +0.153 C 
BRANCH  13  14
ATOM     14  C   UNL     1      -0.997   0.895  25.105  0.00  0.00    +0.140 A 
ATOM     15  C   UNL     1      -0.439   1.143  24.550  0.00  0.00    +0.037 A 
ATOM     16  C   UNL     1      -0.033   1.788  24.866  0.00  0.00    +0.038 A 
ATOM     17  C   UNL     1      -0.340   1.939  25.617  0.00  0.00    +0.156 A 
ATOM     20  O   UNL     1      -0.936   1.387  25.765  0.00  0.00    -0.458 OA
BRANCH  17  18
ATOM     18  C   UNL     1      -0.095   2.536  26.130  0.00  0.00    +0.246 C 
ATOM     19  O   UNL     1       0.689   2.564  26.386  0.00  0.00    -0.212 OA
ENDBRANCH  17  18
ENDBRANCH  13  14
ENDBRANCH  12  13
ENDBRANCH   8  12
TORSDOF 8
ENDMDL
MODEL 6
REMARK VINA RESULT:      -7.2      2.245      3.345
REMARK  Name = 
REMARK  8 active torsions:
REMARK  status: ('A' for Active; 'I' for Inactive)
REMARK    1  A    between atoms: O_2  and  C_3
REMARK    2  A    between atoms: C_3  and  C_4
REMARK    3  A    between atoms: C_6  and  C_7
REMARK    4  A    between atoms: C_7  and  C_8
REMARK    5  A    between atoms: C_8  and  N_12
REMARK    6  A    between atoms: N_12  and  C_13
REMARK    7  A    between atoms: C_13  and  C_14
REMARK    8  A    between atoms: C_17  and  C_18
REMARK                            x       y       z     vdW  Elec       q    Type
REMARK                         _______ _______ _______ _____ _____    ______ ____
ROOT
ATOM      8  C   UNL     1      -0.953   2.253  25.352  0.00  0.00    +0.120 C 
ATOM      9  C   UNL     1      -0.928   2.862  25.908  0.00  0.00    +0.161 C 
ATOM     10  O   UNL     1      -0.113   2.754  25.987  0.00  0.00    -0.351 OA
ATOM     11  C   UNL     1      -0.139   2.146  25.431  0.00  0.00    +0.161 C 
ENDROOT
BRANCH   8   7
ATOM      7  C   UNL     1      -0.980   1.644  24.796  0.00  0.00    +0.070 C 
BRANCH   7   6
ATOM      4  C   UNL     1      -1.058  -0.476  25.034  0.00  0.00    +0.184 A 
ATOM      5  C   UNL     1      -1.025   0.194  24.553  0.00  0.00    +0.056 A 
ATOM      6  C   UNL     1      -1.012   0.859  25.044  0.00  0.00    +0.102 A 
ATOM     21  N   UNL     1      -1.036   0.597  25.827  0.00  0.00    -0.082 NA
ATOM     22  O   UNL     1      -1.065  -0.228  25.820  0.00  0.00    -0.356 OA
BRANCH   4   3
ATOM      3  C   UNL     1      -1.080  -1.258  24.772  0.00  0.00    +0.209 C 
BRANCH   3   2
ATOM      1  C   UNL     1      -1.825  -2.431  24.440  0.00  0.00    +0.175 C 
ATOM      2  O   UNL     1      -1.804  -1.648  24.698  0.00  0.00    -0.343 OA
ENDBRANCH   3   2
ENDBRANCH   4   3
ENDBRANCH   7   6
ENDBRANCH   8   7
BRANCH   8  12
ATOM     12  N   UNL     1      -1.768   2.360  25.273  0.00  0.00    -0.207 NA
BRANCH  12  13
ATOM     13  C   UNL     1      -2.069   3.102  25.077  0.00  0.00    +0.153 C 
BRANCH  13  14
ATOM     14  C   UNL     1      -2.881   3.202  24.968  0.00  0.00    +0.140 A 
ATOM     15  C   UNL     1      -3.265   3.291  24.243  0.00  0.00    +0.037 A 
ATOM     16  C   UNL     1      -4.073   3.375  24.392  0.00  0.00    +0.038 A 
ATOM     17  C   UNL     1      -4.187   3.338  25.207  0.00  0.00    +0.156 A 
ATOM     20  O   UNL     1      -3.450   3.232  25.564  0.00  0.00    -0.458 OA
BRANCH  17  18
ATOM     18  C   UNL     1      -4.911   3.397  25.599  0.00  0.00    +0.246 C 
ATOM     19  O   UNL     1      -5.496   2.829  25.472  0.00  0.00    -0.212 OA
ENDBRANCH  17  18
ENDBRANCH  13  14
ENDBRANCH  12  13
ENDBRANCH   8  12
TORSDOF 8
ENDMDL
