MODEL 1
REMARK VINA RESULT:      -8.4      0.000      0.000
REMARK  Name = 
REMARK  6 active torsions:
REMARK  status: ('A' for Active; 'I' for Inactive)
REMARK    1  A    between atoms: C_2  and  C_3
REMARK    2  A    between atoms: C_8  and  C_9
REMARK    3  A    between atoms: C_9  and  C_10
REMARK    4  A    between atoms: C_15  and  C_18
REMARK    5  A    between atoms: C_18  and  O_20
REMARK    6  A    between atoms: N_24  and  C_25
REMARK                            x       y       z     vdW  Elec       q    Type
REMARK                         _______ _______ _______ _____ _____    ______ ____
ROOT
ATOM      3  C   UNL     1      -2.919   0.504  24.881  0.00  0.00    +0.020 C 
ATOM      4  C   UNL     1      -3.648   0.870  25.004  0.00  0.00    +0.095 C 
ATOM      5  N   UNL     1      -3.743   1.669  24.828  0.00  0.00    -0.263 N 
ATOM      6  C   UNL     1      -3.109   2.104  24.528  0.00  0.00    +0.095 C 
ATOM      7  C   UNL     1      -2.380   1.737  24.405  0.00  0.00    +0.022 C 
ATOM      8  C   UNL     1      -2.286   0.938  24.581  0.00  0.00    +0.012 C 
ATOM     22  C   UNL     1      -4.472   2.036  24.951  0.00  0.00    +0.323 C 
ATOM     23  O   UNL     1      -4.567   2.836  24.774  0.00  0.00    -0.251 OA
ATOM     24  N   UNL     1      -5.106   1.601  25.250  0.00  0.00    -0.190 NA
ENDROOT
BRANCH  24  25
ATOM     25  C   UNL     1      -5.836   1.968  25.374  0.00  0.00    +0.097 C 
ATOM     26  C   UNL     1      -6.407   1.958  24.779  0.00  0.00    +0.023 C 
ATOM     27  C   UNL     1      -5.993   2.344  26.091  0.00  0.00    +0.023 C 
ENDBRANCH  24  25
BRANCH   3   2
ATOM      1  C   UNL     1      -3.483  -0.791  25.094  0.00  0.00    +0.000 C 
ATOM      2  C   UNL     1      -2.825  -0.297  25.058  0.00  0.00    +0.002 C 
ENDBRANCH   3   2
BRANCH   8   9
ATOM      9  C   UNL     1      -1.556   0.572  24.458  0.00  0.00    +0.085 C 
BRANCH   9  10
ATOM     10  C   UNL     1      -0.862   1.018  24.477  0.00  0.00    +0.226 C 
ATOM     11  O   UNL     1      -0.819   1.695  24.945  0.00  0.00    -0.275 OA
ATOM     12  N   UNL     1      -0.211   0.786  24.025  0.00  0.00    -0.280 N 
ATOM     13  C   UNL     1       0.482   1.233  24.044  0.00  0.00    +0.094 C 
ATOM     14  C   UNL     1       1.134   1.001  23.593  0.00  0.00    +0.033 C 
ATOM     15  C   UNL     1       1.091   0.324  23.123  0.00  0.00    +0.102 C 
ATOM     16  C   UNL     1       0.396  -0.122  23.106  0.00  0.00    +0.033 C 
ATOM     17  C   UNL     1      -0.254   0.109  23.556  0.00  0.00    +0.094 C 
BRANCH  15  18
ATOM     18  C   UNL     1       1.741   0.093  22.673  0.00  0.00    +0.317 C 
ATOM     19  O   UNL     1       1.629  -0.284  21.948  0.00  0.00    -0.250 OA
BRANCH  18  20
ATOM     20  O   UNL     1       2.506   0.239  22.947  0.00  0.00    -0.444 OA
ATOM     21  C   UNL     1       3.155   0.096  22.457  0.00  0.00    +0.256 C 
ENDBRANCH  18  20
ENDBRANCH  15  18
ENDBRANCH   9  10
ENDBRANCH   8   9
TORSDOF 6
ENDMDL
MODEL 2
REMARK VINA RESULT:      -8.2      2.694      4.246
REMARK  Name = 
REMARK  6 active torsions:
REMARK  status: ('A' for Active; 'I' for Inactive)
REMARK    1  A    between atoms: C_2  and  C_3
REMARK    2  A    between atoms: C_8  and  C_9
REMARK    3  A    between atoms: C_9  and  C_10
REMARK    4  A    between atoms: C_15  and  C_18
REMARK    5  A    between atoms: C_18  and  O_20
REMARK    6  A    between atoms: N_24  and  C_25
REMARK                            x       y       z     vdW  Elec       q    Type
REMARK                         _______ _______ _______ _____ _____    ______ ____
ROOT
ATOM      3  C   UNL     1      -3.334   0.328  24.890  0.00  0.00    +0.020 C 
ATOM      4  C   UNL     1      -3.430  -0.480  24.755  0.00  0.00    +0.095 C 
ATOM      5  N   UNL     1      -2.775  -0.953  24.594  0.00  0.00    -0.263 N 
ATOM      6  C   UNL     1      -2.021  -0.619  24.569  0.00  0.00    +0.095 C 
ATOM      7  C   UNL     1      -1.924   0.189  24.705  0.00  0.00    +0.022 C 
ATOM      8  C   UNL     1      -2.580   0.662  24.865  0.00  0.00    +0.012 C 
ATOM     22  C   UNL     1      -2.872  -1.761  24.459  0.00  0.00    +0.323 C 
ATOM     23  O   UNL     1      -2.216  -2.235  24.298  0.00  0.00    -0.251 OA
ATOM     24  N   UNL     1      -3.626  -2.095  24.484  0.00  0.00    -0.190 NA
ENDROOT
BRANCH  24  25
ATOM     25  C   UNL     1      -3.723  -2.904  24.348  0.00  0.00    +0.097 C 
ATOM     26  C   UNL     1      -4.104  -3.164  23.664  0.00  0.00    +0.023 C 
ATOM     27  C   UNL     1      -3.440  -3.451  24.896  0.00  0.00    +0.023 C 
ENDBRANCH  24  25
BRANCH   3   2
ATOM      1  C   UNL     1      -4.733   0.586  24.766  0.00  0.00    +0.000 C 
ATOM      2  C   UNL     1      -3.990   0.801  25.051  0.00  0.00    +0.002 C 
ENDBRANCH   3   2
BRANCH   8   9
ATOM      9  C   UNL     1      -2.483   1.471  25.000  0.00  0.00    +0.085 C 
BRANCH   9  10
ATOM     10  C   UNL     1      -1.756   1.760  25.266  0.00  0.00    +0.226 C 
ATOM     11  O   UNL     1      -1.204   1.246  25.597  0.00  0.00    -0.275 OA
ATOM     12  N   UNL     1      -1.584   2.564  25.200  0.00  0.00    -0.280 N 
ATOM     13  C   UNL     1      -0.859   2.853  25.465  0.00  0.00    +0.094 C 
ATOM     14  C   UNL     1      -0.686   3.657  25.399  0.00  0.00    +0.033 C 
ATOM     15  C   UNL     1      -1.239   4.172  25.068  0.00  0.00    +0.102 C 
ATOM     16  C   UNL     1      -1.965   3.882  24.803  0.00  0.00    +0.033 C 
ATOM     17  C   UNL     1      -2.137   3.079  24.869  0.00  0.00    +0.094 C 
BRANCH  15  18
ATOM     18  C   UNL     1      -1.067   4.976  25.002  0.00  0.00    +0.317 C 
ATOM     19  O   UNL     1      -0.352   5.219  24.670  0.00  0.00    -0.250 OA
BRANCH  18  20
ATOM     20  O   UNL     1      -1.610   5.538  25.269  0.00  0.00    -0.444 OA
ATOM     21  C   UNL     1      -1.581   6.309  24.978  0.00  0.00    +0.256 C 
ENDBRANCH  18  20
ENDBRANCH  15  18
ENDBRANCH   9  10
ENDBRANCH   8   9
TORSDOF 6
ENDMDL
MODEL 3
REMARK VINA RESULT:      -8.0      2.799      4.412
REMARK  Name = 
REMARK  6 active torsions:
REMARK  status: ('A' for Active; 'I' for Inactive)
REMARK    1  A    between atoms: C_2  and  C_3
REMARK    2  A    between atoms: C_8  and  C_9
REMARK    3  A    between atoms: C_9  and  C_10
REMARK    4  A    between atoms: C_15  and  C_18
REMARK    5  A    between atoms: C_18  and  O_20
REMARK    6  A    between atoms: N_24  and  C_25
REMARK                            x       y       z     vdW  Elec       q    Type
REMARK                         _______ _______ _______ _____ _____    ______ ____
ROOT
ATOM      3  C   UNL     1      -2.688   2.302  24.383  0.00  0.00    +0.020 C 
ATOM      4  C   UNL     1      -2.353   3.044  24.517  0.00  0.00    +0.095 C 
ATOM      5  N   UNL     1      -1.695   3.116  25.007  0.00  0.00    -0.263 N 
ATOM      6  C   UNL     1      -1.369   2.447  25.364  0.00  0.00    +0.095 C 
ATOM      7  C   UNL     1      -1.705   1.705  25.229  0.00  0.00    +0.022 C 
ATOM      8  C   UNL     1      -2.363   1.633  24.739  0.00  0.00    +0.012 C 
ATOM     22  C   UNL     1      -1.360   3.859  25.142  0.00  0.00    +0.323 C 
ATOM     23  O   UNL     1      -0.700   3.931  25.632  0.00  0.00    -0.251 OA
ATOM     24  N   UNL     1      -1.685   4.528  24.785  0.00  0.00    -0.190 NA
ENDROOT
BRANCH  24  25
ATOM     25  C   UNL     1      -1.350   5.270  24.920  0.00  0.00    +0.097 C 
ATOM     26  C   UNL     1      -0.573   5.420  24.685  0.00  0.00    +0.023 C 
ATOM     27  C   UNL     1      -1.791   5.862  25.288  0.00  0.00    +0.023 C 
ENDBRANCH  24  25
BRANCH   3   2
ATOM      1  C   UNL     1      -3.823   2.886  23.741  0.00  0.00    +0.000 C 
ATOM      2  C   UNL     1      -3.348   2.230  23.892  0.00  0.00    +0.002 C 
ENDBRANCH   3   2
BRANCH   8   9
ATOM      9  C   UNL     1      -2.698   0.890  24.605  0.00  0.00    +0.085 C 
BRANCH   9  10
ATOM     10  C   UNL     1      -2.222   0.216  24.609  0.00  0.00    +0.226 C 
ATOM     11  O   UNL     1      -1.402   0.291  24.635  0.00  0.00    -0.275 OA
ATOM     12  N   UNL     1      -2.568  -0.533  24.588  0.00  0.00    -0.280 N 
ATOM     13  C   UNL     1      -2.092  -1.206  24.592  0.00  0.00    +0.094 C 
ATOM     14  C   UNL     1      -2.438  -1.955  24.571  0.00  0.00    +0.033 C 
ATOM     15  C   UNL     1      -3.259  -2.030  24.544  0.00  0.00    +0.102 C 
ATOM     16  C   UNL     1      -3.734  -1.356  24.540  0.00  0.00    +0.033 C 
ATOM     17  C   UNL     1      -3.389  -0.607  24.561  0.00  0.00    +0.094 C 
BRANCH  15  18
ATOM     18  C   UNL     1      -3.604  -2.779  24.523  0.00  0.00    +0.317 C 
ATOM     19  O   UNL     1      -3.561  -3.273  25.183  0.00  0.00    -0.250 OA
BRANCH  18  20
ATOM     20  O   UNL     1      -3.992  -3.035  23.840  0.00  0.00    -0.444 OA
ATOM     21  C   UNL     1      -4.385  -3.760  23.838  0.00  0.00    +0.256 C 
ENDBRANCH  18  20
ENDBRANCH  15  18
ENDBRANCH   9  10
ENDBRANCH   8   9
TORSDOF 6
ENDMDL
MODEL 4
REMARK VINA RESULT:      -7.2      1.037      5.988
REMARK  Name = 
REMARK  6 active torsions:
REMARK  status: ('A' for Active; 'I' for Inactive)
REMARK    1  A    between atoms: C_2  and  C_3
REMARK    2  A    between atoms: C_8  and  C_9
REMARK    3  A    between atoms: C_9  and  C_10
REMARK    4  A    between atoms: C_15  and  C_18
REMARK    5  A    between atoms: C_18  and  O_20
REMARK    6  A    between atoms: N_24  and  C_25
REMARK                            x       y       z     vdW  Elec       q    Type
REMARK                         _______ _______ _______ _____ _____    ______ ____
ROOT
ATOM      3  C   UNL     1      -0.197   1.328  24.244  0.00  0.00    +0.020 C 
ATOM      4  C   UNL     1       0.483   1.080  23.849  0.00  0.00    +0.095 C 
ATOM      5  N   UNL     1       0.500   0.343  23.480  0.00  0.00    -0.263 N 
ATOM      6  C   UNL     1      -0.163  -0.147  23.505  0.00  0.00    +0.095 C 
ATOM      7  C   UNL     1      -0.843   0.102  23.900  0.00  0.00    +0.022 C 
ATOM      8  C   UNL     1      -0.860   0.839  24.269  0.00  0.00    +0.012 C 
ATOM     22  C   UNL     1       1.181   0.094  23.085  0.00  0.00    +0.323 C 
ATOM     23  O   UNL     1       1.198  -0.643  22.716  0.00  0.00    -0.251 OA
ATOM     24  N   UNL     1       1.844   0.584  23.060  0.00  0.00    -0.190 NA
ENDROOT
BRANCH  24  25
ATOM     25  C   UNL     1       2.525   0.335  22.665  0.00  0.00    +0.097 C 
ATOM     26  C   UNL     1       3.259   0.385  23.038  0.00  0.00    +0.023 C 
ATOM     27  C   UNL     1       2.472   0.037  21.897  0.00  0.00    +0.023 C 
ENDBRANCH  24  25
BRANCH   3   2
ATOM      1  C   UNL     1       0.181   2.705  24.274  0.00  0.00    +0.000 C 
ATOM      2  C   UNL     1      -0.214   2.066  24.613  0.00  0.00    +0.002 C 
ENDBRANCH   3   2
BRANCH   8   9
ATOM      9  C   UNL     1      -1.541   1.087  24.664  0.00  0.00    +0.085 C 
BRANCH   9  10
ATOM     10  C   UNL     1      -2.166   0.560  24.782  0.00  0.00    +0.226 C 
ATOM     11  O   UNL     1      -2.020  -0.250  24.815  0.00  0.00    -0.275 OA
ATOM     12  N   UNL     1      -2.935   0.845  24.867  0.00  0.00    -0.280 N 
ATOM     13  C   UNL     1      -3.558   0.318  24.985  0.00  0.00    +0.094 C 
ATOM     14  C   UNL     1      -4.328   0.602  25.070  0.00  0.00    +0.033 C 
ATOM     15  C   UNL     1      -4.475   1.414  25.036  0.00  0.00    +0.102 C 
ATOM     16  C   UNL     1      -3.850   1.940  24.918  0.00  0.00    +0.033 C 
ATOM     17  C   UNL     1      -3.081   1.656  24.833  0.00  0.00    +0.094 C 
BRANCH  15  18
ATOM     18  C   UNL     1      -5.244   1.698  25.121  0.00  0.00    +0.317 C 
ATOM     19  O   UNL     1      -5.786   1.612  24.505  0.00  0.00    -0.250 OA
BRANCH  18  20
ATOM     20  O   UNL     1      -5.472   2.068  25.823  0.00  0.00    -0.444 OA
ATOM     21  C   UNL     1      -6.218   2.416  25.882  0.00  0.00    +0.256 C 
ENDBRANCH  18  20
ENDBRANCH  15  18
ENDBRANCH   9  10
ENDBRANCH   8   9
TORSDOF 6
ENDMDL
MODEL 5
REMARK VINA RESULT:      -6.1     14.899     16.332
REMARK  Name = 
REMARK  6 active torsions:
REMARK  status: ('A' for Active; 'I' for Inactive)
REMARK    1  A    between atoms: C_2  and  C_3
REMARK    2  A    between atoms: C_8  and  C_9
REMARK    3  A    between atoms: C_9  and  C_10
REMARK    4  A    between atoms: C_15  and  C_18
REMARK    5  A    between atoms: C_18  and  O_20
REMARK    6  A    between atoms: N_24  and  C_25
REMARK                            x       y       z     vdW  Elec       q    Type
REMARK                         _______ _______ _______ _____ _____    ______ ____
ROOT
ATOM      3  C   UNL     1      -4.134 -10.417  12.855  0.00  0.00    +0.020 C 
ATOM      4  C   UNL     1      -4.127 -10.234  12.050  0.00  0.00    +0.095 C 
ATOM      5  N   UNL     1      -4.781  -9.870  11.705  0.00  0.00    -0.263 N 
ATOM      6  C   UNL     1      -5.442  -9.688  12.163  0.00  0.00    +0.095 C 
ATOM      7  C   UNL     1      -5.449  -9.872  12.967  0.00  0.00    +0.022 C 
ATOM      8  C   UNL     1      -4.795 -10.235  13.312  0.00  0.00    +0.012 C 
ATOM     22  C   UNL     1      -4.774  -9.687  10.900  0.00  0.00    +0.323 C 
ATOM     23  O   UNL     1      -5.428  -9.323  10.554  0.00  0.00    -0.251 OA
ATOM     24  N   UNL     1      -4.112  -9.869  10.442  0.00  0.00    -0.190 NA
ENDROOT
BRANCH  24  25
ATOM     25  C   UNL     1      -4.105  -9.686   9.637  0.00  0.00    +0.097 C 
ATOM     26  C   UNL     1      -3.900  -8.926   9.389  0.00  0.00    +0.023 C 
ATOM     27  C   UNL     1      -4.302 -10.262   9.081  0.00  0.00    +0.023 C 
ENDBRANCH  24  25
BRANCH   3   2
ATOM      1  C   UNL     1      -2.732 -10.691  12.865  0.00  0.00    +0.000 C 
ATOM      2  C   UNL     1      -3.479 -10.781  13.201  0.00  0.00    +0.002 C 
ENDBRANCH   3   2
BRANCH   8   9
ATOM      9  C   UNL     1      -4.802 -10.418  14.118  0.00  0.00    +0.085 C 
BRANCH   9  10
ATOM     10  C   UNL     1      -5.418 -10.148  14.597  0.00  0.00    +0.226 C 
ATOM     11  O   UNL     1      -6.066  -9.767  14.259  0.00  0.00    -0.275 OA
ATOM     12  N   UNL     1      -5.383 -10.259  15.413  0.00  0.00    -0.280 N 
ATOM     13  C   UNL     1      -5.998  -9.989  15.892  0.00  0.00    +0.094 C 
ATOM     14  C   UNL     1      -5.964 -10.100  16.709  0.00  0.00    +0.033 C 
ATOM     15  C   UNL     1      -5.315 -10.481  17.047  0.00  0.00    +0.102 C 
ATOM     16  C   UNL     1      -4.701 -10.751  16.567  0.00  0.00    +0.033 C 
ATOM     17  C   UNL     1      -4.734 -10.641  15.751  0.00  0.00    +0.094 C 
BRANCH  15  18
ATOM     18  C   UNL     1      -5.281 -10.592  17.863  0.00  0.00    +0.317 C 
ATOM     19  O   UNL     1      -4.562 -10.769  18.227  0.00  0.00    -0.250 OA
BRANCH  18  20
ATOM     20  O   UNL     1      -5.968 -10.526  18.317  0.00  0.00    -0.444 OA
ATOM     21  C   UNL     1      -5.937 -10.652  19.132  0.00  0.00    +0.256 C 
ENDBRANCH  18  20
ENDBRANCH  15  18
ENDBRANCH   9  10
ENDBRANCH   8   9
TORSDOF 6
ENDMDL
MODEL 6
REMARK VINA RESULT:      -6.0     13.540     14.067
REMARK  Name = 
REMARK  6 active torsions:
REMARK  status: ('A' for Active; 'I' for Inactive)
REMARK    1  A    between atoms: C_2  and  C_3
REMARK    2  A    between atoms: C_8  and  C_9
REMARK    3  A    between atoms: C_9  and  C_10
REMARK    4  A    between atoms: C_15  and  C_18
REMARK    5  A    between atoms: C_18  and  O_20
REMARK    6  A    between atoms: N_24  and  C_25
REMARK                            x       y       z     vdW  Elec       q    Type
REMARK                         _______ _______ _______ _____ _____    ______ ____
ROOT
ATOM      3  C   UNL     1      -6.981  -9.889  17.700  0.00  0.00    +0.020 C 
ATOM      4  C   UNL     1      -7.790  -9.749  17.769  0.00  0.00    +0.095 C 
ATOM      5  N   UNL     1      -8.245  -9.620  17.094  0.00  0.00    -0.263 N 
ATOM      6  C   UNL     1      -7.892  -9.632  16.349  0.00  0.00    +0.095 C 
ATOM      7  C   UNL     1      -7.082  -9.773  16.280  0.00  0.00    +0.022 C 
ATOM      8  C   UNL     1      -6.627  -9.902  16.955  0.00  0.00    +0.012 C 
ATOM     22  C   UNL     1      -9.056  -9.479  17.163  0.00  0.00    +0.323 C 
ATOM     23  O   UNL     1      -9.512  -9.350  16.487  0.00  0.00    -0.251 OA
ATOM     24  N   UNL     1      -9.410  -9.467  17.908  0.00  0.00    -0.190 NA
ENDROOT
BRANCH  24  25
ATOM     25  C   UNL     1     -10.220  -9.326  17.977  0.00  0.00    +0.097 C 
ATOM     26  C   UNL     1     -10.720  -9.921  18.254  0.00  0.00    +0.023 C 
ATOM     27  C   UNL     1     -10.530  -8.590  17.770  0.00  0.00    +0.023 C 
ENDBRANCH  24  25
BRANCH   3   2
ATOM      1  C   UNL     1      -6.890 -10.095  19.110  0.00  0.00    +0.000 C 
ATOM      2  C   UNL     1      -6.525 -10.018  18.375  0.00  0.00    +0.002 C 
ENDBRANCH   3   2
BRANCH   8   9
ATOM      9  C   UNL     1      -5.816 -10.043  16.885  0.00  0.00    +0.085 C 
BRANCH   9  10
ATOM     10  C   UNL     1      -5.495 -10.251  16.154  0.00  0.00    +0.226 C 
ATOM     11  O   UNL     1      -5.986 -10.343  15.499  0.00  0.00    -0.275 OA
ATOM     12  N   UNL     1      -4.682 -10.366  16.080  0.00  0.00    -0.280 N 
ATOM     13  C   UNL     1      -4.361 -10.574  15.349  0.00  0.00    +0.094 C 
ATOM     14  C   UNL     1      -3.547 -10.690  15.274  0.00  0.00    +0.033 C 
ATOM     15  C   UNL     1      -3.055 -10.598  15.930  0.00  0.00    +0.102 C 
ATOM     16  C   UNL     1      -3.377 -10.390  16.660  0.00  0.00    +0.033 C 
ATOM     17  C   UNL     1      -4.190 -10.274  16.735  0.00  0.00    +0.094 C 
BRANCH  15  18
ATOM     18  C   UNL     1      -2.242 -10.713  15.854  0.00  0.00    +0.317 C 
ATOM     19  O   UNL     1      -1.769 -10.777  16.528  0.00  0.00    -0.250 OA
BRANCH  18  20
ATOM     20  O   UNL     1      -1.900 -10.766  15.104  0.00  0.00    -0.444 OA
ATOM     21  C   UNL     1      -1.079 -10.781  15.026  0.00  0.00    +0.256 C 
ENDBRANCH  18  20
ENDBRANCH  15  18
ENDBRANCH   9  10
ENDBRANCH   8   9
TORSDOF 6
ENDMDL
MODEL 7
REMARK VINA RESULT:      -5.7     14.168     15.036
REMARK  Name = 
REMARK  6 active torsions:
REMARK  status: ('A' for Active; 'I' for Inactive)
REMARK    1  A    between atoms: C_2  and  C_3
REMARK    2  A    between atoms: C_8  and  C_9
REMARK    3  A    between atoms: C_9  and  C_10
REMARK    4  A    between atoms: C_15  and  C_18
REMARK    5  A    between atoms: C_18  and  O_20
REMARK    6  A    between atoms: N_24  and  C_25
REMARK                            x       y       z     vdW  Elec       q    Type
REMARK                         _______ _______ _______ _____ _____    ______ ____
ROOT
ATOM      3  C   UNL     1      -6.978 -10.163  15.012  0.00  0.00    +0.020 C 
ATOM      4  C   UNL     1      -7.508  -9.924  15.597  0.00  0.00    +0.095 C 
ATOM      5  N   UNL     1      -7.227  -9.653  16.322  0.00  0.00    -0.263 N 
ATOM      6  C   UNL     1      -6.415  -9.620  16.465  0.00  0.00    +0.095 C 
ATOM      7  C   UNL     1      -5.885  -9.859  15.880  0.00  0.00    +0.022 C 
ATOM      8  C   UNL     1      -6.166 -10.130  15.154  0.00  0.00    +0.012 C 
ATOM     22  C   UNL     1      -7.758  -9.414  16.908  0.00  0.00    +0.323 C 
ATOM     23  O   UNL     1      -7.477  -9.143  17.635  0.00  0.00    -0.251 OA
ATOM     24  N   UNL     1      -8.570  -9.447  16.766  0.00  0.00    -0.190 NA
ENDROOT
BRANCH  24  25
ATOM     25  C   UNL     1      -9.101  -9.208  17.351  0.00  0.00    +0.097 C 
ATOM     26  C   UNL     1      -9.363  -9.750  17.915  0.00  0.00    +0.023 C 
ATOM     27  C   UNL     1      -9.369  -8.428  17.372  0.00  0.00    +0.023 C 
ENDBRANCH  24  25
BRANCH   3   2
ATOM      1  C   UNL     1      -8.062 -10.590  14.187  0.00  0.00    +0.000 C 
ATOM      2  C   UNL     1      -7.259 -10.434  14.285  0.00  0.00    +0.002 C 
ENDBRANCH   3   2
BRANCH   8   9
ATOM      9  C   UNL     1      -5.635 -10.368  14.568  0.00  0.00    +0.085 C 
BRANCH   9  10
ATOM     10  C   UNL     1      -4.844 -10.505  14.760  0.00  0.00    +0.226 C 
ATOM     11  O   UNL     1      -4.630 -10.663  15.540  0.00  0.00    -0.275 OA
ATOM     12  N   UNL     1      -4.267 -10.485  14.170  0.00  0.00    -0.280 N 
ATOM     13  C   UNL     1      -3.477 -10.622  14.362  0.00  0.00    +0.094 C 
ATOM     14  C   UNL     1      -2.900 -10.602  13.772  0.00  0.00    +0.033 C 
ATOM     15  C   UNL     1      -3.114 -10.444  12.991  0.00  0.00    +0.102 C 
ATOM     16  C   UNL     1      -3.905 -10.307  12.800  0.00  0.00    +0.033 C 
ATOM     17  C   UNL     1      -4.481 -10.328  13.389  0.00  0.00    +0.094 C 
BRANCH  15  18
ATOM     18  C   UNL     1      -2.537 -10.424  12.402  0.00  0.00    +0.317 C 
ATOM     19  O   UNL     1      -2.680 -10.780  11.672  0.00  0.00    -0.250 OA
BRANCH  18  20
ATOM     20  O   UNL     1      -1.816 -10.047  12.543  0.00  0.00    -0.444 OA
ATOM     21  C   UNL     1      -1.285  -9.929  11.923  0.00  0.00    +0.256 C 
ENDBRANCH  18  20
ENDBRANCH  15  18
ENDBRANCH   9  10
ENDBRANCH   8   9
TORSDOF 6
ENDMDL
MODEL 8
REMARK VINA RESULT:      -5.6     17.383     18.097
REMARK  Name = 
REMARK  6 active torsions:
REMARK  status: ('A' for Active; 'I' for Inactive)
REMARK    1  A    between atoms: C_2  and  C_3
REMARK    2  A    between atoms: C_8  and  C_9
REMARK    3  A    between atoms: C_9  and  C_10
REMARK    4  A    between atoms: C_15  and  C_18
REMARK    5  A    between atoms: C_18  and  O_20
REMARK    6  A    between atoms: N_24  and  C_25
REMARK                            x       y       z     vdW  Elec       q    Type
REMARK                         _______ _______ _______ _____ _____    ______ ____
ROOT
ATOM      3  C   UNL     1      -7.471  -8.868   9.928  0.00  0.00    +0.020 C 
ATOM      4  C   UNL     1      -8.096  -8.431   9.613  0.00  0.00    +0.095 C 
ATOM      5  N   UNL     1      -7.950  -7.857   9.040  0.00  0.00    -0.263 N 
ATOM      6  C   UNL     1      -7.180  -7.719   8.780  0.00  0.00    +0.095 C 
ATOM      7  C   UNL     1      -6.555  -8.157   9.094  0.00  0.00    +0.022 C 
ATOM      8  C   UNL     1      -6.701  -8.731   9.667  0.00  0.00    +0.012 C 
ATOM     22  C   UNL     1      -8.576  -7.419   8.726  0.00  0.00    +0.323 C 
ATOM     23  O   UNL     1      -8.431  -6.845   8.152  0.00  0.00    -0.251 OA
ATOM     24  N   UNL     1      -9.346  -7.557   8.987  0.00  0.00    -0.190 NA
ENDROOT
BRANCH  24  25
ATOM     25  C   UNL     1      -9.972  -7.119   8.672  0.00  0.00    +0.097 C 
ATOM     26  C   UNL     1     -10.062  -6.325   8.876  0.00  0.00    +0.023 C 
ATOM     27  C   UNL     1     -10.507  -7.476   8.155  0.00  0.00    +0.023 C 
ENDBRANCH  24  25
BRANCH   3   2
ATOM      1  C   UNL     1      -8.391  -9.666  10.674  0.00  0.00    +0.000 C 
ATOM      2  C   UNL     1      -7.617  -9.443  10.502  0.00  0.00    +0.002 C 
ENDBRANCH   3   2
BRANCH   8   9
ATOM      9  C   UNL     1      -6.075  -9.168   9.981  0.00  0.00    +0.085 C 
BRANCH   9  10
ATOM     10  C   UNL     1      -5.384  -9.276   9.541  0.00  0.00    +0.226 C 
ATOM     11  O   UNL     1      -5.402  -9.197   8.721  0.00  0.00    -0.275 OA
ATOM     12  N   UNL     1      -4.677  -9.461   9.923  0.00  0.00    -0.280 N 
ATOM     13  C   UNL     1      -3.988  -9.568   9.483  0.00  0.00    +0.094 C 
ATOM     14  C   UNL     1      -3.280  -9.754   9.865  0.00  0.00    +0.033 C 
ATOM     15  C   UNL     1      -3.262  -9.833  10.686  0.00  0.00    +0.102 C 
ATOM     16  C   UNL     1      -3.953  -9.726  11.125  0.00  0.00    +0.033 C 
ATOM     17  C   UNL     1      -4.660  -9.540  10.744  0.00  0.00    +0.094 C 
BRANCH  15  18
ATOM     18  C   UNL     1      -2.555 -10.019  11.067  0.00  0.00    +0.317 C 
ATOM     19  O   UNL     1      -2.451 -10.765  11.405  0.00  0.00    -0.250 OA
BRANCH  18  20
ATOM     20  O   UNL     1      -1.951  -9.458  11.112  0.00  0.00    -0.444 OA
ATOM     21  C   UNL     1      -1.281  -9.609  11.570  0.00  0.00    +0.256 C 
ENDBRANCH  18  20
ENDBRANCH  15  18
ENDBRANCH   9  10
ENDBRANCH   8   9
TORSDOF 6
ENDMDL
MODEL 9
REMARK VINA RESULT:      -5.5     15.650     16.769
REMARK  Name = 
REMARK  6 active torsions:
REMARK  status: ('A' for Active; 'I' for Inactive)
REMARK    1  A    between atoms: C_2  and  C_3
REMARK    2  A    between atoms: C_8  and  C_9
REMARK    3  A    between atoms: C_9  and  C_10
REMARK    4  A    between atoms: C_15  and  C_18
REMARK    5  A    between atoms: C_18  and  O_20
REMARK    6  A    between atoms: N_24  and  C_25
REMARK                            x       y       z     vdW  Elec       q    Type
REMARK                         _______ _______ _______ _____ _____    ______ ____
ROOT
ATOM      3  C   UNL     1      -4.097  -9.915  11.097  0.00  0.00    +0.020 C 
ATOM      4  C   UNL     1      -4.677  -9.706  10.549  0.00  0.00    +0.095 C 
ATOM      5  N   UNL     1      -5.474  -9.749  10.755  0.00  0.00    -0.263 N 
ATOM      6  C   UNL     1      -5.692 -10.000  11.509  0.00  0.00    +0.095 C 
ATOM      7  C   UNL     1      -5.112 -10.208  12.058  0.00  0.00    +0.022 C 
ATOM      8  C   UNL     1      -4.315 -10.166  11.852  0.00  0.00    +0.012 C 
ATOM     22  C   UNL     1      -6.054  -9.540  10.206  0.00  0.00    +0.323 C 
ATOM     23  O   UNL     1      -6.852  -9.583  10.412  0.00  0.00    -0.251 OA
ATOM     24  N   UNL     1      -5.836  -9.289   9.451  0.00  0.00    -0.190 NA
ENDROOT
BRANCH  24  25
ATOM     25  C   UNL     1      -6.416  -9.080   8.902  0.00  0.00    +0.097 C 
ATOM     26  C   UNL     1      -6.361  -9.348   8.124  0.00  0.00    +0.023 C 
ATOM     27  C   UNL     1      -7.050  -8.605   9.132  0.00  0.00    +0.023 C 
ENDBRANCH  24  25
BRANCH   3   2
ATOM      1  C   UNL     1      -3.071  -9.468  10.209  0.00  0.00    +0.000 C 
ATOM      2  C   UNL     1      -3.299  -9.872  10.890  0.00  0.00    +0.002 C 
ENDBRANCH   3   2
BRANCH   8   9
ATOM      9  C   UNL     1      -3.735 -10.374  12.401  0.00  0.00    +0.085 C 
BRANCH   9  10
ATOM     10  C   UNL     1      -3.950 -10.574  13.172  0.00  0.00    +0.226 C 
ATOM     11  O   UNL     1      -4.729 -10.781  13.343  0.00  0.00    -0.275 OA
ATOM     12  N   UNL     1      -3.384 -10.566  13.772  0.00  0.00    -0.280 N 
ATOM     13  C   UNL     1      -3.600 -10.766  14.543  0.00  0.00    +0.094 C 
ATOM     14  C   UNL     1      -3.034 -10.758  15.144  0.00  0.00    +0.033 C 
ATOM     15  C   UNL     1      -2.253 -10.551  14.974  0.00  0.00    +0.102 C 
ATOM     16  C   UNL     1      -2.039 -10.351  14.202  0.00  0.00    +0.033 C 
ATOM     17  C   UNL     1      -2.604 -10.359  13.602  0.00  0.00    +0.094 C 
BRANCH  15  18
ATOM     18  C   UNL     1      -1.689 -10.543  15.574  0.00  0.00    +0.317 C 
ATOM     19  O   UNL     1      -1.908 -10.715  16.351  0.00  0.00    -0.250 OA
BRANCH  18  20
ATOM     20  O   UNL     1      -0.902 -10.364  15.398  0.00  0.00    -0.444 OA
ATOM     21  C   UNL     1      -0.357 -10.259  16.009  0.00  0.00    +0.256 C 
ENDBRANCH  18  20
ENDBRANCH  15  18
ENDBRANCH   9  10
ENDBRANCH   8   9
TORSDOF 6
ENDMDL
MODEL 10
REMARK VINA RESULT:      -5.3     15.576     16.559
REMARK  Name = 
REMARK  6 active torsions:
REMARK  status: ('A' for Active; 'I' for Inactive)
REMARK    1  A    between atoms: C_2  and  C_3
REMARK    2  A    between atoms: C_8  and  C_9
REMARK    3  A    between atoms: C_9  and  C_10
REMARK    4  A    between atoms: C_15  and  C_18
REMARK    5  A    between atoms: C_18  and  O_20
REMARK    6  A    between atoms: N_24  and  C_25
REMARK                            x       y       z     vdW  Elec       q    Type
REMARK                         _______ _______ _______ _____ _____    ______ ____
ROOT
ATOM      3  C   UNL     1      -7.444  -9.617  12.358  0.00  0.00    +0.020 C 
ATOM      4  C   UNL     1      -7.601  -9.381  11.583  0.00  0.00    +0.095 C 
ATOM      5  N   UNL     1      -7.002  -9.055  11.122  0.00  0.00    -0.263 N 
ATOM      6  C   UNL     1      -6.243  -8.964  11.434  0.00  0.00    +0.095 C 
ATOM      7  C   UNL     1      -6.087  -9.199  12.209  0.00  0.00    +0.022 C 
ATOM      8  C   UNL     1      -6.686  -9.525  12.670  0.00  0.00    +0.012 C 
ATOM     22  C   UNL     1      -7.159  -8.820  10.346  0.00  0.00    +0.323 C 
ATOM     23  O   UNL     1      -6.559  -8.494   9.884  0.00  0.00    -0.251 OA
ATOM     24  N   UNL     1      -7.917  -8.911  10.034  0.00  0.00    -0.190 NA
ENDROOT
BRANCH  24  25
ATOM     25  C   UNL     1      -8.075  -8.676   9.259  0.00  0.00    +0.097 C 
ATOM     26  C   UNL     1      -8.359  -7.916   9.109  0.00  0.00    +0.023 C 
ATOM     27  C   UNL     1      -7.948  -9.200   8.634  0.00  0.00    +0.023 C 
ENDBRANCH  24  25
BRANCH   3   2
ATOM      1  C   UNL     1      -8.834  -9.835  12.607  0.00  0.00    +0.000 C 
ATOM      2  C   UNL     1      -8.045  -9.943  12.821  0.00  0.00    +0.002 C 
ENDBRANCH   3   2
BRANCH   8   9
ATOM      9  C   UNL     1      -6.529  -9.761  13.446  0.00  0.00    +0.085 C 
BRANCH   9  10
ATOM     10  C   UNL     1      -5.802 -10.106  13.633  0.00  0.00    +0.226 C 
ATOM     11  O   UNL     1      -5.316 -10.392  13.033  0.00  0.00    -0.275 OA
ATOM     12  N   UNL     1      -5.565 -10.164  14.420  0.00  0.00    -0.280 N 
ATOM     13  C   UNL     1      -4.839 -10.509  14.606  0.00  0.00    +0.094 C 
ATOM     14  C   UNL     1      -4.600 -10.568  15.395  0.00  0.00    +0.033 C 
ATOM     15  C   UNL     1      -5.088 -10.281  15.996  0.00  0.00    +0.102 C 
ATOM     16  C   UNL     1      -5.814  -9.936  15.808  0.00  0.00    +0.033 C 
ATOM     17  C   UNL     1      -6.052  -9.878  15.021  0.00  0.00    +0.094 C 
BRANCH  15  18
ATOM     18  C   UNL     1      -4.849 -10.340  16.783  0.00  0.00    +0.317 C 
ATOM     19  O   UNL     1      -4.047 -10.332  16.973  0.00  0.00    -0.250 OA
BRANCH  18  20
ATOM     20  O   UNL     1      -5.415 -10.407  17.381  0.00  0.00    -0.444 OA
ATOM     21  C   UNL     1      -5.184 -10.622  18.144  0.00  0.00    +0.256 C 
ENDBRANCH  18  20
ENDBRANCH  15  18
ENDBRANCH   9  10
ENDBRANCH   8   9
TORSDOF 6
ENDMDL
