MODEL 1
REMARK VINA RESULT:     -10.3      0.000      0.000
REMARK  Name = 
REMARK  5 active torsions:
REMARK  status: ('A' for Active; 'I' for Inactive)
REMARK    1  A    between atoms: C_2  and  N_4
REMARK    2  A    between atoms: C_5  and  C_6
REMARK    3  A    between atoms: C_8  and  C_13
REMARK    4  A    between atoms: C_16  and  N_17
REMARK    5  A    between atoms: C_18  and  C_20
REMARK                            x       y       z     vdW  Elec       q    Type
REMARK                         _______ _______ _______ _____ _____    ______ ____
ROOT
ATOM      4  N   UNL     1      -2.992   3.471  24.895  0.00  0.00    -0.275 N 
ATOM      5  C   UNL     1      -3.078   2.652  24.847  0.00  0.00    +0.139 C 
ATOM      8  C   UNL     1      -3.665   2.325  24.367  0.00  0.00    +0.159 C 
ATOM      9  O   UNL     1      -4.165   2.819  23.934  0.00  0.00    -0.341 OA
ATOM     10  C   UNL     1      -4.079   3.638  23.982  0.00  0.00    +0.227 C 
ATOM     11  C   UNL     1      -3.493   3.964  24.462  0.00  0.00    +0.256 C 
ATOM     12  O   UNL     1      -3.407   4.783  24.510  0.00  0.00    -0.272 OA
ENDROOT
BRANCH   8  13
ATOM     13  C   UNL     1      -3.751   1.506  24.319  0.00  0.00    +0.006 A 
ATOM     14  C   UNL     1      -4.222   1.109  24.868  0.00  0.00    -0.001 A 
ATOM     15  C   UNL     1      -4.308   0.290  24.820  0.00  0.00    +0.016 A 
ATOM     16  C   UNL     1      -3.923  -0.132  24.223  0.00  0.00    +0.073 A 
ATOM     23  C   UNL     1      -3.452   0.267  23.675  0.00  0.00    +0.016 A 
ATOM     24  C   UNL     1      -3.366   1.086  23.723  0.00  0.00    -0.001 A 
BRANCH  16  17
ATOM     17  N   UNL     1      -4.009  -0.951  24.176  0.00  0.00    -0.179 NA
ATOM     18  C   UNL     1      -3.484  -1.445  24.578  0.00  0.00    +0.245 C 
ATOM     19  O   UNL     1      -2.873  -1.120  25.028  0.00  0.00    -0.273 OA
BRANCH  18  20
ATOM     20  C   UNL     1      -3.570  -2.264  24.530  0.00  0.00    +0.079 C 
ATOM     21  C   UNL     1      -3.936  -2.926  24.201  0.00  0.00    +0.010 C 
ATOM     22  C   UNL     1      -3.353  -3.021  24.776  0.00  0.00    +0.010 C 
ENDBRANCH  18  20
ENDBRANCH  16  17
ENDBRANCH   8  13
BRANCH   4   2
ATOM      1  C   UNL     1      -2.554   3.926  26.177  0.00  0.00    +0.022 C 
ATOM      2  C   UNL     1      -2.405   3.796  25.376  0.00  0.00    +0.076 C 
ATOM      3  C   UNL     1      -1.671   3.992  25.056  0.00  0.00    +0.022 C 
ENDBRANCH   4   2
BRANCH   5   6
ATOM      6  C   UNL     1      -2.577   2.158  25.280  0.00  0.00    +0.205 C 
ATOM      7  O   UNL     1      -1.782   2.092  25.072  0.00  0.00    -0.218 OA
ENDBRANCH   5   6
TORSDOF 5
ENDMDL
MODEL 2
REMARK VINA RESULT:     -10.0      1.641      5.155
REMARK  Name = 
REMARK  5 active torsions:
REMARK  status: ('A' for Active; 'I' for Inactive)
REMARK    1  A    between atoms: C_2  and  N_4
REMARK    2  A    between atoms: C_5  and  C_6
REMARK    3  A    between atoms: C_8  and  C_13
REMARK    4  A    between atoms: C_16  and  N_17
REMARK    5  A    between atoms: C_18  and  C_20
REMARK                            x       y       z     vdW  Elec       q    Type
REMARK                         _______ _______ _______ _____ _____    ______ ____
ROOT
ATOM      4  N   UNL     1      -2.471  -1.363  24.669  0.00  0.00    -0.275 N 
ATOM      5  C   UNL     1      -2.320  -0.552  24.703  0.00  0.00    +0.139 C 
ATOM      8  C   UNL     1      -1.543  -0.275  24.666  0.00  0.00    +0.159 C 
ATOM      9  O   UNL     1      -0.919  -0.809  24.596  0.00  0.00    -0.341 OA
ATOM     10  C   UNL     1      -1.070  -1.620  24.561  0.00  0.00    +0.227 C 
ATOM     11  C   UNL     1      -1.846  -1.896  24.598  0.00  0.00    +0.256 C 
ATOM     12  O   UNL     1      -1.997  -2.706  24.563  0.00  0.00    -0.272 OA
ENDROOT
BRANCH   8  13
ATOM     13  C   UNL     1      -1.392   0.535  24.701  0.00  0.00    +0.006 A 
ATOM     14  C   UNL     1      -1.479   1.000  24.025  0.00  0.00    -0.001 A 
ATOM     15  C   UNL     1      -1.328   1.810  24.059  0.00  0.00    +0.016 A 
ATOM     16  C   UNL     1      -1.090   2.156  24.770  0.00  0.00    +0.073 A 
ATOM     23  C   UNL     1      -1.003   1.690  25.445  0.00  0.00    +0.016 A 
ATOM     24  C   UNL     1      -1.154   0.880  25.411  0.00  0.00    -0.001 A 
BRANCH  16  17
ATOM     17  N   UNL     1      -0.938   2.966  24.804  0.00  0.00    -0.179 NA
ATOM     18  C   UNL     1      -1.536   3.487  25.033  0.00  0.00    +0.245 C 
ATOM     19  O   UNL     1      -2.284   3.199  25.227  0.00  0.00    -0.273 OA
BRANCH  18  20
ATOM     20  C   UNL     1      -1.385   4.297  25.067  0.00  0.00    +0.079 C 
ATOM     21  C   UNL     1      -0.872   4.935  24.955  0.00  0.00    +0.010 C 
ATOM     22  C   UNL     1      -1.635   5.065  25.240  0.00  0.00    +0.010 C 
ENDBRANCH  18  20
ENDBRANCH  16  17
ENDBRANCH   8  13
BRANCH   4   2
ATOM      1  C   UNL     1      -3.552  -1.919  25.419  0.00  0.00    +0.022 C 
ATOM      2  C   UNL     1      -3.248  -1.639  24.705  0.00  0.00    +0.076 C 
ATOM      3  C   UNL     1      -3.720  -1.634  24.029  0.00  0.00    +0.022 C 
ENDBRANCH   4   2
BRANCH   5   6
ATOM      6  C   UNL     1      -2.946  -0.018  24.774  0.00  0.00    +0.205 C 
ATOM      7  O   UNL     1      -3.382   0.016  25.473  0.00  0.00    -0.218 OA
ENDBRANCH   5   6
TORSDOF 5
ENDMDL
MODEL 3
REMARK VINA RESULT:      -9.5      1.806      4.591
REMARK  Name = 
REMARK  5 active torsions:
REMARK  status: ('A' for Active; 'I' for Inactive)
REMARK    1  A    between atoms: C_2  and  N_4
REMARK    2  A    between atoms: C_5  and  C_6
REMARK    3  A    between atoms: C_8  and  C_13
REMARK    4  A    between atoms: C_16  and  N_17
REMARK    5  A    between atoms: C_18  and  C_20
REMARK                            x       y       z     vdW  Elec       q    Type
REMARK                         _______ _______ _______ _____ _____    ______ ____
ROOT
ATOM      4  N   UNL     1      -1.732  -1.533  24.635  0.00  0.00    -0.275 N 
ATOM      5  C   UNL     1      -2.227  -0.880  24.733  0.00  0.00    +0.139 C 
ATOM      8  C   UNL     1      -3.039  -0.955  24.604  0.00  0.00    +0.159 C 
ATOM      9  O   UNL     1      -3.355  -1.682  24.378  0.00  0.00    -0.341 OA
ATOM     10  C   UNL     1      -2.861  -2.335  24.281  0.00  0.00    +0.227 C 
ATOM     11  C   UNL     1      -2.050  -2.261  24.409  0.00  0.00    +0.256 C 
ATOM     12  O   UNL     1      -1.555  -2.913  24.312  0.00  0.00    -0.272 OA
ENDROOT
BRANCH   8  13
ATOM     13  C   UNL     1      -3.534  -0.302  24.702  0.00  0.00    +0.006 A 
ATOM     14  C   UNL     1      -3.576   0.275  24.114  0.00  0.00    -0.001 A 
ATOM     15  C   UNL     1      -4.070   0.928  24.211  0.00  0.00    +0.016 A 
ATOM     16  C   UNL     1      -4.524   1.004  24.897  0.00  0.00    +0.073 A 
ATOM     23  C   UNL     1      -4.481   0.427  25.485  0.00  0.00    +0.016 A 
ATOM     24  C   UNL     1      -3.986  -0.226  25.387  0.00  0.00    -0.001 A 
BRANCH  16  17
ATOM     17  N   UNL     1      -5.018   1.657  24.995  0.00  0.00    -0.179 NA
ATOM     18  C   UNL     1      -4.710   2.369  25.277  0.00  0.00    +0.245 C 
ATOM     19  O   UNL     1      -3.908   2.428  25.462  0.00  0.00    -0.273 OA
BRANCH  18  20
ATOM     20  C   UNL     1      -5.205   3.022  25.375  0.00  0.00    +0.079 C 
ATOM     21  C   UNL     1      -5.951   3.336  25.537  0.00  0.00    +0.010 C 
ATOM     22  C   UNL     1      -5.317   3.839  25.381  0.00  0.00    +0.010 C 
ENDBRANCH  18  20
ENDBRANCH  16  17
ENDBRANCH   8  13
BRANCH   4   2
ATOM      1  C   UNL     1      -0.439  -1.135  24.178  0.00  0.00    +0.022 C 
ATOM      2  C   UNL     1      -0.921  -1.458  24.764  0.00  0.00    +0.076 C 
ATOM      3  C   UNL     1      -0.591  -1.705  25.479  0.00  0.00    +0.022 C 
ENDBRANCH   4   2
BRANCH   5   6
ATOM      6  C   UNL     1      -1.910  -0.152  24.960  0.00  0.00    +0.205 C 
ATOM      7  O   UNL     1      -1.616  -0.050  25.723  0.00  0.00    -0.218 OA
ENDBRANCH   5   6
TORSDOF 5
ENDMDL
