REMARK  Name = 
REMARK  10 active torsions:
REMARK  status: ('A' for Active; 'I' for Inactive)
REMARK    1  A    between atoms: O_2  and  C_3
REMARK    2  A    between atoms: C_3  and  C_5
REMARK    3  A    between atoms: C_10  and  C_12
REMARK    4  A    between atoms: C_14  and  N_26
REMARK    5  A    between atoms: C_18  and  C_20
REMARK    6  A    between atoms: C_20  and  O_21
REMARK    7  A    between atoms: O_21  and  C_22
REMARK    8  A    between atoms: C_22  and  C_23
REMARK    9  A    between atoms: N_26  and  S_27
REMARK   10  A    between atoms: S_27  and  C_30
REMARK                            x       y       z     vdW  Elec       q    Type
REMARK                         _______ _______ _______ _____ _____    ______ ____
ROOT
ATOM     12  C   UNL     1       0.715  -0.412   0.000  0.00  0.00    +0.153 C 
ATOM     13  C   UNL     1       0.000   0.000   0.000  0.00  0.00    +0.049 C 
ATOM     14  C   UNL     1       0.000   0.825   0.000  0.00  0.00    +0.102 C 
ATOM     15  C   UNL     1       0.715   1.238   0.000  0.00  0.00    +0.041 C 
ATOM     16  C   UNL     1       1.429   0.825   0.000  0.00  0.00    +0.095 C 
ATOM     17  N   UNL     1       1.429   0.000   0.000  0.00  0.00    -0.271 N 
ATOM     18  C   UNL     1       2.143  -0.412   0.000  0.00  0.00    +0.256 C 
ATOM     19  O   UNL     1       2.143  -1.238   0.000  0.00  0.00    -0.272 OA
ENDROOT
BRANCH  12  10
ATOM      5  C   UNL     1      -0.086  -2.470   0.000  0.00  0.00    +0.175 C 
ATOM      6  C   UNL     1      -0.893  -2.642   0.000  0.00  0.00    +0.033 C 
ATOM      7  C   UNL     1      -1.306  -1.927   0.000  0.00  0.00    +0.024 C 
ATOM      8  C   UNL     1      -0.754  -1.314   0.000  0.00  0.00    +0.094 C 
ATOM      9  N   UNL     1       0.000  -1.650   0.000  0.00  0.00    -0.270 N 
ATOM     10  C   UNL     1       0.715  -1.238   0.000  0.00  0.00    +0.244 C 
ATOM     11  O   UNL     1       1.429  -1.650   0.000  0.00  0.00    -0.273 OA
BRANCH   5   3
ATOM      3  C   UNL     1       0.527  -3.022   0.000  0.00  0.00    +0.335 C 
ATOM      4  O   UNL     1       0.355  -3.829   0.000  0.00  0.00    -0.248 OA
BRANCH   3   2
ATOM      1  C   UNL     1       1.925  -3.320   0.000  0.00  0.00    +0.256 C 
ATOM      2  O   UNL     1       1.312  -2.768   0.000  0.00  0.00    -0.443 OA
ENDBRANCH   3   2
ENDBRANCH   5   3
ENDBRANCH  12  10
BRANCH  18  20
ATOM     20  C   UNL     1       2.858   0.000   0.000  0.00  0.00    +0.228 C 
BRANCH  20  21
ATOM     21  O   UNL     1       3.572  -0.412   0.000  0.00  0.00    -0.333 OA
BRANCH  21  22
ATOM     22  C   UNL     1       4.287   0.000   0.000  0.00  0.00    +0.257 C 
BRANCH  22  23
ATOM     23  C   UNL     1       5.001  -0.412   0.000  0.00  0.00    +0.394 C 
ATOM     24  O   UNL     1       5.716   0.000   0.000  0.00  0.00    -0.243 OA
ATOM     25  O   UNL     1       5.001  -1.238   0.000  0.00  0.00    -0.243 OA
ENDBRANCH  22  23
ENDBRANCH  21  22
ENDBRANCH  20  21
ENDBRANCH  18  20
BRANCH  14  26
ATOM     26  N   UNL     1      -0.715   1.238   0.000  0.00  0.00    -0.079 NA
BRANCH  26  27
ATOM     27  S   UNL     1      -0.715   2.062   0.000  0.00  0.00    +0.082 S 
ATOM     28  O   UNL     1       0.111   2.062   0.000  0.00  0.00    -0.151 OA
ATOM     29  O   UNL     1      -1.540   2.062   0.000  0.00  0.00    -0.151 OA
BRANCH  27  30
ATOM     30  C   UNL     1      -0.715   2.888   0.000  0.00  0.00    +0.153 A 
ATOM     31  C   UNL     1      -1.382   3.372   0.000  0.00  0.00    +0.027 A 
ATOM     32  C   UNL     1      -1.127   4.157   0.000  0.00  0.00    +0.009 A 
ATOM     33  C   UNL     1      -0.302   4.157   0.000  0.00  0.00    +0.037 A 
ATOM     34  S   UNL     1      -0.047   3.372   0.000  0.00  0.00    -0.067 S 
ENDBRANCH  27  30
ENDBRANCH  26  27
ENDBRANCH  14  26
TORSDOF 10
