MODEL 1
REMARK VINA RESULT:     -11.5      0.000      0.000
REMARK  Name = 
REMARK  4 active torsions:
REMARK  status: ('A' for Active; 'I' for Inactive)
REMARK    1  A    between atoms: O_2  and  C_3
REMARK    2  A    between atoms: C_5  and  N_6
REMARK    3  A    between atoms: N_9  and  C_10
REMARK    4  A    between atoms: C_16  and  N_19
REMARK                            x       y       z     vdW  Elec       q    Type
REMARK                         _______ _______ _______ _____ _____    ______ ____
ROOT
ATOM     10  C   UNL     1      -3.628   2.207  25.105  0.00  0.00    +0.158 C 
ATOM     11  C   UNL     1      -3.817   2.932  24.556  0.00  0.00    +0.170 C 
ATOM     12  C   UNL     1      -3.268   3.483  24.534  0.00  0.00    +0.176 C 
ATOM     13  O   UNL     1      -3.074   4.124  24.255  0.00  0.00    -0.327 OA
ATOM     14  C   UNL     1      -3.582   3.417  24.395  0.00  0.00    +0.253 C 
ATOM     15  O   UNL     1      -4.322   3.178  24.118  0.00  0.00    -0.327 OA
ATOM     16  C   UNL     1      -3.372   2.665  24.972  0.00  0.00    +0.147 C 
ATOM     17  C   UNL     1      -2.885   2.449  25.381  0.00  0.00    +0.194 C 
ATOM     18  O   UNL     1      -2.172   2.436  25.796  0.00  0.00    -0.220 OA
ENDROOT
BRANCH  16  19
ATOM     19  N   UNL     1      -2.756   3.213  24.990  0.00  0.00    -0.268 NA
ATOM     20  C   UNL     1      -2.128   3.147  24.459  0.00  0.00    +0.072 C 
ATOM     21  C   UNL     1      -1.512   3.695  24.477  0.00  0.00    +0.017 C 
ATOM     22  C   UNL     1      -1.524   4.310  25.026  0.00  0.00    +0.003 C 
ATOM     23  C   UNL     1      -2.151   4.377  25.557  0.00  0.00    +0.017 C 
ATOM     24  C   UNL     1      -2.767   3.829  25.539  0.00  0.00    +0.072 C 
ENDBRANCH  16  19
BRANCH  10   9
ATOM      6  N   UNL     1      -4.282   0.124  25.103  0.00  0.00    -0.161 NA
ATOM      7  C   UNL     1      -3.843   0.803  24.940  0.00  0.00    +0.344 C 
ATOM      8  O   UNL     1      -3.180   0.759  24.450  0.00  0.00    -0.249 OA
ATOM      9  N   UNL     1      -4.067   1.526  25.268  0.00  0.00    -0.183 NA
BRANCH   6   5
ATOM      3  C   UNL     1      -3.244  -1.773  24.807  0.00  0.00    +0.140 A 
ATOM      4  C   UNL     1      -3.468  -1.051  25.135  0.00  0.00    +0.054 A 
ATOM      5  C   UNL     1      -4.058  -0.600  24.775  0.00  0.00    +0.078 A 
ATOM     25  C   UNL     1      -4.425  -0.872  24.089  0.00  0.00    +0.017 A 
ATOM     26  C   UNL     1      -4.201  -1.596  23.761  0.00  0.00    +0.004 A 
ATOM     27  C   UNL     1      -3.610  -2.047  24.121  0.00  0.00    +0.037 A 
BRANCH   3   2
ATOM      1  C   UNL     1      -2.009  -2.489  24.725  0.00  0.00    +0.252 C 
ATOM      2  O   UNL     1      -2.653  -2.224  25.168  0.00  0.00    -0.471 OA
ENDBRANCH   3   2
ENDBRANCH   6   5
ENDBRANCH  10   9
TORSDOF 4
ENDMDL
MODEL 2
REMARK VINA RESULT:     -11.5      1.044      4.742
REMARK  Name = 
REMARK  4 active torsions:
REMARK  status: ('A' for Active; 'I' for Inactive)
REMARK    1  A    between atoms: O_2  and  C_3
REMARK    2  A    between atoms: C_5  and  N_6
REMARK    3  A    between atoms: N_9  and  C_10
REMARK    4  A    between atoms: C_16  and  N_19
REMARK                            x       y       z     vdW  Elec       q    Type
REMARK                         _______ _______ _______ _____ _____    ______ ____
ROOT
ATOM     10  C   UNL     1      -4.100  -0.376  24.960  0.00  0.00    +0.158 C 
ATOM     11  C   UNL     1      -4.277  -0.993  24.289  0.00  0.00    +0.170 C 
ATOM     12  C   UNL     1      -3.799  -1.606  24.267  0.00  0.00    +0.176 C 
ATOM     13  O   UNL     1      -3.636  -2.226  23.928  0.00  0.00    -0.327 OA
ATOM     14  C   UNL     1      -4.077  -1.480  24.094  0.00  0.00    +0.253 C 
ATOM     15  O   UNL     1      -4.729  -1.110  23.751  0.00  0.00    -0.327 OA
ATOM     16  C   UNL     1      -3.879  -0.844  24.800  0.00  0.00    +0.147 C 
ATOM     17  C   UNL     1      -3.445  -0.749  25.303  0.00  0.00    +0.194 C 
ATOM     18  O   UNL     1      -2.812  -0.886  25.815  0.00  0.00    -0.220 OA
ENDROOT
BRANCH  16  19
ATOM     19  N   UNL     1      -3.341  -1.468  24.828  0.00  0.00    -0.268 NA
ATOM     20  C   UNL     1      -3.517  -2.147  25.262  0.00  0.00    +0.072 C 
ATOM     21  C   UNL     1      -2.979  -2.772  25.289  0.00  0.00    +0.017 C 
ATOM     22  C   UNL     1      -2.264  -2.717  24.882  0.00  0.00    +0.003 C 
ATOM     23  C   UNL     1      -2.087  -2.039  24.448  0.00  0.00    +0.017 C 
ATOM     24  C   UNL     1      -2.625  -1.415  24.420  0.00  0.00    +0.072 C 
ENDBRANCH  16  19
BRANCH  10   9
ATOM      6  N   UNL     1      -4.524   1.759  25.131  0.00  0.00    -0.161 NA
ATOM      7  C   UNL     1      -4.145   1.053  24.936  0.00  0.00    +0.344 C 
ATOM      8  O   UNL     1      -3.431   1.068  24.521  0.00  0.00    -0.249 OA
ATOM      9  N   UNL     1      -4.479   0.331  25.155  0.00  0.00    -0.183 NA
BRANCH   6   5
ATOM      3  C   UNL     1      -3.424   3.641  25.241  0.00  0.00    +0.140 A 
ATOM      4  C   UNL     1      -3.758   2.920  25.461  0.00  0.00    +0.054 A 
ATOM      5  C   UNL     1      -4.189   2.481  24.911  0.00  0.00    +0.078 A 
ATOM     25  C   UNL     1      -4.286   2.763  24.142  0.00  0.00    +0.017 A 
ATOM     26  C   UNL     1      -3.952   3.485  23.923  0.00  0.00    +0.004 A 
ATOM     27  C   UNL     1      -3.520   3.924  24.473  0.00  0.00    +0.037 A 
BRANCH   3   2
ATOM      1  C   UNL     1      -2.203   4.269  25.642  0.00  0.00    +0.252 C 
ATOM      2  O   UNL     1      -2.993   4.080  25.792  0.00  0.00    -0.471 OA
ENDBRANCH   3   2
ENDBRANCH   6   5
ENDBRANCH  10   9
TORSDOF 4
ENDMDL
MODEL 3
REMARK VINA RESULT:     -11.4      1.611      2.296
REMARK  Name = 
REMARK  4 active torsions:
REMARK  status: ('A' for Active; 'I' for Inactive)
REMARK    1  A    between atoms: O_2  and  C_3
REMARK    2  A    between atoms: C_5  and  N_6
REMARK    3  A    between atoms: N_9  and  C_10
REMARK    4  A    between atoms: C_16  and  N_19
REMARK                            x       y       z     vdW  Elec       q    Type
REMARK                         _______ _______ _______ _____ _____    ______ ____
ROOT
ATOM     10  C   UNL     1      -1.109   1.886  24.977  0.00  0.00    +0.158 C 
ATOM     11  C   UNL     1      -0.648   2.309  25.664  0.00  0.00    +0.170 C 
ATOM     12  C   UNL     1      -0.766   3.076  25.719  0.00  0.00    +0.176 C 
ATOM     13  O   UNL     1      -0.603   3.682  26.083  0.00  0.00    -0.327 OA
ATOM     14  C   UNL     1      -0.584   2.824  25.880  0.00  0.00    +0.253 C 
ATOM     15  O   UNL     1      -0.194   2.168  26.194  0.00  0.00    -0.327 OA
ATOM     16  C   UNL     1      -1.071   2.395  25.158  0.00  0.00    +0.147 C 
ATOM     17  C   UNL     1      -1.499   2.546  24.663  0.00  0.00    +0.194 C 
ATOM     18  O   UNL     1      -1.987   2.996  24.172  0.00  0.00    -0.220 OA
ENDROOT
BRANCH  16  19
ATOM     19  N   UNL     1      -1.236   3.204  25.166  0.00  0.00    -0.268 NA
ATOM     20  C   UNL     1      -1.878   3.491  25.597  0.00  0.00    +0.072 C 
ATOM     21  C   UNL     1      -2.042   4.299  25.605  0.00  0.00    +0.017 C 
ATOM     22  C   UNL     1      -1.564   4.821  25.181  0.00  0.00    +0.003 C 
ATOM     23  C   UNL     1      -0.921   4.535  24.750  0.00  0.00    +0.017 C 
ATOM     24  C   UNL     1      -0.757   3.726  24.743  0.00  0.00    +0.072 C 
ENDBRANCH  16  19
BRANCH  10   9
ATOM      6  N   UNL     1      -1.799  -0.166  24.696  0.00  0.00    -0.161 NA
ATOM      7  C   UNL     1      -1.783   0.626  24.924  0.00  0.00    +0.344 C 
ATOM      8  O   UNL     1      -2.424   0.953  25.328  0.00  0.00    -0.249 OA
ATOM      9  N   UNL     1      -1.125   1.093  24.748  0.00  0.00    -0.183 NA
BRANCH   6   5
ATOM      3  C   UNL     1      -3.651  -1.294  24.452  0.00  0.00    +0.140 A 
ATOM      4  C   UNL     1      -2.994  -0.828  24.277  0.00  0.00    +0.054 A 
ATOM      5  C   UNL     1      -2.456  -0.632  24.871  0.00  0.00    +0.078 A 
ATOM     25  C   UNL     1      -2.576  -0.903  25.641  0.00  0.00    +0.017 A 
ATOM     26  C   UNL     1      -3.234  -1.369  25.817  0.00  0.00    +0.004 A 
ATOM     27  C   UNL     1      -3.771  -1.565  25.222  0.00  0.00    +0.037 A 
BRANCH   3   2
ATOM      1  C   UNL     1      -4.383  -2.280  23.721  0.00  0.00    +0.252 C 
ATOM      2  O   UNL     1      -4.188  -1.490  23.857  0.00  0.00    -0.471 OA
ENDBRANCH   3   2
ENDBRANCH   6   5
ENDBRANCH  10   9
TORSDOF 4
ENDMDL
MODEL 4
REMARK VINA RESULT:     -11.3      1.836      5.179
REMARK  Name = 
REMARK  4 active torsions:
REMARK  status: ('A' for Active; 'I' for Inactive)
REMARK    1  A    between atoms: O_2  and  C_3
REMARK    2  A    between atoms: C_5  and  N_6
REMARK    3  A    between atoms: N_9  and  C_10
REMARK    4  A    between atoms: C_16  and  N_19
REMARK                            x       y       z     vdW  Elec       q    Type
REMARK                         _______ _______ _______ _____ _____    ______ ____
ROOT
ATOM     10  C   UNL     1      -1.703  -0.568  25.396  0.00  0.00    +0.158 C 
ATOM     11  C   UNL     1      -1.432  -1.292  24.881  0.00  0.00    +0.170 C 
ATOM     12  C   UNL     1      -2.005  -1.755  24.633  0.00  0.00    +0.176 C 
ATOM     13  O   UNL     1      -2.172  -2.350  24.253  0.00  0.00    -0.327 OA
ATOM     14  C   UNL     1      -1.656  -1.731  24.612  0.00  0.00    +0.253 C 
ATOM     15  O   UNL     1      -0.843  -1.592  24.616  0.00  0.00    -0.327 OA
ATOM     16  C   UNL     1      -1.955  -0.979  25.148  0.00  0.00    +0.147 C 
ATOM     17  C   UNL     1      -2.520  -0.709  25.391  0.00  0.00    +0.194 C 
ATOM     18  O   UNL     1      -3.323  -0.607  25.546  0.00  0.00    -0.220 OA
ENDROOT
BRANCH  16  19
ATOM     19  N   UNL     1      -2.604  -1.431  24.916  0.00  0.00    -0.268 NA
ATOM     20  C   UNL     1      -3.020  -1.235  24.231  0.00  0.00    +0.072 C 
ATOM     21  C   UNL     1      -3.669  -1.688  23.998  0.00  0.00    +0.017 C 
ATOM     22  C   UNL     1      -3.902  -2.337  24.451  0.00  0.00    +0.003 C 
ATOM     23  C   UNL     1      -3.486  -2.534  25.135  0.00  0.00    +0.017 C 
ATOM     24  C   UNL     1      -2.837  -2.081  25.368  0.00  0.00    +0.072 C 
ENDBRANCH  16  19
BRANCH  10   9
ATOM      6  N   UNL     1      -0.799   1.385  25.762  0.00  0.00    -0.161 NA
ATOM      7  C   UNL     1      -1.237   0.784  25.408  0.00  0.00    +0.344 C 
ATOM      8  O   UNL     1      -1.650   0.931  24.708  0.00  0.00    -0.249 OA
ATOM      9  N   UNL     1      -1.264   0.034  25.752  0.00  0.00    -0.183 NA
BRANCH   6   5
ATOM      3  C   UNL     1      -1.246   3.480  25.347  0.00  0.00    +0.140 A 
ATOM      4  C   UNL     1      -1.272   2.732  25.691  0.00  0.00    +0.054 A 
ATOM      5  C   UNL     1      -0.772   2.135  25.418  0.00  0.00    +0.078 A 
ATOM     25  C   UNL     1      -0.246   2.287  24.802  0.00  0.00    +0.017 A 
ATOM     26  C   UNL     1      -0.220   3.036  24.457  0.00  0.00    +0.004 A 
ATOM     27  C   UNL     1      -0.720   3.634  24.730  0.00  0.00    +0.037 A 
BRANCH   3   2
ATOM      1  C   UNL     1      -1.694   4.837  25.301  0.00  0.00    +0.252 C 
ATOM      2  O   UNL     1      -1.746   4.078  25.620  0.00  0.00    -0.471 OA
ENDBRANCH   3   2
ENDBRANCH   6   5
ENDBRANCH  10   9
TORSDOF 4
ENDMDL
