MODEL 1
REMARK VINA RESULT:     -12.1      0.000      0.000
REMARK  Name = 
REMARK  5 active torsions:
REMARK  status: ('A' for Active; 'I' for Inactive)
REMARK    1  A    between atoms: O_2  and  C_3
REMARK    2  A    between atoms: C_6  and  C_9
REMARK    3  A    between atoms: C_12  and  C_14
REMARK    4  A    between atoms: N_17  and  C_18
REMARK    5  A    between atoms: C_18  and  C_19
REMARK                            x       y       z     vdW  Elec       q    Type
REMARK                         _______ _______ _______ _____ _____    ______ ____
ROOT
ATOM     14  C   UNL     1      -4.596   2.347  25.250  0.00  0.00    +0.096 C 
ATOM     15  C   UNL     1      -5.059   2.985  25.006  0.00  0.00    +0.028 C 
ATOM     16  C   UNL     1      -4.706   3.676  25.289  0.00  0.00    +0.073 C 
ATOM     17  N   UNL     1      -4.027   3.464  25.707  0.00  0.00    -0.268 NA
ATOM     29  C   UNL     1      -3.959   2.642  25.683  0.00  0.00    +0.082 C 
ENDROOT
BRANCH  14  12
ATOM      9  C   UNL     1      -4.573   0.245  24.875  0.00  0.00    +0.250 A 
ATOM     10  N   UNL     1      -5.378   0.410  24.808  0.00  0.00    -0.107 NA
ATOM     11  N   UNL     1      -5.486   1.217  24.941  0.00  0.00    -0.111 NA
ATOM     12  C   UNL     1      -4.746   1.551  25.089  0.00  0.00    +0.227 A 
ATOM     13  O   UNL     1      -4.182   0.950  25.048  0.00  0.00    -0.419 OA
BRANCH   9   6
ATOM      3  C   UNL     1      -3.515  -1.975  24.601  0.00  0.00    +0.139 A 
ATOM      4  C   UNL     1      -3.918  -1.630  23.970  0.00  0.00    +0.037 A 
ATOM      5  C   UNL     1      -4.271  -0.890  24.061  0.00  0.00    +0.008 A 
ATOM      6  C   UNL     1      -4.220  -0.495  24.784  0.00  0.00    +0.055 A 
ATOM      7  C   UNL     1      -3.817  -0.841  25.415  0.00  0.00    +0.008 A 
ATOM      8  C   UNL     1      -3.464  -1.581  25.323  0.00  0.00    +0.037 A 
BRANCH   3   2
ATOM      1  C   UNL     1      -2.346  -2.774  24.407  0.00  0.00    +0.252 C 
ATOM      2  O   UNL     1      -3.162  -2.715  24.510  0.00  0.00    -0.471 OA
ENDBRANCH   3   2
ENDBRANCH   9   6
ENDBRANCH  14  12
BRANCH  17  18
ATOM     18  C   UNL     1      -3.507   3.983  26.082  0.00  0.00    +0.101 C 
BRANCH  18  19
ATOM     19  C   UNL     1      -2.757   4.116  25.766  0.00  0.00    +0.013 A 
ATOM     20  C   UNL     1      -2.155   3.564  25.883  0.00  0.00    +0.000 A 
ATOM     21  C   UNL     1      -1.405   3.697  25.567  0.00  0.00    +0.017 A 
ATOM     22  C   UNL     1      -1.256   4.384  25.133  0.00  0.00    +0.081 A 
ATOM     23  C   UNL     1      -0.506   4.518  24.817  0.00  0.00    +0.019 A 
ATOM     24  C   UNL     1       0.095   3.966  24.934  0.00  0.00    +0.002 A 
ATOM     25  C   UNL     1      -0.054   3.279  25.368  0.00  0.00    +0.000 A 
ATOM     26  C   UNL     1      -0.804   3.145  25.684  0.00  0.00    +0.001 A 
ATOM     27  N   UNL     1      -1.858   4.936  25.016  0.00  0.00    -0.244 NA
ATOM     28  C   UNL     1      -2.608   4.803  25.332  0.00  0.00    +0.096 A 
ENDBRANCH  18  19
ENDBRANCH  17  18
TORSDOF 5
ENDMDL
MODEL 2
REMARK VINA RESULT:     -11.6      2.485      6.282
REMARK  Name = 
REMARK  5 active torsions:
REMARK  status: ('A' for Active; 'I' for Inactive)
REMARK    1  A    between atoms: O_2  and  C_3
REMARK    2  A    between atoms: C_6  and  C_9
REMARK    3  A    between atoms: C_12  and  C_14
REMARK    4  A    between atoms: N_17  and  C_18
REMARK    5  A    between atoms: C_18  and  C_19
REMARK                            x       y       z     vdW  Elec       q    Type
REMARK                         _______ _______ _______ _____ _____    ______ ____
ROOT
ATOM     14  C   UNL     1      -0.312   0.528  24.526  0.00  0.00    +0.096 C 
ATOM     15  C   UNL     1       0.017   0.004  23.980  0.00  0.00    +0.028 C 
ATOM     16  C   UNL     1      -0.229  -0.758  24.180  0.00  0.00    +0.073 C 
ATOM     17  N   UNL     1      -0.710  -0.705  24.848  0.00  0.00    -0.268 NA
ATOM     29  C   UNL     1      -0.762   0.091  25.062  0.00  0.00    +0.082 C 
ENDROOT
BRANCH  14  12
ATOM      9  C   UNL     1      -0.432   2.653  24.702  0.00  0.00    +0.250 A 
ATOM     10  N   UNL     1       0.325   2.561  24.389  0.00  0.00    -0.107 NA
ATOM     11  N   UNL     1       0.463   1.755  24.284  0.00  0.00    -0.111 NA
ATOM     12  C   UNL     1      -0.210   1.348  24.533  0.00  0.00    +0.227 A 
ATOM     13  O   UNL     1      -0.763   1.902  24.792  0.00  0.00    -0.419 OA
BRANCH   9   6
ATOM      3  C   UNL     1      -1.520   4.800  25.274  0.00  0.00    +0.139 A 
ATOM      4  C   UNL     1      -0.812   4.797  24.850  0.00  0.00    +0.037 A 
ATOM      5  C   UNL     1      -0.450   4.081  24.659  0.00  0.00    +0.008 A 
ATOM      6  C   UNL     1      -0.794   3.369  24.893  0.00  0.00    +0.055 A 
ATOM      7  C   UNL     1      -1.502   3.373  25.317  0.00  0.00    +0.008 A 
ATOM      8  C   UNL     1      -1.865   4.089  25.508  0.00  0.00    +0.037 A 
BRANCH   3   2
ATOM      1  C   UNL     1      -1.914   6.125  24.908  0.00  0.00    +0.252 C 
ATOM      2  O   UNL     1      -1.883   5.516  25.465  0.00  0.00    -0.471 OA
ENDBRANCH   3   2
ENDBRANCH   9   6
ENDBRANCH  14  12
BRANCH  17  18
ATOM     18  C   UNL     1      -1.075  -1.335  25.234  0.00  0.00    +0.101 C 
BRANCH  18  19
ATOM     19  C   UNL     1      -1.742  -1.690  24.904  0.00  0.00    +0.013 A 
ATOM     20  C   UNL     1      -2.459  -1.283  24.882  0.00  0.00    +0.000 A 
ATOM     21  C   UNL     1      -3.127  -1.638  24.551  0.00  0.00    +0.017 A 
ATOM     22  C   UNL     1      -3.077  -2.402  24.243  0.00  0.00    +0.081 A 
ATOM     23  C   UNL     1      -3.744  -2.758  23.913  0.00  0.00    +0.019 A 
ATOM     24  C   UNL     1      -4.460  -2.350  23.891  0.00  0.00    +0.002 A 
ATOM     25  C   UNL     1      -4.510  -1.585  24.199  0.00  0.00    +0.000 A 
ATOM     26  C   UNL     1      -3.843  -1.230  24.529  0.00  0.00    +0.001 A 
ATOM     27  N   UNL     1      -2.360  -2.810  24.266  0.00  0.00    -0.244 NA
ATOM     28  C   UNL     1      -1.693  -2.455  24.596  0.00  0.00    +0.096 A 
ENDBRANCH  18  19
ENDBRANCH  17  18
TORSDOF 5
ENDMDL
MODEL 3
REMARK VINA RESULT:     -11.4      2.198      5.655
REMARK  Name = 
REMARK  5 active torsions:
REMARK  status: ('A' for Active; 'I' for Inactive)
REMARK    1  A    between atoms: O_2  and  C_3
REMARK    2  A    between atoms: C_6  and  C_9
REMARK    3  A    between atoms: C_12  and  C_14
REMARK    4  A    between atoms: N_17  and  C_18
REMARK    5  A    between atoms: C_18  and  C_19
REMARK                            x       y       z     vdW  Elec       q    Type
REMARK                         _______ _______ _______ _____ _____    ______ ____
ROOT
ATOM     14  C   UNL     1      -0.843   1.241  24.519  0.00  0.00    +0.096 C 
ATOM     15  C   UNL     1      -0.208   1.069  24.021  0.00  0.00    +0.028 C 
ATOM     16  C   UNL     1       0.008   0.283  24.146  0.00  0.00    +0.073 C 
ATOM     17  N   UNL     1      -0.494  -0.032  24.721  0.00  0.00    -0.268 NA
ATOM     29  C   UNL     1      -1.020   0.561  24.951  0.00  0.00    +0.082 C 
ENDROOT
BRANCH  14  12
ATOM      9  C   UNL     1      -2.184   2.886  24.746  0.00  0.00    +0.250 A 
ATOM     10  N   UNL     1      -1.480   3.278  24.574  0.00  0.00    -0.107 NA
ATOM     11  N   UNL     1      -0.891   2.710  24.467  0.00  0.00    -0.111 NA
ATOM     12  C   UNL     1      -1.232   1.967  24.574  0.00  0.00    +0.227 A 
ATOM     13  O   UNL     1      -2.032   2.075  24.747  0.00  0.00    -0.419 OA
BRANCH   9   6
ATOM      3  C   UNL     1      -4.373   3.954  25.186  0.00  0.00    +0.139 A 
ATOM      4  C   UNL     1      -4.201   3.662  24.434  0.00  0.00    +0.037 A 
ATOM      5  C   UNL     1      -3.471   3.306  24.287  0.00  0.00    +0.008 A 
ATOM      6  C   UNL     1      -2.914   3.242  24.893  0.00  0.00    +0.055 A 
ATOM      7  C   UNL     1      -3.087   3.534  25.645  0.00  0.00    +0.008 A 
ATOM      8  C   UNL     1      -3.817   3.890  25.791  0.00  0.00    +0.037 A 
BRANCH   3   2
ATOM      1  C   UNL     1      -5.721   3.868  25.653  0.00  0.00    +0.252 C 
ATOM      2  O   UNL     1      -5.103   4.310  25.333  0.00  0.00    -0.471 OA
ENDBRANCH   3   2
ENDBRANCH   9   6
ENDBRANCH  14  12
BRANCH  17  18
ATOM     18  C   UNL     1      -0.474  -0.802  25.013  0.00  0.00    +0.101 C 
BRANCH  18  19
ATOM     19  C   UNL     1      -1.074  -1.333  24.820  0.00  0.00    +0.013 A 
ATOM     20  C   UNL     1      -1.801  -1.295  25.209  0.00  0.00    +0.000 A 
ATOM     21  C   UNL     1      -2.402  -1.826  25.016  0.00  0.00    +0.017 A 
ATOM     22  C   UNL     1      -2.277  -2.396  24.432  0.00  0.00    +0.081 A 
ATOM     23  C   UNL     1      -2.877  -2.927  24.239  0.00  0.00    +0.019 A 
ATOM     24  C   UNL     1      -3.603  -2.889  24.628  0.00  0.00    +0.002 A 
ATOM     25  C   UNL     1      -3.728  -2.318  25.212  0.00  0.00    +0.000 A 
ATOM     26  C   UNL     1      -3.128  -1.787  25.405  0.00  0.00    +0.001 A 
ATOM     27  N   UNL     1      -1.550  -2.435  24.043  0.00  0.00    -0.244 NA
ATOM     28  C   UNL     1      -0.949  -1.904  24.236  0.00  0.00    +0.096 A 
ENDBRANCH  18  19
ENDBRANCH  17  18
TORSDOF 5
ENDMDL
MODEL 4
REMARK VINA RESULT:     -11.4      1.857      3.261
REMARK  Name = 
REMARK  5 active torsions:
REMARK  status: ('A' for Active; 'I' for Inactive)
REMARK    1  A    between atoms: O_2  and  C_3
REMARK    2  A    between atoms: C_6  and  C_9
REMARK    3  A    between atoms: C_12  and  C_14
REMARK    4  A    between atoms: N_17  and  C_18
REMARK    5  A    between atoms: C_18  and  C_19
REMARK                            x       y       z     vdW  Elec       q    Type
REMARK                         _______ _______ _______ _____ _____    ______ ____
ROOT
ATOM     14  C   UNL     1      -0.675   1.573  25.110  0.00  0.00    +0.096 C 
ATOM     15  C   UNL     1      -0.083   1.928  25.562  0.00  0.00    +0.028 C 
ATOM     16  C   UNL     1      -0.258   2.732  25.621  0.00  0.00    +0.073 C 
ATOM     17  N   UNL     1      -0.957   2.875  25.206  0.00  0.00    -0.268 NA
ATOM     29  C   UNL     1      -1.215   2.157  24.890  0.00  0.00    +0.082 C 
ENDROOT
BRANCH  14  12
ATOM      9  C   UNL     1      -1.189  -0.459  24.704  0.00  0.00    +0.250 A 
ATOM     10  N   UNL     1      -0.387  -0.456  24.512  0.00  0.00    -0.107 NA
ATOM     11  N   UNL     1      -0.097   0.305  24.640  0.00  0.00    -0.111 NA
ATOM     12  C   UNL     1      -0.719   0.773  24.912  0.00  0.00    +0.227 A 
ATOM     13  O   UNL     1      -1.395   0.300  24.952  0.00  0.00    -0.419 OA
BRANCH   9   6
ATOM      3  C   UNL     1      -2.711  -2.405  24.565  0.00  0.00    +0.139 A 
ATOM      4  C   UNL     1      -1.894  -2.520  24.554  0.00  0.00    +0.037 A 
ATOM      5  C   UNL     1      -1.386  -1.871  24.600  0.00  0.00    +0.008 A 
ATOM      6  C   UNL     1      -1.696  -1.108  24.658  0.00  0.00    +0.055 A 
ATOM      7  C   UNL     1      -2.513  -0.995  24.668  0.00  0.00    +0.008 A 
ATOM      8  C   UNL     1      -3.021  -1.644  24.622  0.00  0.00    +0.037 A 
BRANCH   3   2
ATOM      1  C   UNL     1      -3.961  -2.974  24.167  0.00  0.00    +0.252 C 
ATOM      2  O   UNL     1      -3.218  -3.054  24.518  0.00  0.00    -0.471 OA
ENDBRANCH   3   2
ENDBRANCH   9   6
ENDBRANCH  14  12
BRANCH  17  18
ATOM     18  C   UNL     1      -1.332   3.604  25.123  0.00  0.00    +0.101 C 
BRANCH  18  19
ATOM     19  C   UNL     1      -2.121   3.691  25.345  0.00  0.00    +0.013 A 
ATOM     20  C   UNL     1      -2.723   3.492  24.818  0.00  0.00    +0.000 A 
ATOM     21  C   UNL     1      -3.513   3.579  25.040  0.00  0.00    +0.017 A 
ATOM     22  C   UNL     1      -3.701   3.864  25.792  0.00  0.00    +0.081 A 
ATOM     23  C   UNL     1      -4.490   3.951  26.015  0.00  0.00    +0.019 A 
ATOM     24  C   UNL     1      -5.092   3.753  25.487  0.00  0.00    +0.002 A 
ATOM     25  C   UNL     1      -4.904   3.467  24.735  0.00  0.00    +0.000 A 
ATOM     26  C   UNL     1      -4.115   3.380  24.513  0.00  0.00    +0.001 A 
ATOM     27  N   UNL     1      -3.098   4.063  26.320  0.00  0.00    -0.244 NA
ATOM     28  C   UNL     1      -2.308   3.976  26.097  0.00  0.00    +0.096 A 
ENDBRANCH  18  19
ENDBRANCH  17  18
TORSDOF 5
ENDMDL
MODEL 5
REMARK VINA RESULT:     -11.3      1.920      3.764
REMARK  Name = 
REMARK  5 active torsions:
REMARK  status: ('A' for Active; 'I' for Inactive)
REMARK    1  A    between atoms: O_2  and  C_3
REMARK    2  A    between atoms: C_6  and  C_9
REMARK    3  A    between atoms: C_12  and  C_14
REMARK    4  A    between atoms: N_17  and  C_18
REMARK    5  A    between atoms: C_18  and  C_19
REMARK                            x       y       z     vdW  Elec       q    Type
REMARK                         _______ _______ _______ _____ _____    ______ ____
ROOT
ATOM     14  C   UNL     1      -1.462   2.978  25.129  0.00  0.00    +0.096 C 
ATOM     15  C   UNL     1      -1.199   3.715  25.389  0.00  0.00    +0.028 C 
ATOM     16  C   UNL     1      -1.829   4.244  25.335  0.00  0.00    +0.073 C 
ATOM     17  N   UNL     1      -2.483   3.834  25.041  0.00  0.00    -0.268 NA
ATOM     29  C   UNL     1      -2.255   3.051  24.914  0.00  0.00    +0.082 C 
ENDROOT
BRANCH  14  12
ATOM      9  C   UNL     1      -0.663   1.001  25.033  0.00  0.00    +0.250 A 
ATOM     10  N   UNL     1       0.027   1.452  25.028  0.00  0.00    -0.107 NA
ATOM     11  N   UNL     1      -0.188   2.247  25.063  0.00  0.00    -0.111 NA
ATOM     12  C   UNL     1      -1.011   2.288  25.090  0.00  0.00    +0.227 A 
ATOM     13  O   UNL     1      -1.305   1.517  25.072  0.00  0.00    -0.419 OA
BRANCH   9   6
ATOM      3  C   UNL     1      -0.786  -1.470  24.950  0.00  0.00    +0.139 A 
ATOM      4  C   UNL     1      -1.137  -1.060  25.575  0.00  0.00    +0.037 A 
ATOM      5  C   UNL     1      -1.096  -0.237  25.602  0.00  0.00    +0.008 A 
ATOM      6  C   UNL     1      -0.704   0.177  25.006  0.00  0.00    +0.055 A 
ATOM      7  C   UNL     1      -0.354  -0.233  24.381  0.00  0.00    +0.008 A 
ATOM      8  C   UNL     1      -0.395  -1.056  24.353  0.00  0.00    +0.037 A 
BRANCH   3   2
ATOM      1  C   UNL     1      -1.504  -2.663  24.629  0.00  0.00    +0.252 C 
ATOM      2  O   UNL     1      -0.827  -2.293  24.922  0.00  0.00    -0.471 OA
ENDBRANCH   3   2
ENDBRANCH   9   6
ENDBRANCH  14  12
BRANCH  17  18
ATOM     18  C   UNL     1      -3.231   4.151  24.900  0.00  0.00    +0.101 C 
BRANCH  18  19
ATOM     19  C   UNL     1      -3.902   3.766  25.183  0.00  0.00    +0.013 A 
ATOM     20  C   UNL     1      -4.273   3.189  24.724  0.00  0.00    +0.000 A 
ATOM     21  C   UNL     1      -4.945   2.803  25.007  0.00  0.00    +0.017 A 
ATOM     22  C   UNL     1      -5.248   2.994  25.751  0.00  0.00    +0.081 A 
ATOM     23  C   UNL     1      -5.919   2.609  26.035  0.00  0.00    +0.019 A 
ATOM     24  C   UNL     1      -6.289   2.033  25.575  0.00  0.00    +0.002 A 
ATOM     25  C   UNL     1      -5.986   1.842  24.831  0.00  0.00    +0.000 A 
ATOM     26  C   UNL     1      -5.315   2.227  24.547  0.00  0.00    +0.001 A 
ATOM     27  N   UNL     1      -4.877   3.571  26.211  0.00  0.00    -0.244 NA
ATOM     28  C   UNL     1      -4.205   3.957  25.928  0.00  0.00    +0.096 A 
ENDBRANCH  18  19
ENDBRANCH  17  18
TORSDOF 5
ENDMDL
MODEL 6
REMARK VINA RESULT:     -11.3      0.955      1.453
REMARK  Name = 
REMARK  5 active torsions:
REMARK  status: ('A' for Active; 'I' for Inactive)
REMARK    1  A    between atoms: O_2  and  C_3
REMARK    2  A    between atoms: C_6  and  C_9
REMARK    3  A    between atoms: C_12  and  C_14
REMARK    4  A    between atoms: N_17  and  C_18
REMARK    5  A    between atoms: C_18  and  C_19
REMARK                            x       y       z     vdW  Elec       q    Type
REMARK                         _______ _______ _______ _____ _____    ______ ____
ROOT
ATOM     14  C   UNL     1      -4.796   1.305  24.945  0.00  0.00    +0.096 C 
ATOM     15  C   UNL     1      -5.431   1.536  25.419  0.00  0.00    +0.028 C 
ATOM     16  C   UNL     1      -5.425   2.360  25.467  0.00  0.00    +0.073 C 
ATOM     17  N   UNL     1      -4.787   2.638  25.022  0.00  0.00    -0.268 NA
ATOM     29  C   UNL     1      -4.399   1.985  24.700  0.00  0.00    +0.082 C 
ENDROOT
BRANCH  14  12
ATOM      9  C   UNL     1      -3.907  -0.605  24.602  0.00  0.00    +0.250 A 
ATOM     10  N   UNL     1      -4.664  -0.726  24.299  0.00  0.00    -0.107 NA
ATOM     11  N   UNL     1      -5.090  -0.025  24.391  0.00  0.00    -0.111 NA
ATOM     12  C   UNL     1      -4.595   0.528  24.750  0.00  0.00    +0.227 A 
ATOM     13  O   UNL     1      -3.864   0.170  24.881  0.00  0.00    -0.419 OA
BRANCH   9   6
ATOM      3  C   UNL     1      -2.082  -2.276  24.664  0.00  0.00    +0.139 A 
ATOM      4  C   UNL     1      -2.869  -2.525  24.641  0.00  0.00    +0.037 A 
ATOM      5  C   UNL     1      -3.477  -1.968  24.620  0.00  0.00    +0.008 A 
ATOM      6  C   UNL     1      -3.299  -1.162  24.623  0.00  0.00    +0.055 A 
ATOM      7  C   UNL     1      -2.512  -0.914  24.646  0.00  0.00    +0.008 A 
ATOM      8  C   UNL     1      -1.904  -1.471  24.667  0.00  0.00    +0.037 A 
BRANCH   3   2
ATOM      1  C   UNL     1      -0.729  -2.620  24.966  0.00  0.00    +0.252 C 
ATOM      2  O   UNL     1      -1.474  -2.833  24.685  0.00  0.00    -0.471 OA
ENDBRANCH   3   2
ENDBRANCH   9   6
ENDBRANCH  14  12
BRANCH  17  18
ATOM     18  C   UNL     1      -4.575   3.428  24.919  0.00  0.00    +0.101 C 
BRANCH  18  19
ATOM     19  C   UNL     1      -3.827   3.687  25.148  0.00  0.00    +0.013 A 
ATOM     20  C   UNL     1      -3.208   3.698  24.602  0.00  0.00    +0.000 A 
ATOM     21  C   UNL     1      -2.459   3.958  24.830  0.00  0.00    +0.017 A 
ATOM     22  C   UNL     1      -2.328   4.208  25.606  0.00  0.00    +0.081 A 
ATOM     23  C   UNL     1      -1.580   4.468  25.835  0.00  0.00    +0.019 A 
ATOM     24  C   UNL     1      -0.962   4.478  25.289  0.00  0.00    +0.002 A 
ATOM     25  C   UNL     1      -1.093   4.228  24.513  0.00  0.00    +0.000 A 
ATOM     26  C   UNL     1      -1.841   3.969  24.284  0.00  0.00    +0.001 A 
ATOM     27  N   UNL     1      -2.947   4.197  26.153  0.00  0.00    -0.244 NA
ATOM     28  C   UNL     1      -3.696   3.937  25.924  0.00  0.00    +0.096 A 
ENDBRANCH  18  19
ENDBRANCH  17  18
TORSDOF 5
ENDMDL
MODEL 7
REMARK VINA RESULT:     -11.0      1.630      5.188
REMARK  Name = 
REMARK  5 active torsions:
REMARK  status: ('A' for Active; 'I' for Inactive)
REMARK    1  A    between atoms: O_2  and  C_3
REMARK    2  A    between atoms: C_6  and  C_9
REMARK    3  A    between atoms: C_12  and  C_14
REMARK    4  A    between atoms: N_17  and  C_18
REMARK    5  A    between atoms: C_18  and  C_19
REMARK                            x       y       z     vdW  Elec       q    Type
REMARK                         _______ _______ _______ _____ _____    ______ ____
ROOT
ATOM     14  C   UNL     1      -4.367   0.958  24.923  0.00  0.00    +0.096 C 
ATOM     15  C   UNL     1      -4.844   0.599  24.354  0.00  0.00    +0.028 C 
ATOM     16  C   UNL     1      -4.785  -0.218  24.450  0.00  0.00    +0.073 C 
ATOM     17  N   UNL     1      -4.271  -0.365  25.079  0.00  0.00    -0.268 NA
ATOM     29  C   UNL     1      -4.013   0.362  25.371  0.00  0.00    +0.082 C 
ENDROOT
BRANCH  14  12
ATOM      9  C   UNL     1      -3.693   2.970  25.150  0.00  0.00    +0.250 A 
ATOM     10  N   UNL     1      -4.509   3.067  25.218  0.00  0.00    -0.107 NA
ATOM     11  N   UNL     1      -4.861   2.325  25.142  0.00  0.00    -0.111 NA
ATOM     12  C   UNL     1      -4.262   1.770  25.026  0.00  0.00    +0.227 A 
ATOM     13  O   UNL     1      -3.540   2.168  25.031  0.00  0.00    -0.419 OA
BRANCH   9   6
ATOM      3  C   UNL     1      -1.999   4.770  25.279  0.00  0.00    +0.139 A 
ATOM      4  C   UNL     1      -2.133   4.381  24.564  0.00  0.00    +0.037 A 
ATOM      5  C   UNL     1      -2.698   3.781  24.521  0.00  0.00    +0.008 A 
ATOM      6  C   UNL     1      -3.128   3.570  25.193  0.00  0.00    +0.055 A 
ATOM      7  C   UNL     1      -2.993   3.960  25.907  0.00  0.00    +0.008 A 
ATOM      8  C   UNL     1      -2.429   4.560  25.950  0.00  0.00    +0.037 A 
BRANCH   3   2
ATOM      1  C   UNL     1      -0.751   5.327  24.862  0.00  0.00    +0.252 C 
ATOM      2  O   UNL     1      -1.434   5.370  25.321  0.00  0.00    -0.471 OA
ENDBRANCH   3   2
ENDBRANCH   9   6
ENDBRANCH  14  12
BRANCH  17  18
ATOM     18  C   UNL     1      -4.053  -1.107  25.365  0.00  0.00    +0.101 C 
BRANCH  18  19
ATOM     19  C   UNL     1      -3.337  -1.444  25.136  0.00  0.00    +0.013 A 
ATOM     20  C   UNL     1      -2.629  -1.170  25.458  0.00  0.00    +0.000 A 
ATOM     21  C   UNL     1      -1.912  -1.507  25.229  0.00  0.00    +0.017 A 
ATOM     22  C   UNL     1      -1.902  -2.120  24.675  0.00  0.00    +0.081 A 
ATOM     23  C   UNL     1      -1.186  -2.457  24.445  0.00  0.00    +0.019 A 
ATOM     24  C   UNL     1      -0.479  -2.183  24.768  0.00  0.00    +0.002 A 
ATOM     25  C   UNL     1      -0.488  -1.570  25.322  0.00  0.00    +0.000 A 
ATOM     26  C   UNL     1      -1.204  -1.233  25.552  0.00  0.00    +0.001 A 
ATOM     27  N   UNL     1      -2.611  -2.394  24.352  0.00  0.00    -0.244 NA
ATOM     28  C   UNL     1      -3.328  -2.057  24.582  0.00  0.00    +0.096 A 
ENDBRANCH  18  19
ENDBRANCH  17  18
TORSDOF 5
ENDMDL
