MODEL 1
REMARK VINA RESULT:     -10.9      0.000      0.000
REMARK  Name = 
REMARK  5 active torsions:
REMARK  status: ('A' for Active; 'I' for Inactive)
REMARK    1  A    between atoms: C_2  and  C_3
REMARK    2  A    between atoms: C_5  and  C_6
REMARK    3  A    between atoms: C_6  and  N_7
REMARK    4  A    between atoms: N_10  and  C_11
REMARK    5  A    between atoms: C_19  and  N_22
REMARK                            x       y       z     vdW  Elec       q    Type
REMARK                         _______ _______ _______ _____ _____    ______ ____
ROOT
ATOM      3  C   UNL     1      -3.618   3.551  25.172  0.00  0.00    +0.180 C 
ATOM      4  O   UNL     1      -3.726   2.743  25.050  0.00  0.00    -0.350 OA
ATOM      5  C   UNL     1      -2.982   2.390  25.005  0.00  0.00    +0.154 C 
ATOM     19  C   UNL     1      -2.413   2.981  25.100  0.00  0.00    +0.120 C 
ATOM     20  C   UNL     1      -2.807   3.699  25.203  0.00  0.00    +0.198 C 
ATOM     21  O   UNL     1      -2.451   4.434  25.317  0.00  0.00    -0.219 OA
ENDROOT
BRANCH  19  22
ATOM     22  N   UNL     1      -1.595   2.872  25.092  0.00  0.00    -0.270 NA
ATOM     23  C   UNL     1      -1.118   2.739  25.751  0.00  0.00    +0.072 C 
ATOM     24  C   UNL     1      -0.339   2.662  25.490  0.00  0.00    +0.019 C 
ATOM     25  C   UNL     1      -0.335   2.747  24.669  0.00  0.00    +0.019 C 
ATOM     26  C   UNL     1      -1.112   2.877  24.423  0.00  0.00    +0.072 C 
ENDBRANCH  19  22
BRANCH   3   2
ATOM      1  O   UNL     1      -4.987   3.877  25.420  0.00  0.00    -0.218 OA
ATOM      2  C   UNL     1      -4.216   4.115  25.250  0.00  0.00    +0.214 C 
ENDBRANCH   3   2
BRANCH   5   6
ATOM      6  C   UNL     1      -2.832   1.587  24.886  0.00  0.00    +0.148 C 
BRANCH   6   7
ATOM      7  N   UNL     1      -3.452   1.074  24.707  0.00  0.00    -0.184 NA
ATOM      8  C   UNL     1      -3.337   0.258  24.749  0.00  0.00    +0.344 C 
ATOM      9  O   UNL     1      -2.604  -0.044  24.971  0.00  0.00    -0.249 OA
ATOM     10  N   UNL     1      -3.958  -0.255  24.569  0.00  0.00    -0.159 NA
BRANCH  10  11
ATOM     11  C   UNL     1      -3.843  -1.071  24.612  0.00  0.00    +0.102 A 
ATOM     12  C   UNL     1      -3.527  -1.407  25.296  0.00  0.00    +0.021 A 
ATOM     13  C   UNL     1      -3.412  -2.223  25.339  0.00  0.00    +0.031 A 
ATOM     14  C   UNL     1      -3.613  -2.702  24.699  0.00  0.00    +0.142 A 
ATOM     15  F   UNL     1      -3.498  -3.518  24.742  0.00  0.00    -0.204 F 
ATOM     16  C   UNL     1      -3.929  -2.366  24.015  0.00  0.00    +0.061 A 
ATOM     17  C   UNL     1      -4.044  -1.550  23.972  0.00  0.00    +0.158 A 
ATOM     18  F   UNL     1      -4.361  -1.214  23.288  0.00  0.00    -0.203 F 
ENDBRANCH  10  11
ENDBRANCH   6   7
ENDBRANCH   5   6
TORSDOF 5
ENDMDL
MODEL 2
REMARK VINA RESULT:     -10.6      1.164      2.321
REMARK  Name = 
REMARK  5 active torsions:
REMARK  status: ('A' for Active; 'I' for Inactive)
REMARK    1  A    between atoms: C_2  and  C_3
REMARK    2  A    between atoms: C_5  and  C_6
REMARK    3  A    between atoms: C_6  and  N_7
REMARK    4  A    between atoms: N_10  and  C_11
REMARK    5  A    between atoms: C_19  and  N_22
REMARK                            x       y       z     vdW  Elec       q    Type
REMARK                         _______ _______ _______ _____ _____    ______ ____
ROOT
ATOM      3  C   UNL     1      -1.394   3.155  25.327  0.00  0.00    +0.180 C 
ATOM      4  O   UNL     1      -1.610   2.372  25.181  0.00  0.00    -0.350 OA
ATOM      5  C   UNL     1      -2.428   2.348  25.078  0.00  0.00    +0.154 C 
ATOM     19  C   UNL     1      -2.718   3.116  25.161  0.00  0.00    +0.120 C 
ATOM     20  C   UNL     1      -2.078   3.615  25.315  0.00  0.00    +0.198 C 
ATOM     21  O   UNL     1      -2.118   4.430  25.436  0.00  0.00    -0.219 OA
ENDROOT
BRANCH  19  22
ATOM     22  N   UNL     1      -3.509   3.345  25.101  0.00  0.00    -0.270 NA
ATOM     23  C   UNL     1      -3.899   3.563  24.408  0.00  0.00    +0.072 C 
ATOM     24  C   UNL     1      -4.679   3.748  24.603  0.00  0.00    +0.019 C 
ATOM     25  C   UNL     1      -4.771   3.644  25.416  0.00  0.00    +0.019 C 
ATOM     26  C   UNL     1      -4.047   3.395  25.724  0.00  0.00    +0.072 C 
ENDBRANCH  19  22
BRANCH   3   2
ATOM      1  O   UNL     1      -0.062   2.929  25.793  0.00  0.00    -0.218 OA
ATOM      2  C   UNL     1      -0.628   3.430  25.462  0.00  0.00    +0.214 C 
ENDBRANCH   3   2
BRANCH   5   6
ATOM      6  C   UNL     1      -2.878   1.674  24.920  0.00  0.00    +0.148 C 
BRANCH   6   7
ATOM      7  N   UNL     1      -2.503   0.963  24.736  0.00  0.00    -0.184 NA
ATOM      8  C   UNL     1      -2.947   0.272  24.660  0.00  0.00    +0.344 C 
ATOM      9  O   UNL     1      -3.763   0.292  24.766  0.00  0.00    -0.249 OA
ATOM     10  N   UNL     1      -2.572  -0.441  24.476  0.00  0.00    -0.159 NA
BRANCH  10  11
ATOM     11  C   UNL     1      -3.016  -1.132  24.400  0.00  0.00    +0.102 A 
ATOM     12  C   UNL     1      -3.732  -1.118  23.989  0.00  0.00    +0.021 A 
ATOM     13  C   UNL     1      -4.176  -1.809  23.913  0.00  0.00    +0.031 A 
ATOM     14  C   UNL     1      -3.905  -2.513  24.246  0.00  0.00    +0.142 A 
ATOM     15  F   UNL     1      -4.350  -3.204  24.169  0.00  0.00    -0.204 F 
ATOM     16  C   UNL     1      -3.189  -2.527  24.656  0.00  0.00    +0.061 A 
ATOM     17  C   UNL     1      -2.745  -1.835  24.733  0.00  0.00    +0.158 A 
ATOM     18  F   UNL     1      -2.029  -1.849  25.143  0.00  0.00    -0.203 F 
ENDBRANCH  10  11
ENDBRANCH   6   7
ENDBRANCH   5   6
TORSDOF 5
ENDMDL
MODEL 3
REMARK VINA RESULT:     -10.0      2.546      5.028
REMARK  Name = 
REMARK  5 active torsions:
REMARK  status: ('A' for Active; 'I' for Inactive)
REMARK    1  A    between atoms: C_2  and  C_3
REMARK    2  A    between atoms: C_5  and  C_6
REMARK    3  A    between atoms: C_6  and  N_7
REMARK    4  A    between atoms: N_10  and  C_11
REMARK    5  A    between atoms: C_19  and  N_22
REMARK                            x       y       z     vdW  Elec       q    Type
REMARK                         _______ _______ _______ _____ _____    ______ ____
ROOT
ATOM      3  C   UNL     1      -0.865  -0.688  24.361  0.00  0.00    +0.180 C 
ATOM      4  O   UNL     1      -1.404  -0.069  24.449  0.00  0.00    -0.350 OA
ATOM      5  C   UNL     1      -2.148  -0.396  24.585  0.00  0.00    +0.154 C 
ATOM     19  C   UNL     1      -2.070  -1.218  24.581  0.00  0.00    +0.120 C 
ATOM     20  C   UNL     1      -1.276  -1.398  24.443  0.00  0.00    +0.198 C 
ATOM     21  O   UNL     1      -0.953  -2.155  24.395  0.00  0.00    -0.219 OA
ENDROOT
BRANCH  19  22
ATOM     22  N   UNL     1      -2.679  -1.763  24.695  0.00  0.00    -0.270 NA
ATOM     23  C   UNL     1      -3.158  -2.086  24.107  0.00  0.00    +0.072 C 
ATOM     24  C   UNL     1      -3.690  -2.603  24.467  0.00  0.00    +0.019 C 
ATOM     25  C   UNL     1      -3.540  -2.601  25.279  0.00  0.00    +0.019 C 
ATOM     26  C   UNL     1      -2.914  -2.081  25.420  0.00  0.00    +0.072 C 
ENDBRANCH  19  22
BRANCH   3   2
ATOM      1  O   UNL     1       0.230   0.051  23.816  0.00  0.00    -0.218 OA
ATOM      2  C   UNL     1      -0.056  -0.610  24.217  0.00  0.00    +0.214 C 
ENDBRANCH   3   2
BRANCH   5   6
ATOM      6  C   UNL     1      -2.849   0.024  24.703  0.00  0.00    +0.148 C 
BRANCH   6   7
ATOM      7  N   UNL     1      -2.879   0.831  24.535  0.00  0.00    -0.184 NA
ATOM      8  C   UNL     1      -3.508   1.286  24.812  0.00  0.00    +0.344 C 
ATOM      9  O   UNL     1      -4.107   0.935  25.257  0.00  0.00    -0.249 OA
ATOM     10  N   UNL     1      -3.539   2.093  24.643  0.00  0.00    -0.159 NA
BRANCH  10  11
ATOM     11  C   UNL     1      -4.168   2.549  24.920  0.00  0.00    +0.102 A 
ATOM     12  C   UNL     1      -4.941   2.264  24.858  0.00  0.00    +0.021 A 
ATOM     13  C   UNL     1      -5.571   2.720  25.136  0.00  0.00    +0.031 A 
ATOM     14  C   UNL     1      -5.429   3.457  25.475  0.00  0.00    +0.142 A 
ATOM     15  F   UNL     1      -6.059   3.912  25.752  0.00  0.00    -0.204 F 
ATOM     16  C   UNL     1      -4.657   3.741  25.537  0.00  0.00    +0.061 A 
ATOM     17  C   UNL     1      -4.026   3.286  25.259  0.00  0.00    +0.158 A 
ATOM     18  F   UNL     1      -3.255   3.570  25.322  0.00  0.00    -0.203 F 
ENDBRANCH  10  11
ENDBRANCH   6   7
ENDBRANCH   5   6
TORSDOF 5
ENDMDL
MODEL 4
REMARK VINA RESULT:     -10.0      2.518      5.518
REMARK  Name = 
REMARK  5 active torsions:
REMARK  status: ('A' for Active; 'I' for Inactive)
REMARK    1  A    between atoms: C_2  and  C_3
REMARK    2  A    between atoms: C_5  and  C_6
REMARK    3  A    between atoms: C_6  and  N_7
REMARK    4  A    between atoms: N_10  and  C_11
REMARK    5  A    between atoms: C_19  and  N_22
REMARK                            x       y       z     vdW  Elec       q    Type
REMARK                         _______ _______ _______ _____ _____    ______ ____
ROOT
ATOM      3  C   UNL     1      -1.174  -1.345  24.953  0.00  0.00    +0.180 C 
ATOM      4  O   UNL     1      -1.095  -0.527  25.030  0.00  0.00    -0.350 OA
ATOM      5  C   UNL     1      -1.841  -0.189  24.935  0.00  0.00    +0.154 C 
ATOM     19  C   UNL     1      -2.382  -0.798  24.800  0.00  0.00    +0.120 C 
ATOM     20  C   UNL     1      -1.969  -1.513  24.811  0.00  0.00    +0.198 C 
ATOM     21  O   UNL     1      -2.295  -2.262  24.700  0.00  0.00    -0.219 OA
ENDROOT
BRANCH  19  22
ATOM     22  N   UNL     1      -3.193  -0.708  24.675  0.00  0.00    -0.270 NA
ATOM     23  C   UNL     1      -3.772  -0.668  25.261  0.00  0.00    +0.072 C 
ATOM     24  C   UNL     1      -4.503  -0.577  24.889  0.00  0.00    +0.019 C 
ATOM     25  C   UNL     1      -4.376  -0.561  24.075  0.00  0.00    +0.019 C 
ATOM     26  C   UNL     1      -3.565  -0.642  23.942  0.00  0.00    +0.072 C 
ENDBRANCH  19  22
BRANCH   3   2
ATOM      1  O   UNL     1       0.026  -1.807  25.577  0.00  0.00    -0.218 OA
ATOM      2  C   UNL     1      -0.564  -1.899  25.009  0.00  0.00    +0.214 C 
ENDBRANCH   3   2
BRANCH   5   6
ATOM      6  C   UNL     1      -2.017   0.617  24.969  0.00  0.00    +0.148 C 
BRANCH   6   7
ATOM      7  N   UNL     1      -1.424   1.160  25.152  0.00  0.00    -0.184 NA
ATOM      8  C   UNL     1      -1.585   1.969  25.125  0.00  0.00    +0.344 C 
ATOM      9  O   UNL     1      -2.336   2.233  24.916  0.00  0.00    -0.249 OA
ATOM     10  N   UNL     1      -0.991   2.513  25.307  0.00  0.00    -0.159 NA
BRANCH  10  11
ATOM     11  C   UNL     1      -1.152   3.321  25.281  0.00  0.00    +0.102 A 
ATOM     12  C   UNL     1      -1.812   3.624  25.674  0.00  0.00    +0.021 A 
ATOM     13  C   UNL     1      -1.972   4.432  25.647  0.00  0.00    +0.031 A 
ATOM     14  C   UNL     1      -1.474   4.938  25.228  0.00  0.00    +0.142 A 
ATOM     15  F   UNL     1      -1.636   5.748  25.202  0.00  0.00    -0.204 F 
ATOM     16  C   UNL     1      -0.815   4.637  24.836  0.00  0.00    +0.061 A 
ATOM     17  C   UNL     1      -0.654   3.827  24.862  0.00  0.00    +0.158 A 
ATOM     18  F   UNL     1       0.006   3.526  24.469  0.00  0.00    -0.203 F 
ENDBRANCH  10  11
ENDBRANCH   6   7
ENDBRANCH   5   6
TORSDOF 5
ENDMDL
MODEL 5
REMARK VINA RESULT:      -9.9      2.433      4.778
REMARK  Name = 
REMARK  5 active torsions:
REMARK  status: ('A' for Active; 'I' for Inactive)
REMARK    1  A    between atoms: C_2  and  C_3
REMARK    2  A    between atoms: C_5  and  C_6
REMARK    3  A    between atoms: C_6  and  N_7
REMARK    4  A    between atoms: N_10  and  C_11
REMARK    5  A    between atoms: C_19  and  N_22
REMARK                            x       y       z     vdW  Elec       q    Type
REMARK                         _______ _______ _______ _____ _____    ______ ____
ROOT
ATOM      3  C   UNL     1      -3.367  -2.233  24.391  0.00  0.00    +0.180 C 
ATOM      4  O   UNL     1      -3.735  -1.498  24.472  0.00  0.00    -0.350 OA
ATOM      5  C   UNL     1      -3.157  -0.944  24.666  0.00  0.00    +0.154 C 
ATOM     19  C   UNL     1      -2.430  -1.334  24.704  0.00  0.00    +0.120 C 
ATOM     20  C   UNL     1      -2.561  -2.131  24.534  0.00  0.00    +0.198 C 
ATOM     21  O   UNL     1      -1.986  -2.722  24.512  0.00  0.00    -0.219 OA
ENDROOT
BRANCH  19  22
ATOM     22  N   UNL     1      -1.703  -0.988  24.882  0.00  0.00    -0.270 NA
ATOM     23  C   UNL     1      -1.384  -0.889  25.636  0.00  0.00    +0.072 C 
ATOM     24  C   UNL     1      -0.650  -0.520  25.555  0.00  0.00    +0.019 C 
ATOM     25  C   UNL     1      -0.516  -0.391  24.752  0.00  0.00    +0.019 C 
ATOM     26  C   UNL     1      -1.167  -0.681  24.335  0.00  0.00    +0.072 C 
ENDBRANCH  19  22
BRANCH   3   2
ATOM      1  O   UNL     1      -4.450  -2.938  23.781  0.00  0.00    -0.218 OA
ATOM      2  C   UNL     1      -3.740  -2.944  24.200  0.00  0.00    +0.214 C 
ENDBRANCH   3   2
BRANCH   5   6
ATOM      6  C   UNL     1      -3.282  -0.138  24.798  0.00  0.00    +0.148 C 
BRANCH   6   7
ATOM      7  N   UNL     1      -4.042   0.176  24.736  0.00  0.00    -0.184 NA
ATOM      8  C   UNL     1      -4.174   0.971  24.914  0.00  0.00    +0.344 C 
ATOM      9  O   UNL     1      -3.548   1.450  25.152  0.00  0.00    -0.249 OA
ATOM     10  N   UNL     1      -4.935   1.285  24.852  0.00  0.00    -0.159 NA
BRANCH  10  11
ATOM     11  C   UNL     1      -5.067   2.080  25.030  0.00  0.00    +0.102 A 
ATOM     12  C   UNL     1      -4.592   2.663  24.690  0.00  0.00    +0.021 A 
ATOM     13  C   UNL     1      -4.724   3.458  24.867  0.00  0.00    +0.031 A 
ATOM     14  C   UNL     1      -5.330   3.670  25.383  0.00  0.00    +0.142 A 
ATOM     15  F   UNL     1      -5.462   4.465  25.560  0.00  0.00    -0.204 F 
ATOM     16  C   UNL     1      -5.806   3.088  25.723  0.00  0.00    +0.061 A 
ATOM     17  C   UNL     1      -5.674   2.292  25.545  0.00  0.00    +0.158 A 
ATOM     18  F   UNL     1      -6.150   1.710  25.885  0.00  0.00    -0.203 F 
ENDBRANCH  10  11
ENDBRANCH   6   7
ENDBRANCH   5   6
TORSDOF 5
ENDMDL
MODEL 6
REMARK VINA RESULT:      -9.6      1.542      2.099
REMARK  Name = 
REMARK  5 active torsions:
REMARK  status: ('A' for Active; 'I' for Inactive)
REMARK    1  A    between atoms: C_2  and  C_3
REMARK    2  A    between atoms: C_5  and  C_6
REMARK    3  A    between atoms: C_6  and  N_7
REMARK    4  A    between atoms: N_10  and  C_11
REMARK    5  A    between atoms: C_19  and  N_22
REMARK                            x       y       z     vdW  Elec       q    Type
REMARK                         _______ _______ _______ _____ _____    ______ ____
ROOT
ATOM      3  C   UNL     1      -5.747   2.289  25.750  0.00  0.00    +0.180 C 
ATOM      4  O   UNL     1      -5.404   1.560  25.568  0.00  0.00    -0.350 OA
ATOM      5  C   UNL     1      -4.707   1.703  25.153  0.00  0.00    +0.154 C 
ATOM     19  C   UNL     1      -4.617   2.521  25.077  0.00  0.00    +0.120 C 
ATOM     20  C   UNL     1      -5.261   2.882  25.447  0.00  0.00    +0.198 C 
ATOM     21  O   UNL     1      -5.393   3.694  25.502  0.00  0.00    -0.219 OA
ENDROOT
BRANCH  19  22
ATOM     22  N   UNL     1      -3.994   2.907  24.699  0.00  0.00    -0.270 NA
ATOM     23  C   UNL     1      -3.950   3.084  23.895  0.00  0.00    +0.072 C 
ATOM     24  C   UNL     1      -3.234   3.471  23.759  0.00  0.00    +0.019 C 
ATOM     25  C   UNL     1      -2.836   3.533  24.478  0.00  0.00    +0.019 C 
ATOM     26  C   UNL     1      -3.306   3.184  25.060  0.00  0.00    +0.072 C 
ENDBRANCH  19  22
BRANCH   3   2
ATOM      1  O   UNL     1      -6.602   1.977  26.852  0.00  0.00    -0.218 OA
ATOM      2  C   UNL     1      -6.453   2.404  26.163  0.00  0.00    +0.214 C 
ENDBRANCH   3   2
BRANCH   5   6
ATOM      6  C   UNL     1      -4.188   1.130  24.863  0.00  0.00    +0.148 C 
BRANCH   6   7
ATOM      7  N   UNL     1      -4.296   0.338  25.065  0.00  0.00    -0.184 NA
ATOM      8  C   UNL     1      -3.739  -0.225  24.833  0.00  0.00    +0.344 C 
ATOM      9  O   UNL     1      -3.076   0.004  24.401  0.00  0.00    -0.249 OA
ATOM     10  N   UNL     1      -3.847  -1.019  25.035  0.00  0.00    -0.159 NA
BRANCH  10  11
ATOM     11  C   UNL     1      -3.291  -1.582  24.804  0.00  0.00    +0.102 A 
ATOM     12  C   UNL     1      -2.489  -1.457  24.958  0.00  0.00    +0.021 A 
ATOM     13  C   UNL     1      -1.932  -2.019  24.727  0.00  0.00    +0.031 A 
ATOM     14  C   UNL     1      -2.175  -2.706  24.342  0.00  0.00    +0.142 A 
ATOM     15  F   UNL     1      -1.618  -3.269  24.111  0.00  0.00    -0.204 F 
ATOM     16  C   UNL     1      -2.976  -2.832  24.187  0.00  0.00    +0.061 A 
ATOM     17  C   UNL     1      -3.534  -2.268  24.419  0.00  0.00    +0.158 A 
ATOM     18  F   UNL     1      -4.334  -2.394  24.264  0.00  0.00    -0.203 F 
ENDBRANCH  10  11
ENDBRANCH   6   7
ENDBRANCH   5   6
TORSDOF 5
ENDMDL
