MODEL 1
REMARK VINA RESULT:     -12.4      0.000      0.000
REMARK  Name = 
REMARK  7 active torsions:
REMARK  status: ('A' for Active; 'I' for Inactive)
REMARK    1  A    between atoms: C_5  and  S_8
REMARK    2  A    between atoms: S_8  and  N_11
REMARK    3  A    between atoms: N_11  and  C_12
REMARK    4  A    between atoms: C_16  and  N_20
REMARK    5  A    between atoms: C_24  and  O_25
REMARK    6  A    between atoms: O_25  and  C_26
REMARK    7  A    between atoms: C_30  and  N_32
REMARK                            x       y       z     vdW  Elec       q    Type
REMARK                         _______ _______ _______ _____ _____    ______ ____
ROOT
ATOM     12  C   UNL     1      -0.750   0.466  24.915  0.00  0.00    +0.157 C 
ATOM     13  C   UNL     1      -1.048   0.722  24.190  0.00  0.00    +0.164 C 
ATOM     14  O   UNL     1      -1.074   1.546  24.203  0.00  0.00    -0.350 OA
ATOM     15  C   UNL     1      -0.792   1.799  24.934  0.00  0.00    +0.169 C 
ATOM     16  C   UNL     1      -0.633   2.465  25.396  0.00  0.00    +0.170 C 
ATOM     17  C   UNL     1      -0.335   2.209  26.121  0.00  0.00    +0.169 C 
ATOM     18  O   UNL     1      -0.309   1.384  26.108  0.00  0.00    -0.350 OA
ATOM     19  C   UNL     1      -0.592   1.131  25.375  0.00  0.00    +0.164 C 
ENDROOT
BRANCH  16  20
ATOM     20  N   UNL     1      -0.752   3.250  25.170  0.00  0.00    -0.180 N 
ATOM     21  N   UNL     1      -0.295   3.674  24.630  0.00  0.00    -0.040 NA
ATOM     22  N   UNL     1      -0.609   4.435  24.572  0.00  0.00    -0.020 NA
ATOM     23  N   UNL     1      -1.260   4.480  25.075  0.00  0.00    -0.071 NA
ATOM     24  C   UNL     1      -1.348   3.748  25.445  0.00  0.00    +0.343 A 
BRANCH  24  25
ATOM     25  O   UNL     1      -1.932   3.549  25.995  0.00  0.00    -0.421 OA
BRANCH  25  26
ATOM     26  C   UNL     1      -2.710   3.799  25.879  0.00  0.00    +0.150 A 
ATOM     27  C   UNL     1      -2.906   4.594  25.974  0.00  0.00    +0.038 A 
ATOM     28  C   UNL     1      -3.683   4.845  25.859  0.00  0.00    +0.004 A 
ATOM     29  C   UNL     1      -4.265   4.298  25.647  0.00  0.00    +0.015 A 
ATOM     30  C   UNL     1      -4.069   3.502  25.552  0.00  0.00    +0.051 A 
ATOM     31  C   UNL     1      -3.291   3.253  25.668  0.00  0.00    +0.052 A 
BRANCH  30  32
ATOM     32  N   UNL     1      -4.650   2.956  25.341  0.00  0.00    -0.303 N 
ATOM     33  C   UNL     1      -4.537   2.466  24.686  0.00  0.00    +0.123 C 
ATOM     34  C   UNL     1      -5.118   1.920  24.475  0.00  0.00    +0.164 C 
ATOM     35  O   UNL     1      -5.811   1.864  24.918  0.00  0.00    -0.350 OA
ATOM     36  C   UNL     1      -5.924   2.354  25.572  0.00  0.00    +0.164 C 
ATOM     37  C   UNL     1      -5.343   2.900  25.783  0.00  0.00    +0.123 C 
ENDBRANCH  30  32
ENDBRANCH  25  26
ENDBRANCH  24  25
ENDBRANCH  16  20
BRANCH  12  11
ATOM     11  N   UNL     1      -0.631  -0.319  25.140  0.00  0.00    -0.074 NA
BRANCH  11   8
ATOM      8  S   UNL     1      -1.227  -0.878  25.023  0.00  0.00    +0.077 S 
ATOM      9  O   UNL     1      -0.950  -1.014  24.258  0.00  0.00    -0.152 OA
ATOM     10  O   UNL     1      -1.505  -0.742  25.788  0.00  0.00    -0.152 OA
BRANCH   8   5
ATOM      1  C   UNL     1      -3.612  -3.110  24.555  0.00  0.00    +0.031 C 
ATOM      2  C   UNL     1      -3.016  -2.552  24.672  0.00  0.00    -0.022 A 
ATOM      3  C   UNL     1      -3.173  -1.863  25.098  0.00  0.00    -0.003 A 
ATOM      4  C   UNL     1      -2.577  -1.305  25.215  0.00  0.00    +0.020 A 
ATOM      5  C   UNL     1      -1.824  -1.435  24.906  0.00  0.00    +0.124 A 
ATOM      6  C   UNL     1      -1.666  -2.125  24.480  0.00  0.00    +0.020 A 
ATOM      7  C   UNL     1      -2.262  -2.683  24.364  0.00  0.00    -0.003 A 
ENDBRANCH   8   5
ENDBRANCH  11   8
ENDBRANCH  12  11
TORSDOF 7
ENDMDL
MODEL 2
REMARK VINA RESULT:     -12.0      1.497      3.493
REMARK  Name = 
REMARK  7 active torsions:
REMARK  status: ('A' for Active; 'I' for Inactive)
REMARK    1  A    between atoms: C_5  and  S_8
REMARK    2  A    between atoms: S_8  and  N_11
REMARK    3  A    between atoms: N_11  and  C_12
REMARK    4  A    between atoms: C_16  and  N_20
REMARK    5  A    between atoms: C_24  and  O_25
REMARK    6  A    between atoms: O_25  and  C_26
REMARK    7  A    between atoms: C_30  and  N_32
REMARK                            x       y       z     vdW  Elec       q    Type
REMARK                         _______ _______ _______ _____ _____    ______ ____
ROOT
ATOM     12  C   UNL     1      -4.395   0.732  24.775  0.00  0.00    +0.157 C 
ATOM     13  C   UNL     1      -3.932   0.781  24.094  0.00  0.00    +0.164 C 
ATOM     14  O   UNL     1      -3.841   1.578  23.904  0.00  0.00    -0.350 OA
ATOM     15  C   UNL     1      -4.248   2.023  24.467  0.00  0.00    +0.169 C 
ATOM     16  C   UNL     1      -4.444   2.790  24.698  0.00  0.00    +0.170 C 
ATOM     17  C   UNL     1      -4.907   2.742  25.379  0.00  0.00    +0.169 C 
ATOM     18  O   UNL     1      -4.998   1.944  25.569  0.00  0.00    -0.350 OA
ATOM     19  C   UNL     1      -4.590   1.500  25.005  0.00  0.00    +0.164 C 
ENDROOT
BRANCH  16  20
ATOM     20  N   UNL     1      -4.216   3.485  24.315  0.00  0.00    -0.180 N 
ATOM     21  N   UNL     1      -4.527   3.772  23.607  0.00  0.00    -0.040 NA
ATOM     22  N   UNL     1      -4.140   4.479  23.427  0.00  0.00    -0.020 NA
ATOM     23  N   UNL     1      -3.591   4.627  24.024  0.00  0.00    -0.071 NA
ATOM     24  C   UNL     1      -3.638   4.013  24.573  0.00  0.00    +0.343 A 
BRANCH  24  25
ATOM     25  O   UNL     1      -3.186   3.941  25.260  0.00  0.00    -0.421 OA
BRANCH  25  26
ATOM     26  C   UNL     1      -2.381   4.122  25.245  0.00  0.00    +0.150 A 
ATOM     27  C   UNL     1      -2.136   4.909  25.245  0.00  0.00    +0.038 A 
ATOM     28  C   UNL     1      -1.331   5.091  25.230  0.00  0.00    +0.004 A 
ATOM     29  C   UNL     1      -0.772   4.484  25.215  0.00  0.00    +0.015 A 
ATOM     30  C   UNL     1      -1.017   3.696  25.214  0.00  0.00    +0.051 A 
ATOM     31  C   UNL     1      -1.822   3.516  25.229  0.00  0.00    +0.052 A 
BRANCH  30  32
ATOM     32  N   UNL     1      -0.459   3.090  25.199  0.00  0.00    -0.303 N 
ATOM     33  C   UNL     1      -0.169   2.778  25.906  0.00  0.00    +0.123 C 
ATOM     34  C   UNL     1       0.390   2.172  25.890  0.00  0.00    +0.164 C 
ATOM     35  O   UNL     1       0.659   1.877  25.169  0.00  0.00    -0.350 OA
ATOM     36  C   UNL     1       0.369   2.189  24.462  0.00  0.00    +0.164 C 
ATOM     37  C   UNL     1      -0.190   2.795  24.477  0.00  0.00    +0.123 C 
ENDBRANCH  30  32
ENDBRANCH  25  26
ENDBRANCH  24  25
ENDBRANCH  16  20
BRANCH  12  11
ATOM     11  N   UNL     1      -4.623   0.038  25.158  0.00  0.00    -0.074 NA
BRANCH  11   8
ATOM      8  S   UNL     1      -4.249  -0.675  24.978  0.00  0.00    +0.077 S 
ATOM      9  O   UNL     1      -4.730  -0.761  24.313  0.00  0.00    -0.152 OA
ATOM     10  O   UNL     1      -3.767  -0.590  25.642  0.00  0.00    -0.152 OA
BRANCH   8   5
ATOM      1  C   UNL     1      -2.750  -3.526  24.258  0.00  0.00    +0.031 C 
ATOM      2  C   UNL     1      -3.125  -2.813  24.438  0.00  0.00    -0.022 A 
ATOM      3  C   UNL     1      -2.838  -2.339  25.049  0.00  0.00    -0.003 A 
ATOM      4  C   UNL     1      -3.212  -1.626  25.229  0.00  0.00    +0.020 A 
ATOM      5  C   UNL     1      -3.874  -1.388  24.798  0.00  0.00    +0.124 A 
ATOM      6  C   UNL     1      -4.161  -1.862  24.187  0.00  0.00    +0.020 A 
ATOM      7  C   UNL     1      -3.786  -2.574  24.007  0.00  0.00    -0.003 A 
ENDBRANCH   8   5
ENDBRANCH  11   8
ENDBRANCH  12  11
TORSDOF 7
ENDMDL
MODEL 3
REMARK VINA RESULT:     -11.8      1.506      4.565
REMARK  Name = 
REMARK  7 active torsions:
REMARK  status: ('A' for Active; 'I' for Inactive)
REMARK    1  A    between atoms: C_5  and  S_8
REMARK    2  A    between atoms: S_8  and  N_11
REMARK    3  A    between atoms: N_11  and  C_12
REMARK    4  A    between atoms: C_16  and  N_20
REMARK    5  A    between atoms: C_24  and  O_25
REMARK    6  A    between atoms: O_25  and  C_26
REMARK    7  A    between atoms: C_30  and  N_32
REMARK                            x       y       z     vdW  Elec       q    Type
REMARK                         _______ _______ _______ _____ _____    ______ ____
ROOT
ATOM     12  C   UNL     1      -0.315   1.382  25.111  0.00  0.00    +0.157 C 
ATOM     13  C   UNL     1      -0.435   1.293  24.300  0.00  0.00    +0.164 C 
ATOM     14  O   UNL     1      -0.749   0.541  24.172  0.00  0.00    -0.350 OA
ATOM     15  C   UNL     1      -0.823   0.166  24.902  0.00  0.00    +0.169 C 
ATOM     16  C   UNL     1      -1.063  -0.529  25.275  0.00  0.00    +0.170 C 
ATOM     17  C   UNL     1      -0.943  -0.440  26.086  0.00  0.00    +0.169 C 
ATOM     18  O   UNL     1      -0.629   0.312  26.215  0.00  0.00    -0.350 OA
ATOM     19  C   UNL     1      -0.555   0.687  25.483  0.00  0.00    +0.164 C 
ENDROOT
BRANCH  16  20
ATOM     20  N   UNL     1      -1.369  -1.198  24.901  0.00  0.00    -0.180 N 
ATOM     21  N   UNL     1      -0.949  -1.721  24.419  0.00  0.00    -0.040 NA
ATOM     22  N   UNL     1      -1.470  -2.307  24.164  0.00  0.00    -0.020 NA
ATOM     23  N   UNL     1      -2.211  -2.148  24.487  0.00  0.00    -0.071 NA
ATOM     24  C   UNL     1      -2.149  -1.462  24.943  0.00  0.00    +0.343 A 
BRANCH  24  25
ATOM     25  O   UNL     1      -2.761  -1.104  25.366  0.00  0.00    -0.421 OA
BRANCH  25  26
ATOM     26  C   UNL     1      -3.457  -0.886  24.980  0.00  0.00    +0.150 A 
ATOM     27  C   UNL     1      -3.876  -1.443  24.539  0.00  0.00    +0.038 A 
ATOM     28  C   UNL     1      -4.572  -1.226  24.153  0.00  0.00    +0.004 A 
ATOM     29  C   UNL     1      -4.849  -0.451  24.209  0.00  0.00    +0.015 A 
ATOM     30  C   UNL     1      -4.430   0.107  24.650  0.00  0.00    +0.051 A 
ATOM     31  C   UNL     1      -3.734  -0.111  25.036  0.00  0.00    +0.052 A 
BRANCH  30  32
ATOM     32  N   UNL     1      -4.707   0.882  24.706  0.00  0.00    -0.303 N 
ATOM     33  C   UNL     1      -5.394   1.045  25.134  0.00  0.00    +0.123 C 
ATOM     34  C   UNL     1      -5.670   1.819  25.190  0.00  0.00    +0.164 C 
ATOM     35  O   UNL     1      -5.261   2.431  24.818  0.00  0.00    -0.350 OA
ATOM     36  C   UNL     1      -4.574   2.269  24.390  0.00  0.00    +0.164 C 
ATOM     37  C   UNL     1      -4.298   1.494  24.335  0.00  0.00    +0.123 C 
ENDBRANCH  30  32
ENDBRANCH  25  26
ENDBRANCH  24  25
ENDBRANCH  16  20
BRANCH  12  11
ATOM     11  N   UNL     1      -0.008   2.051  25.485  0.00  0.00    -0.074 NA
BRANCH  11   8
ATOM      8  S   UNL     1      -0.386   2.780  25.402  0.00  0.00    +0.077 S 
ATOM      9  O   UNL     1      -0.102   2.841  24.630  0.00  0.00    -0.152 OA
ATOM     10  O   UNL     1      -0.671   2.720  26.175  0.00  0.00    -0.152 OA
BRANCH   8   5
ATOM      1  C   UNL     1      -1.900   5.694  25.076  0.00  0.00    +0.031 C 
ATOM      2  C   UNL     1      -1.521   4.966  25.157  0.00  0.00    -0.022 A 
ATOM      3  C   UNL     1      -0.786   4.841  24.805  0.00  0.00    -0.003 A 
ATOM      4  C   UNL     1      -0.407   4.113  24.887  0.00  0.00    +0.020 A 
ATOM      5  C   UNL     1      -0.764   3.509  25.321  0.00  0.00    +0.124 A 
ATOM      6  C   UNL     1      -1.500   3.633  25.673  0.00  0.00    +0.020 A 
ATOM      7  C   UNL     1      -1.878   4.362  25.592  0.00  0.00    -0.003 A 
ENDBRANCH   8   5
ENDBRANCH  11   8
ENDBRANCH  12  11
TORSDOF 7
ENDMDL
MODEL 4
REMARK VINA RESULT:     -11.6      1.613      4.798
REMARK  Name = 
REMARK  7 active torsions:
REMARK  status: ('A' for Active; 'I' for Inactive)
REMARK    1  A    between atoms: C_5  and  S_8
REMARK    2  A    between atoms: S_8  and  N_11
REMARK    3  A    between atoms: N_11  and  C_12
REMARK    4  A    between atoms: C_16  and  N_20
REMARK    5  A    between atoms: C_24  and  O_25
REMARK    6  A    between atoms: O_25  and  C_26
REMARK    7  A    between atoms: C_30  and  N_32
REMARK                            x       y       z     vdW  Elec       q    Type
REMARK                         _______ _______ _______ _____ _____    ______ ____
ROOT
ATOM     12  C   UNL     1      -1.948   2.679  24.123  0.00  0.00    +0.157 C 
ATOM     13  C   UNL     1      -2.184   2.270  23.446  0.00  0.00    +0.164 C 
ATOM     14  O   UNL     1      -1.658   1.645  23.331  0.00  0.00    -0.350 OA
ATOM     15  C   UNL     1      -1.098   1.668  23.936  0.00  0.00    +0.169 C 
ATOM     16  C   UNL     1      -0.427   1.296  24.240  0.00  0.00    +0.170 C 
ATOM     17  C   UNL     1      -0.191   1.705  24.916  0.00  0.00    +0.169 C 
ATOM     18  O   UNL     1      -0.717   2.330  25.031  0.00  0.00    -0.350 OA
ATOM     19  C   UNL     1      -1.278   2.307  24.425  0.00  0.00    +0.164 C 
ENDROOT
BRANCH  16  20
ATOM     20  N   UNL     1      -0.056   0.631  23.922  0.00  0.00    -0.180 N 
ATOM     21  N   UNL     1       0.437   0.620  23.259  0.00  0.00    -0.040 NA
ATOM     22  N   UNL     1       0.685  -0.157  23.139  0.00  0.00    -0.020 NA
ATOM     23  N   UNL     1       0.346  -0.627  23.726  0.00  0.00    -0.071 NA
ATOM     24  C   UNL     1      -0.111  -0.139  24.210  0.00  0.00    +0.343 A 
BRANCH  24  25
ATOM     25  O   UNL     1      -0.548  -0.381  24.867  0.00  0.00    -0.421 OA
BRANCH  25  26
ATOM     26  C   UNL     1      -0.941  -1.107  24.858  0.00  0.00    +0.150 A 
ATOM     27  C   UNL     1      -0.539  -1.796  25.065  0.00  0.00    +0.038 A 
ATOM     28  C   UNL     1      -0.931  -2.521  25.056  0.00  0.00    +0.004 A 
ATOM     29  C   UNL     1      -1.727  -2.557  24.838  0.00  0.00    +0.015 A 
ATOM     30  C   UNL     1      -2.129  -1.867  24.630  0.00  0.00    +0.051 A 
ATOM     31  C   UNL     1      -1.736  -1.142  24.640  0.00  0.00    +0.052 A 
BRANCH  30  32
ATOM     32  N   UNL     1      -2.924  -1.902  24.413  0.00  0.00    -0.303 N 
ATOM     33  C   UNL     1      -3.388  -1.220  24.435  0.00  0.00    +0.123 C 
ATOM     34  C   UNL     1      -4.183  -1.255  24.217  0.00  0.00    +0.164 C 
ATOM     35  O   UNL     1      -4.514  -1.971  23.978  0.00  0.00    -0.350 OA
ATOM     36  C   UNL     1      -4.050  -2.653  23.955  0.00  0.00    +0.164 C 
ATOM     37  C   UNL     1      -3.255  -2.618  24.173  0.00  0.00    +0.123 C 
ENDBRANCH  30  32
ENDBRANCH  25  26
ENDBRANCH  24  25
ENDBRANCH  16  20
BRANCH  12  11
ATOM     11  N   UNL     1      -2.319   3.344  24.441  0.00  0.00    -0.074 NA
BRANCH  11   8
ATOM      8  S   UNL     1      -3.100   3.296  24.702  0.00  0.00    +0.077 S 
ATOM      9  O   UNL     1      -3.367   3.389  23.927  0.00  0.00    -0.152 OA
ATOM     10  O   UNL     1      -2.835   3.202  25.478  0.00  0.00    -0.152 OA
BRANCH   8   5
ATOM      1  C   UNL     1      -6.223   3.103  25.754  0.00  0.00    +0.031 C 
ATOM      2  C   UNL     1      -5.442   3.151  25.491  0.00  0.00    -0.022 A 
ATOM      3  C   UNL     1      -5.148   2.587  24.966  0.00  0.00    -0.003 A 
ATOM      4  C   UNL     1      -4.368   2.635  24.702  0.00  0.00    +0.020 A 
ATOM      5  C   UNL     1      -3.881   3.247  24.965  0.00  0.00    +0.124 A 
ATOM      6  C   UNL     1      -4.175   3.811  25.490  0.00  0.00    +0.020 A 
ATOM      7  C   UNL     1      -4.955   3.763  25.753  0.00  0.00    -0.003 A 
ENDBRANCH   8   5
ENDBRANCH  11   8
ENDBRANCH  12  11
TORSDOF 7
ENDMDL
MODEL 5
REMARK VINA RESULT:     -11.3      2.025      5.794
REMARK  Name = 
REMARK  7 active torsions:
REMARK  status: ('A' for Active; 'I' for Inactive)
REMARK    1  A    between atoms: C_5  and  S_8
REMARK    2  A    between atoms: S_8  and  N_11
REMARK    3  A    between atoms: N_11  and  C_12
REMARK    4  A    between atoms: C_16  and  N_20
REMARK    5  A    between atoms: C_24  and  O_25
REMARK    6  A    between atoms: O_25  and  C_26
REMARK    7  A    between atoms: C_30  and  N_32
REMARK                            x       y       z     vdW  Elec       q    Type
REMARK                         _______ _______ _______ _____ _____    ______ ____
ROOT
ATOM     12  C   UNL     1      -4.095   1.936  24.500  0.00  0.00    +0.157 C 
ATOM     13  C   UNL     1      -3.760   1.765  23.766  0.00  0.00    +0.164 C 
ATOM     14  O   UNL     1      -3.737   0.945  23.682  0.00  0.00    -0.350 OA
ATOM     15  C   UNL     1      -4.057   0.609  24.363  0.00  0.00    +0.169 C 
ATOM     16  C   UNL     1      -4.242  -0.105  24.733  0.00  0.00    +0.170 C 
ATOM     17  C   UNL     1      -4.576   0.066  25.467  0.00  0.00    +0.169 C 
ATOM     18  O   UNL     1      -4.599   0.886  25.551  0.00  0.00    -0.350 OA
ATOM     19  C   UNL     1      -4.279   1.222  24.869  0.00  0.00    +0.164 C 
ENDROOT
BRANCH  16  20
ATOM     20  N   UNL     1      -4.113  -0.859  24.423  0.00  0.00    -0.180 N 
ATOM     21  N   UNL     1      -4.576  -1.235  23.852  0.00  0.00    -0.040 NA
ATOM     22  N   UNL     1      -4.248  -1.977  23.705  0.00  0.00    -0.020 NA
ATOM     23  N   UNL     1      -3.582  -2.060  24.184  0.00  0.00    -0.071 NA
ATOM     24  C   UNL     1      -3.499  -1.370  24.628  0.00  0.00    +0.343 A 
BRANCH  24  25
ATOM     25  O   UNL     1      -2.904  -1.217  25.180  0.00  0.00    -0.421 OA
BRANCH  25  26
ATOM     26  C   UNL     1      -2.120  -1.404  25.004  0.00  0.00    +0.150 A 
ATOM     27  C   UNL     1      -1.835  -2.164  25.148  0.00  0.00    +0.038 A 
ATOM     28  C   UNL     1      -1.052  -2.352  24.973  0.00  0.00    +0.004 A 
ATOM     29  C   UNL     1      -0.552  -1.778  24.653  0.00  0.00    +0.015 A 
ATOM     30  C   UNL     1      -0.837  -1.016  24.509  0.00  0.00    +0.051 A 
ATOM     31  C   UNL     1      -1.621  -0.830  24.684  0.00  0.00    +0.052 A 
BRANCH  30  32
ATOM     32  N   UNL     1      -0.338  -0.443  24.189  0.00  0.00    -0.303 N 
ATOM     33  C   UNL     1      -0.366   0.332  24.473  0.00  0.00    +0.123 C 
ATOM     34  C   UNL     1       0.133   0.906  24.153  0.00  0.00    +0.164 C 
ATOM     35  O   UNL     1       0.659   0.706  23.551  0.00  0.00    -0.350 OA
ATOM     36  C   UNL     1       0.687  -0.069  23.267  0.00  0.00    +0.164 C 
ATOM     37  C   UNL     1       0.188  -0.643  23.587  0.00  0.00    +0.123 C 
ENDBRANCH  30  32
ENDBRANCH  25  26
ENDBRANCH  24  25
ENDBRANCH  16  20
BRANCH  12  11
ATOM     11  N   UNL     1      -4.224   2.689  24.811  0.00  0.00    -0.074 NA
BRANCH  11   8
ATOM      8  S   UNL     1      -3.595   3.220  24.881  0.00  0.00    +0.077 S 
ATOM      9  O   UNL     1      -3.528   3.035  25.682  0.00  0.00    -0.152 OA
ATOM     10  O   UNL     1      -3.662   3.405  24.080  0.00  0.00    -0.152 OA
BRANCH   8   5
ATOM      1  C   UNL     1      -1.084   5.343  25.158  0.00  0.00    +0.031 C 
ATOM      2  C   UNL     1      -1.712   4.811  25.089  0.00  0.00    -0.022 A 
ATOM      3  C   UNL     1      -1.670   4.073  25.453  0.00  0.00    -0.003 A 
ATOM      4  C   UNL     1      -2.297   3.542  25.384  0.00  0.00    +0.020 A 
ATOM      5  C   UNL     1      -2.967   3.750  24.951  0.00  0.00    +0.124 A 
ATOM      6  C   UNL     1      -3.010   4.489  24.586  0.00  0.00    +0.020 A 
ATOM      7  C   UNL     1      -2.382   5.020  24.656  0.00  0.00    -0.003 A 
ENDBRANCH   8   5
ENDBRANCH  11   8
ENDBRANCH  12  11
TORSDOF 7
ENDMDL
