MODEL 1
REMARK VINA RESULT:     -10.3      0.000      0.000
REMARK  Name = 
REMARK  6 active torsions:
REMARK  status: ('A' for Active; 'I' for Inactive)
REMARK    1  A    between atoms: C_2  and  N_4
REMARK    2  A    between atoms: C_5  and  O_7
REMARK    3  A    between atoms: O_7  and  C_8
REMARK    4  A    between atoms: C_8  and  C_9
REMARK    5  A    between atoms: C_16  and  C_17
REMARK    6  A    between atoms: C_19  and  C_23
REMARK                            x       y       z     vdW  Elec       q    Type
REMARK                         _______ _______ _______ _____ _____    ______ ____
ROOT
ATOM      9  C   UNL     1      -3.861   0.528  24.020  0.00  0.00    +0.102 C 
ATOM     10  C   UNL     1      -3.564   1.108  23.594  0.00  0.00    +0.020 C 
ATOM     11  C   UNL     1      -3.342   1.834  23.875  0.00  0.00    +0.010 C 
ATOM     12  C   UNL     1      -3.023   2.361  23.223  0.00  0.00    +0.018 C 
ATOM     13  C   UNL     1      -3.276   1.814  23.476  0.00  0.00    +0.072 C 
ATOM     14  N   UNL     1      -3.632   1.271  24.299  0.00  0.00    -0.270 NA
ATOM     15  C   UNL     1      -3.646   1.640  25.133  0.00  0.00    +0.078 C 
ATOM     16  C   UNL     1      -3.358   2.183  24.680  0.00  0.00    +0.056 C 
ENDROOT
BRANCH  16  17
ATOM     17  C   UNL     1      -3.114   2.940  24.901  0.00  0.00    +0.058 A 
ATOM     18  C   UNL     1      -2.378   3.277  24.742  0.00  0.00    +0.031 A 
ATOM     19  C   UNL     1      -2.371   4.036  25.062  0.00  0.00    +0.079 A 
ATOM     20  N   UNL     1      -3.103   4.170  25.419  0.00  0.00    -0.174 NA
ATOM     21  N   UNL     1      -3.562   3.491  25.319  0.00  0.00    -0.253 N 
ATOM     22  C   UNL     1      -4.334   3.383  25.590  0.00  0.00    +0.153 C 
BRANCH  19  23
ATOM     23  C   UNL     1      -1.743   4.571  25.031  0.00  0.00    +0.042 C 
ATOM     24  C   UNL     1      -1.807   5.394  25.032  0.00  0.00    +0.006 C 
ATOM     25  C   UNL     1      -1.044   5.708  24.996  0.00  0.00    +0.000 C 
ATOM     26  C   UNL     1      -0.510   5.079  24.973  0.00  0.00    +0.000 C 
ATOM     27  C   UNL     1      -0.941   4.377  24.995  0.00  0.00    +0.006 C 
ENDBRANCH  19  23
ENDBRANCH  16  17
BRANCH   9   8
ATOM      8  C   UNL     1      -4.165  -0.232  24.118  0.00  0.00    +0.226 C 
BRANCH   8   7
ATOM      7  O   UNL     1      -3.803  -0.873  23.744  0.00  0.00    -0.432 OA
BRANCH   7   5
ATOM      4  N   UNL     1      -3.247  -2.041  24.350  0.00  0.00    -0.170 NA
ATOM      5  C   UNL     1      -3.898  -1.635  24.047  0.00  0.00    +0.421 C 
ATOM      6  O   UNL     1      -4.643  -1.990  24.046  0.00  0.00    -0.225 OA
BRANCH   4   2
ATOM      1  C   UNL     1      -3.462  -3.438  24.141  0.00  0.00    +0.024 C 
ATOM      2  C   UNL     1      -3.342  -2.803  24.653  0.00  0.00    +0.099 C 
ATOM      3  C   UNL     1      -3.317  -2.929  25.469  0.00  0.00    +0.024 C 
ENDBRANCH   4   2
ENDBRANCH   7   5
ENDBRANCH   8   7
ENDBRANCH   9   8
TORSDOF 6
ENDMDL
MODEL 2
REMARK VINA RESULT:      -9.9      2.237      2.481
REMARK  Name = 
REMARK  6 active torsions:
REMARK  status: ('A' for Active; 'I' for Inactive)
REMARK    1  A    between atoms: C_2  and  N_4
REMARK    2  A    between atoms: C_5  and  O_7
REMARK    3  A    between atoms: O_7  and  C_8
REMARK    4  A    between atoms: C_8  and  C_9
REMARK    5  A    between atoms: C_16  and  C_17
REMARK    6  A    between atoms: C_19  and  C_23
REMARK                            x       y       z     vdW  Elec       q    Type
REMARK                         _______ _______ _______ _____ _____    ______ ____
ROOT
ATOM      9  C   UNL     1      -0.751  -0.287  24.627  0.00  0.00    +0.102 C 
ATOM     10  C   UNL     1      -0.431   0.312  24.248  0.00  0.00    +0.020 C 
ATOM     11  C   UNL     1      -0.418   1.080  24.505  0.00  0.00    +0.010 C 
ATOM     12  C   UNL     1      -0.001   1.620  23.923  0.00  0.00    +0.018 C 
ATOM     13  C   UNL     1      -0.232   1.051  24.147  0.00  0.00    +0.072 C 
ATOM     14  N   UNL     1      -0.734   0.497  24.882  0.00  0.00    -0.270 NA
ATOM     15  C   UNL     1      -1.056   0.902  25.634  0.00  0.00    +0.078 C 
ATOM     16  C   UNL     1      -0.731   1.462  25.230  0.00  0.00    +0.056 C 
ENDROOT
BRANCH  16  17
ATOM     17  C   UNL     1      -0.683   2.261  25.434  0.00  0.00    +0.058 A 
ATOM     18  C   UNL     1      -1.057   2.884  25.044  0.00  0.00    +0.031 A 
ATOM     19  C   UNL     1      -0.858   3.583  25.431  0.00  0.00    +0.079 A 
ATOM     20  N   UNL     1      -0.361   3.394  26.061  0.00  0.00    -0.174 NA
ATOM     21  N   UNL     1      -0.252   2.576  26.063  0.00  0.00    -0.253 N 
ATOM     22  C   UNL     1       0.207   2.148  26.599  0.00  0.00    +0.153 C 
BRANCH  19  23
ATOM     23  C   UNL     1      -1.112   4.341  25.226  0.00  0.00    +0.042 C 
ATOM     24  C   UNL     1      -1.858   4.660  25.377  0.00  0.00    +0.006 C 
ATOM     25  C   UNL     1      -1.871   5.429  25.078  0.00  0.00    +0.000 C 
ATOM     26  C   UNL     1      -1.134   5.585  24.743  0.00  0.00    +0.000 C 
ATOM     27  C   UNL     1      -0.665   4.914  24.834  0.00  0.00    +0.006 C 
ENDBRANCH  19  23
ENDBRANCH  16  17
BRANCH   9   8
ATOM      8  C   UNL     1      -0.951  -1.083  24.709  0.00  0.00    +0.226 C 
BRANCH   8   7
ATOM      7  O   UNL     1      -1.474  -1.435  24.175  0.00  0.00    -0.432 OA
BRANCH   7   5
ATOM      4  N   UNL     1      -2.806  -1.915  24.366  0.00  0.00    -0.170 NA
ATOM      5  C   UNL     1      -1.991  -2.025  24.432  0.00  0.00    +0.421 C 
ATOM      6  O   UNL     1      -1.693  -2.723  24.755  0.00  0.00    -0.225 OA
BRANCH   4   2
ATOM      1  C   UNL     1      -3.688  -3.001  24.074  0.00  0.00    +0.024 C 
ATOM      2  C   UNL     1      -3.324  -2.505  24.623  0.00  0.00    +0.099 C 
ATOM      3  C   UNL     1      -3.475  -2.598  25.429  0.00  0.00    +0.024 C 
ENDBRANCH   4   2
ENDBRANCH   7   5
ENDBRANCH   8   7
ENDBRANCH   9   8
TORSDOF 6
ENDMDL
MODEL 3
REMARK VINA RESULT:      -9.4      1.741      5.736
REMARK  Name = 
REMARK  6 active torsions:
REMARK  status: ('A' for Active; 'I' for Inactive)
REMARK    1  A    between atoms: C_2  and  N_4
REMARK    2  A    between atoms: C_5  and  O_7
REMARK    3  A    between atoms: O_7  and  C_8
REMARK    4  A    between atoms: C_8  and  C_9
REMARK    5  A    between atoms: C_16  and  C_17
REMARK    6  A    between atoms: C_19  and  C_23
REMARK                            x       y       z     vdW  Elec       q    Type
REMARK                         _______ _______ _______ _____ _____    ______ ____
ROOT
ATOM      9  C   UNL     1      -3.771   2.535  24.664  0.00  0.00    +0.102 C 
ATOM     10  C   UNL     1      -4.235   1.956  24.897  0.00  0.00    +0.020 C 
ATOM     11  C   UNL     1      -4.040   1.170  24.909  0.00  0.00    +0.010 C 
ATOM     12  C   UNL     1      -4.715   0.663  25.212  0.00  0.00    +0.018 C 
ATOM     13  C   UNL     1      -4.419   1.220  25.043  0.00  0.00    +0.072 C 
ATOM     14  N   UNL     1      -3.579   1.732  24.679  0.00  0.00    -0.270 NA
ATOM     15  C   UNL     1      -2.821   1.281  24.447  0.00  0.00    +0.078 C 
ATOM     16  C   UNL     1      -3.308   0.743  24.684  0.00  0.00    +0.056 C 
ENDROOT
BRANCH  16  17
ATOM     17  C   UNL     1      -3.173  -0.071  24.721  0.00  0.00    +0.058 A 
ATOM     18  C   UNL     1      -3.660  -0.657  24.406  0.00  0.00    +0.031 A 
ATOM     19  C   UNL     1      -3.316  -1.388  24.569  0.00  0.00    +0.079 A 
ATOM     20  N   UNL     1      -2.617  -1.255  24.986  0.00  0.00    -0.174 NA
ATOM     21  N   UNL     1      -2.528  -0.439  25.080  0.00  0.00    -0.253 N 
ATOM     22  C   UNL     1      -1.905  -0.060  25.465  0.00  0.00    +0.153 C 
BRANCH  19  23
ATOM     23  C   UNL     1      -3.618  -2.125  24.354  0.00  0.00    +0.042 C 
ATOM     24  C   UNL     1      -3.451  -2.844  24.725  0.00  0.00    +0.006 C 
ATOM     25  C   UNL     1      -3.870  -3.437  24.331  0.00  0.00    +0.000 C 
ATOM     26  C   UNL     1      -4.294  -3.084  23.717  0.00  0.00    +0.000 C 
ATOM     27  C   UNL     1      -4.139  -2.275  23.732  0.00  0.00    +0.006 C 
ENDBRANCH  19  23
ENDBRANCH  16  17
BRANCH   9   8
ATOM      8  C   UNL     1      -3.601   3.328  24.517  0.00  0.00    +0.226 C 
BRANCH   8   7
ATOM      7  O   UNL     1      -3.224   3.783  25.093  0.00  0.00    -0.432 OA
BRANCH   7   5
ATOM      4  N   UNL     1      -1.990   4.463  25.336  0.00  0.00    -0.170 NA
ATOM      5  C   UNL     1      -2.663   4.347  24.871  0.00  0.00    +0.421 C 
ATOM      6  O   UNL     1      -2.774   4.794  24.187  0.00  0.00    -0.225 OA
BRANCH   4   2
ATOM      1  C   UNL     1      -0.681   4.787  24.862  0.00  0.00    +0.024 C 
ATOM      2  C   UNL     1      -1.429   5.027  25.114  0.00  0.00    +0.099 C 
ATOM      3  C   UNL     1      -1.616   5.830  25.145  0.00  0.00    +0.024 C 
ENDBRANCH   4   2
ENDBRANCH   7   5
ENDBRANCH   8   7
ENDBRANCH   9   8
TORSDOF 6
ENDMDL
MODEL 4
REMARK VINA RESULT:      -9.2      2.581      6.022
REMARK  Name = 
REMARK  6 active torsions:
REMARK  status: ('A' for Active; 'I' for Inactive)
REMARK    1  A    between atoms: C_2  and  N_4
REMARK    2  A    between atoms: C_5  and  O_7
REMARK    3  A    between atoms: O_7  and  C_8
REMARK    4  A    between atoms: C_8  and  C_9
REMARK    5  A    between atoms: C_16  and  C_17
REMARK    6  A    between atoms: C_19  and  C_23
REMARK                            x       y       z     vdW  Elec       q    Type
REMARK                         _______ _______ _______ _____ _____    ______ ____
ROOT
ATOM      9  C   UNL     1      -0.286   1.586  24.716  0.00  0.00    +0.102 C 
ATOM     10  C   UNL     1      -0.296   1.023  24.179  0.00  0.00    +0.020 C 
ATOM     11  C   UNL     1      -0.695   0.321  24.240  0.00  0.00    +0.010 C 
ATOM     12  C   UNL     1      -0.579  -0.192  23.513  0.00  0.00    +0.018 C 
ATOM     13  C   UNL     1      -0.499   0.338  23.886  0.00  0.00    +0.072 C 
ATOM     14  N   UNL     1      -0.690   0.868  24.770  0.00  0.00    -0.270 NA
ATOM     15  C   UNL     1      -1.220   0.513  25.423  0.00  0.00    +0.078 C 
ATOM     16  C   UNL     1      -1.204  -0.015  24.871  0.00  0.00    +0.056 C 
ENDROOT
BRANCH  16  17
ATOM     17  C   UNL     1      -1.585  -0.747  24.870  0.00  0.00    +0.058 A 
ATOM     18  C   UNL     1      -2.307  -0.916  24.509  0.00  0.00    +0.031 A 
ATOM     19  C   UNL     1      -2.479  -1.711  24.644  0.00  0.00    +0.079 A 
ATOM     20  N   UNL     1      -1.864  -2.033  25.089  0.00  0.00    -0.174 NA
ATOM     21  N   UNL     1      -1.310  -1.437  25.229  0.00  0.00    -0.253 N 
ATOM     22  C   UNL     1      -0.607  -1.516  25.653  0.00  0.00    +0.153 C 
BRANCH  19  23
ATOM     23  C   UNL     1      -3.149  -2.114  24.381  0.00  0.00    +0.042 C 
ATOM     24  C   UNL     1      -3.250  -2.933  24.375  0.00  0.00    +0.006 C 
ATOM     25  C   UNL     1      -4.000  -3.095  24.068  0.00  0.00    +0.000 C 
ATOM     26  C   UNL     1      -4.361  -2.376  23.886  0.00  0.00    +0.000 C 
ATOM     27  C   UNL     1      -3.836  -1.770  24.079  0.00  0.00    +0.006 C 
ENDBRANCH  19  23
ENDBRANCH  16  17
BRANCH   9   8
ATOM      8  C   UNL     1      -0.054   2.322  25.006  0.00  0.00    +0.226 C 
BRANCH   8   7
ATOM      7  O   UNL     1      -0.263   3.010  24.599  0.00  0.00    -0.432 OA
BRANCH   7   5
ATOM      4  N   UNL     1      -1.183   4.100  24.689  0.00  0.00    -0.170 NA
ATOM      5  C   UNL     1      -0.566   3.657  25.012  0.00  0.00    +0.421 C 
ATOM      6  O   UNL     1      -0.252   3.862  25.747  0.00  0.00    -0.225 OA
BRANCH   4   2
ATOM      1  C   UNL     1      -2.113   4.645  25.627  0.00  0.00    +0.024 C 
ATOM      2  C   UNL     1      -1.486   4.748  25.102  0.00  0.00    +0.099 C 
ATOM      3  C   UNL     1      -1.160   5.498  24.989  0.00  0.00    +0.024 C 
ENDBRANCH   4   2
ENDBRANCH   7   5
ENDBRANCH   8   7
ENDBRANCH   9   8
TORSDOF 6
ENDMDL
MODEL 5
REMARK VINA RESULT:      -9.1      3.757      5.078
REMARK  Name = 
REMARK  6 active torsions:
REMARK  status: ('A' for Active; 'I' for Inactive)
REMARK    1  A    between atoms: C_2  and  N_4
REMARK    2  A    between atoms: C_5  and  O_7
REMARK    3  A    between atoms: O_7  and  C_8
REMARK    4  A    between atoms: C_8  and  C_9
REMARK    5  A    between atoms: C_16  and  C_17
REMARK    6  A    between atoms: C_19  and  C_23
REMARK                            x       y       z     vdW  Elec       q    Type
REMARK                         _______ _______ _______ _____ _____    ______ ____
ROOT
ATOM      9  C   UNL     1       0.235   0.662  23.776  0.00  0.00    +0.102 C 
ATOM     10  C   UNL     1      -0.128   1.126  24.284  0.00  0.00    +0.020 C 
ATOM     11  C   UNL     1      -0.907   1.073  24.499  0.00  0.00    +0.010 C 
ATOM     12  C   UNL     1      -1.131   1.701  25.099  0.00  0.00    +0.018 C 
ATOM     13  C   UNL     1      -0.730   1.379  24.696  0.00  0.00    +0.072 C 
ATOM     14  N   UNL     1      -0.558   0.615  23.999  0.00  0.00    -0.270 NA
ATOM     15  C   UNL     1      -1.230   0.050  23.749  0.00  0.00    +0.078 C 
ATOM     16  C   UNL     1      -1.548   0.526  24.254  0.00  0.00    +0.056 C 
ENDROOT
BRANCH  16  17
ATOM     17  C   UNL     1      -2.332   0.527  24.514  0.00  0.00    +0.058 A 
ATOM     18  C   UNL     1      -2.864   1.153  24.446  0.00  0.00    +0.031 A 
ATOM     19  C   UNL     1      -3.580   0.916  24.778  0.00  0.00    +0.079 A 
ATOM     20  N   UNL     1      -3.491   0.142  25.051  0.00  0.00    -0.174 NA
ATOM     21  N   UNL     1      -2.718  -0.098  24.888  0.00  0.00    -0.253 N 
ATOM     22  C   UNL     1      -2.391  -0.834  25.067  0.00  0.00    +0.153 C 
BRANCH  19  23
ATOM     23  C   UNL     1      -4.267   1.370  24.828  0.00  0.00    +0.042 C 
ATOM     24  C   UNL     1      -4.431   2.051  24.390  0.00  0.00    +0.006 C 
ATOM     25  C   UNL     1      -5.176   2.326  24.617  0.00  0.00    +0.000 C 
ATOM     26  C   UNL     1      -5.471   1.816  25.194  0.00  0.00    +0.000 C 
ATOM     27  C   UNL     1      -4.910   1.225  25.325  0.00  0.00    +0.006 C 
ENDBRANCH  19  23
ENDBRANCH  16  17
BRANCH   9   8
ATOM      8  C   UNL     1       0.894   0.413  23.348  0.00  0.00    +0.226 C 
BRANCH   8   7
ATOM      7  O   UNL     1       1.591   0.855  23.369  0.00  0.00    -0.432 OA
BRANCH   7   5
ATOM      4  N   UNL     1       2.988   0.970  23.092  0.00  0.00    -0.170 NA
ATOM      5  C   UNL     1       2.274   0.566  23.006  0.00  0.00    +0.421 C 
ATOM      6  O   UNL     1       2.242  -0.125  22.556  0.00  0.00    -0.225 OA
BRANCH   4   2
ATOM      1  C   UNL     1       3.712   0.637  21.906  0.00  0.00    +0.024 C 
ATOM      2  C   UNL     1       3.671   0.681  22.728  0.00  0.00    +0.099 C 
ATOM      3  C   UNL     1       4.312   0.438  23.188  0.00  0.00    +0.024 C 
ENDBRANCH   4   2
ENDBRANCH   7   5
ENDBRANCH   8   7
ENDBRANCH   9   8
TORSDOF 6
ENDMDL
