MODEL 1
REMARK VINA RESULT:     -10.2      0.000      0.000
REMARK  Name = 
REMARK  5 active torsions:
REMARK  status: ('A' for Active; 'I' for Inactive)
REMARK    1  A    between atoms: C_4  and  C_26
REMARK    2  A    between atoms: C_6  and  C_7
REMARK    3  A    between atoms: C_14  and  C_15
REMARK    4  A    between atoms: C_15  and  N_16
REMARK    5  A    between atoms: N_19  and  C_20
REMARK                            x       y       z     vdW  Elec       q    Type
REMARK                         _______ _______ _______ _____ _____    ______ ____
ROOT
ATOM      7  C   UNL     1      -1.848   1.731  23.903  0.00  0.00    +0.056 C 
ATOM      8  C   UNL     1      -1.330   2.300  23.781  0.00  0.00    +0.078 C 
ATOM      9  N   UNL     1      -1.158   1.501  23.902  0.00  0.00    -0.272 NA
ATOM     10  C   UNL     1      -2.072   1.004  24.034  0.00  0.00    +0.072 C 
ATOM     11  C   UNL     1      -2.409   0.456  24.142  0.00  0.00    +0.018 C 
ATOM     12  C   UNL     1      -1.671   0.950  24.020  0.00  0.00    +0.010 C 
ATOM     13  C   UNL     1      -0.908   0.517  24.049  0.00  0.00    +0.018 C 
ATOM     14  C   UNL     1      -0.369   1.045  23.932  0.00  0.00    +0.079 C 
ENDROOT
BRANCH   7   6
ATOM      1  C   UNL     1      -2.820   2.253  22.486  0.00  0.00    +0.153 C 
ATOM      2  N   UNL     1      -3.092   2.182  23.261  0.00  0.00    -0.253 N 
ATOM      3  N   UNL     1      -3.859   2.339  23.523  0.00  0.00    -0.170 NA
ATOM      4  C   UNL     1      -3.887   2.197  24.335  0.00  0.00    +0.102 A 
ATOM      5  C   UNL     1      -3.137   1.952  24.576  0.00  0.00    +0.035 A 
ATOM      6  C   UNL     1      -2.646   1.943  23.913  0.00  0.00    +0.058 A 
BRANCH   4  26
ATOM     26  C   UNL     1      -4.548   2.284  24.820  0.00  0.00    +0.019 A 
ATOM     27  C   UNL     1      -4.616   2.945  25.309  0.00  0.00    +0.002 A 
ATOM     28  C   UNL     1      -5.278   3.031  25.794  0.00  0.00    +0.000 A 
ATOM     29  C   UNL     1      -5.871   2.458  25.790  0.00  0.00    +0.000 A 
ATOM     30  C   UNL     1      -5.803   1.798  25.300  0.00  0.00    +0.000 A 
ATOM     31  C   UNL     1      -5.142   1.711  24.815  0.00  0.00    +0.002 A 
ENDBRANCH   4  26
ENDBRANCH   7   6
BRANCH  14  15
ATOM     15  C   UNL     1       0.447   1.144  23.871  0.00  0.00    +0.133 C 
BRANCH  15  16
ATOM     16  N   UNL     1       0.889   0.640  23.390  0.00  0.00    -0.185 NA
ATOM     17  C   UNL     1       1.711   0.705  23.371  0.00  0.00    +0.344 C 
ATOM     18  O   UNL     1       2.092   1.273  23.832  0.00  0.00    -0.249 OA
ATOM     19  N   UNL     1       2.153   0.201  22.890  0.00  0.00    -0.161 NA
BRANCH  19  20
ATOM     20  C   UNL     1       2.976   0.265  22.870  0.00  0.00    +0.075 A 
ATOM     21  C   UNL     1       3.331   0.893  22.470  0.00  0.00    +0.017 A 
ATOM     22  C   UNL     1       4.153   0.957  22.450  0.00  0.00    +0.001 A 
ATOM     23  C   UNL     1       4.620   0.393  22.830  0.00  0.00    +0.000 A 
ATOM     24  C   UNL     1       4.265  -0.235  23.230  0.00  0.00    +0.001 A 
ATOM     25  C   UNL     1       3.443  -0.299  23.250  0.00  0.00    +0.017 A 
ENDBRANCH  19  20
ENDBRANCH  15  16
ENDBRANCH  14  15
TORSDOF 5
ENDMDL
MODEL 2
REMARK VINA RESULT:      -9.2      3.971      5.390
REMARK  Name = 
REMARK  5 active torsions:
REMARK  status: ('A' for Active; 'I' for Inactive)
REMARK    1  A    between atoms: C_4  and  C_26
REMARK    2  A    between atoms: C_6  and  C_7
REMARK    3  A    between atoms: C_14  and  C_15
REMARK    4  A    between atoms: C_15  and  N_16
REMARK    5  A    between atoms: N_19  and  C_20
REMARK                            x       y       z     vdW  Elec       q    Type
REMARK                         _______ _______ _______ _____ _____    ______ ____
ROOT
ATOM      7  C   UNL     1      -3.625   2.650  25.205  0.00  0.00    +0.056 C 
ATOM      8  C   UNL     1      -3.473   2.012  25.625  0.00  0.00    +0.078 C 
ATOM      9  N   UNL     1      -4.027   2.074  25.015  0.00  0.00    -0.272 NA
ATOM     10  C   UNL     1      -3.985   3.059  24.658  0.00  0.00    +0.072 C 
ATOM     11  C   UNL     1      -4.193   3.524  24.250  0.00  0.00    +0.018 C 
ATOM     12  C   UNL     1      -4.170   2.703  24.608  0.00  0.00    +0.010 C 
ATOM     13  C   UNL     1      -4.723   2.115  24.263  0.00  0.00    +0.018 C 
ATOM     14  C   UNL     1      -4.604   1.469  24.651  0.00  0.00    +0.079 C 
ENDROOT
BRANCH   7   6
ATOM      1  C   UNL     1      -3.960   3.790  26.552  0.00  0.00    +0.153 C 
ATOM      2  N   UNL     1      -3.348   3.855  26.002  0.00  0.00    -0.253 N 
ATOM      3  N   UNL     1      -2.782   4.455  25.974  0.00  0.00    -0.170 NA
ATOM      4  C   UNL     1      -2.279   4.302  25.339  0.00  0.00    +0.102 A 
ATOM      5  C   UNL     1      -2.533   3.608  24.974  0.00  0.00    +0.035 A 
ATOM      6  C   UNL     1      -3.194   3.331  25.383  0.00  0.00    +0.058 A 
BRANCH   4  26
ATOM     26  C   UNL     1      -1.635   4.763  25.110  0.00  0.00    +0.019 A 
ATOM     27  C   UNL     1      -0.907   4.408  24.956  0.00  0.00    +0.002 A 
ATOM     28  C   UNL     1      -0.263   4.869  24.727  0.00  0.00    +0.000 A 
ATOM     29  C   UNL     1      -0.347   5.686  24.651  0.00  0.00    +0.000 A 
ATOM     30  C   UNL     1      -1.075   6.042  24.805  0.00  0.00    +0.000 A 
ATOM     31  C   UNL     1      -1.719   5.581  25.034  0.00  0.00    +0.002 A 
ENDBRANCH   4  26
ENDBRANCH   7   6
BRANCH  14  15
ATOM     15  C   UNL     1      -4.852   0.685  24.708  0.00  0.00    +0.133 C 
BRANCH  15  16
ATOM     16  N   UNL     1      -4.598   0.130  24.153  0.00  0.00    -0.185 NA
ATOM     17  C   UNL     1      -4.324  -0.607  24.403  0.00  0.00    +0.344 C 
ATOM     18  O   UNL     1      -4.303  -0.789  25.208  0.00  0.00    -0.249 OA
ATOM     19  N   UNL     1      -4.069  -1.162  23.849  0.00  0.00    -0.161 NA
BRANCH  19  20
ATOM     20  C   UNL     1      -3.795  -1.899  24.098  0.00  0.00    +0.075 A 
ATOM     21  C   UNL     1      -4.254  -2.573  23.976  0.00  0.00    +0.017 A 
ATOM     22  C   UNL     1      -3.979  -3.310  24.226  0.00  0.00    +0.001 A 
ATOM     23  C   UNL     1      -3.245  -3.372  24.597  0.00  0.00    +0.000 A 
ATOM     24  C   UNL     1      -2.786  -2.698  24.719  0.00  0.00    +0.001 A 
ATOM     25  C   UNL     1      -3.060  -1.962  24.469  0.00  0.00    +0.017 A 
ENDBRANCH  19  20
ENDBRANCH  15  16
ENDBRANCH  14  15
TORSDOF 5
ENDMDL
MODEL 3
REMARK VINA RESULT:      -8.8      1.135      1.693
REMARK  Name = 
REMARK  5 active torsions:
REMARK  status: ('A' for Active; 'I' for Inactive)
REMARK    1  A    between atoms: C_4  and  C_26
REMARK    2  A    between atoms: C_6  and  C_7
REMARK    3  A    between atoms: C_14  and  C_15
REMARK    4  A    between atoms: C_15  and  N_16
REMARK    5  A    between atoms: N_19  and  C_20
REMARK                            x       y       z     vdW  Elec       q    Type
REMARK                         _______ _______ _______ _____ _____    ______ ____
ROOT
ATOM      7  C   UNL     1      -0.592   1.046  24.128  0.00  0.00    +0.056 C 
ATOM      8  C   UNL     1      -0.117   1.639  23.959  0.00  0.00    +0.078 C 
ATOM      9  N   UNL     1       0.008   0.844  23.771  0.00  0.00    -0.272 NA
ATOM     10  C   UNL     1      -0.814   0.306  24.138  0.00  0.00    +0.072 C 
ATOM     11  C   UNL     1      -1.129  -0.259  24.225  0.00  0.00    +0.018 C 
ATOM     12  C   UNL     1      -0.462   0.269  23.941  0.00  0.00    +0.010 C 
ATOM     13  C   UNL     1       0.196  -0.133  23.522  0.00  0.00    +0.018 C 
ATOM     14  C   UNL     1       0.689   0.420  23.336  0.00  0.00    +0.079 C 
ENDROOT
BRANCH   7   6
ATOM      1  C   UNL     1      -0.705   1.651  25.815  0.00  0.00    +0.153 C 
ATOM      2  N   UNL     1      -1.340   1.502  25.310  0.00  0.00    -0.253 N 
ATOM      3  N   UNL     1      -2.139   1.605  25.491  0.00  0.00    -0.170 NA
ATOM      4  C   UNL     1      -2.580   1.391  24.828  0.00  0.00    +0.102 A 
ATOM      5  C   UNL     1      -2.055   1.155  24.237  0.00  0.00    +0.035 A 
ATOM      6  C   UNL     1      -1.289   1.224  24.535  0.00  0.00    +0.058 A 
BRANCH   4  26
ATOM     26  C   UNL     1      -3.403   1.409  24.767  0.00  0.00    +0.019 A 
ATOM     27  C   UNL     1      -3.780   2.082  24.476  0.00  0.00    +0.002 A 
ATOM     28  C   UNL     1      -4.602   2.100  24.416  0.00  0.00    +0.000 A 
ATOM     29  C   UNL     1      -5.047   1.445  24.645  0.00  0.00    +0.000 A 
ATOM     30  C   UNL     1      -4.670   0.771  24.936  0.00  0.00    +0.000 A 
ATOM     31  C   UNL     1      -3.848   0.753  24.997  0.00  0.00    +0.002 A 
ENDBRANCH   4  26
ENDBRANCH   7   6
BRANCH  14  15
ATOM     15  C   UNL     1       1.411   0.554  22.962  0.00  0.00    +0.133 C 
BRANCH  15  16
ATOM     16  N   UNL     1       1.982  -0.041  22.941  0.00  0.00    -0.185 NA
ATOM     17  C   UNL     1       2.771   0.139  23.097  0.00  0.00    +0.344 C 
ATOM     18  O   UNL     1       2.991   0.914  23.275  0.00  0.00    -0.249 OA
ATOM     19  N   UNL     1       3.342  -0.456  23.075  0.00  0.00    -0.161 NA
BRANCH  19  20
ATOM     20  C   UNL     1       4.132  -0.277  23.232  0.00  0.00    +0.075 A 
ATOM     21  C   UNL     1       4.507   0.328  22.816  0.00  0.00    +0.017 A 
ATOM     22  C   UNL     1       5.298   0.508  22.972  0.00  0.00    +0.001 A 
ATOM     23  C   UNL     1       5.711   0.082  23.545  0.00  0.00    +0.000 A 
ATOM     24  C   UNL     1       5.336  -0.524  23.961  0.00  0.00    +0.001 A 
ATOM     25  C   UNL     1       4.546  -0.703  23.804  0.00  0.00    +0.017 A 
ENDBRANCH  19  20
ENDBRANCH  15  16
ENDBRANCH  14  15
TORSDOF 5
ENDMDL
MODEL 4
REMARK VINA RESULT:      -8.8      3.226      5.025
REMARK  Name = 
REMARK  5 active torsions:
REMARK  status: ('A' for Active; 'I' for Inactive)
REMARK    1  A    between atoms: C_4  and  C_26
REMARK    2  A    between atoms: C_6  and  C_7
REMARK    3  A    between atoms: C_14  and  C_15
REMARK    4  A    between atoms: C_15  and  N_16
REMARK    5  A    between atoms: N_19  and  C_20
REMARK                            x       y       z     vdW  Elec       q    Type
REMARK                         _______ _______ _______ _____ _____    ______ ____
ROOT
ATOM      7  C   UNL     1      -0.646   1.492  25.303  0.00  0.00    +0.056 C 
ATOM      8  C   UNL     1      -1.050   1.039  25.790  0.00  0.00    +0.078 C 
ATOM      9  N   UNL     1      -0.659   0.793  25.106  0.00  0.00    -0.272 NA
ATOM     10  C   UNL     1      -0.215   1.642  24.680  0.00  0.00    +0.072 C 
ATOM     11  C   UNL     1       0.143   1.920  24.209  0.00  0.00    +0.018 C 
ATOM     12  C   UNL     1      -0.265   1.243  24.633  0.00  0.00    +0.010 C 
ATOM     13  C   UNL     1      -0.184   0.451  24.263  0.00  0.00    +0.018 C 
ATOM     14  C   UNL     1      -0.570  -0.027  24.715  0.00  0.00    +0.079 C 
ENDROOT
BRANCH   7   6
ATOM      1  C   UNL     1       0.348   2.230  26.604  0.00  0.00    +0.153 C 
ATOM      2  N   UNL     1      -0.146   2.635  26.082  0.00  0.00    -0.253 N 
ATOM      3  N   UNL     1      -0.269   3.451  26.065  0.00  0.00    -0.170 NA
ATOM      4  C   UNL     1      -0.802   3.617  25.458  0.00  0.00    +0.102 A 
ATOM      5  C   UNL     1      -1.008   2.903  25.098  0.00  0.00    +0.035 A 
ATOM      6  C   UNL     1      -0.602   2.297  25.484  0.00  0.00    +0.058 A 
BRANCH   4  26
ATOM     26  C   UNL     1      -1.080   4.364  25.247  0.00  0.00    +0.019 A 
ATOM     27  C   UNL     1      -0.586   4.891  24.849  0.00  0.00    +0.002 A 
ATOM     28  C   UNL     1      -0.864   5.638  24.639  0.00  0.00    +0.000 A 
ATOM     29  C   UNL     1      -1.637   5.859  24.826  0.00  0.00    +0.000 A 
ATOM     30  C   UNL     1      -2.131   5.332  25.224  0.00  0.00    +0.000 A 
ATOM     31  C   UNL     1      -1.853   4.584  25.434  0.00  0.00    +0.002 A 
ENDBRANCH   4  26
ENDBRANCH   7   6
BRANCH  14  15
ATOM     15  C   UNL     1      -0.782  -0.819  24.800  0.00  0.00    +0.133 C 
BRANCH  15  16
ATOM     16  N   UNL     1      -1.509  -1.019  25.136  0.00  0.00    -0.185 NA
ATOM     17  C   UNL     1      -2.035  -1.502  24.725  0.00  0.00    +0.344 C 
ATOM     18  O   UNL     1      -1.835  -1.787  23.977  0.00  0.00    -0.249 OA
ATOM     19  N   UNL     1      -2.761  -1.702  25.061  0.00  0.00    -0.161 NA
BRANCH  19  20
ATOM     20  C   UNL     1      -3.288  -2.186  24.650  0.00  0.00    +0.075 A 
ATOM     21  C   UNL     1      -3.250  -3.005  24.738  0.00  0.00    +0.017 A 
ATOM     22  C   UNL     1      -3.777  -3.489  24.327  0.00  0.00    +0.001 A 
ATOM     23  C   UNL     1      -4.341  -3.153  23.827  0.00  0.00    +0.000 A 
ATOM     24  C   UNL     1      -4.379  -2.334  23.739  0.00  0.00    +0.001 A 
ATOM     25  C   UNL     1      -3.853  -1.851  24.151  0.00  0.00    +0.017 A 
ENDBRANCH  19  20
ENDBRANCH  15  16
ENDBRANCH  14  15
TORSDOF 5
ENDMDL
