MODEL 1
REMARK VINA RESULT:      -9.3      0.000      0.000
REMARK  Name = 
REMARK  5 active torsions:
REMARK  status: ('A' for Active; 'I' for Inactive)
REMARK    1  A    between atoms: C_2  and  O_10
REMARK    2  A    between atoms: N_3  and  C_4
REMARK    3  A    between atoms: O_10  and  C_11
REMARK    4  A    between atoms: C_15  and  N_19
REMARK    5  A    between atoms: C_22  and  C_26
REMARK                            x       y       z     vdW  Elec       q    Type
REMARK                         _______ _______ _______ _____ _____    ______ ____
ROOT
ATOM     11  C   UNL     1      -2.117   1.392  23.893  0.00  0.00    +0.229 C 
ATOM     12  C   UNL     1      -1.786   2.146  23.853  0.00  0.00    +0.188 C 
ATOM     13  O   UNL     1      -0.965   2.064  23.863  0.00  0.00    -0.348 OA
ATOM     14  C   UNL     1      -0.789   1.260  23.909  0.00  0.00    +0.168 C 
ATOM     15  C   UNL     1      -0.174   0.711  23.943  0.00  0.00    +0.155 C 
ATOM     16  C   UNL     1      -0.506  -0.043  23.983  0.00  0.00    +0.166 C 
ATOM     17  O   UNL     1      -1.326   0.039  23.973  0.00  0.00    -0.348 OA
ATOM     18  C   UNL     1      -1.502   0.844  23.927  0.00  0.00    +0.186 C 
ENDROOT
BRANCH  15  19
ATOM     19  N   UNL     1       0.632   0.887  23.939  0.00  0.00    -0.200 NA
ATOM     20  C   UNL     1       1.131   0.521  23.393  0.00  0.00    +0.237 A 
ATOM     21  N   UNL     1       1.937   0.696  23.388  0.00  0.00    -0.209 NA
ATOM     22  C   UNL     1       2.436   0.331  22.842  0.00  0.00    +0.120 A 
ATOM     23  C   UNL     1       2.129  -0.210  22.300  0.00  0.00    +0.043 A 
ATOM     24  C   UNL     1       1.322  -0.385  22.305  0.00  0.00    +0.104 A 
ATOM     25  N   UNL     1       0.824  -0.020  22.851  0.00  0.00    -0.211 NA
BRANCH  22  26
ATOM     26  C   UNL     1       3.242   0.506  22.837  0.00  0.00    +0.163 A 
ATOM     27  C   UNL     1       3.849   0.003  23.080  0.00  0.00    +0.042 A 
ATOM     28  C   UNL     1       4.565   0.401  22.982  0.00  0.00    +0.044 A 
ATOM     29  C   UNL     1       4.400   1.150  22.678  0.00  0.00    +0.180 A 
ATOM     30  O   UNL     1       3.583   1.215  22.589  0.00  0.00    -0.449 OA
ENDBRANCH  22  26
ENDBRANCH  15  19
BRANCH  11  10
ATOM     10  O   UNL     1      -2.924   1.216  23.897  0.00  0.00    -0.432 OA
BRANCH  10   2
ATOM      1  O   UNL     1      -3.204   1.693  25.215  0.00  0.00    -0.225 OA
ATOM      2  C   UNL     1      -3.427   1.602  24.425  0.00  0.00    +0.421 C 
ATOM      3  N   UNL     1      -4.152   1.895  24.165  0.00  0.00    -0.170 NA
BRANCH   3   4
ATOM      4  C   UNL     1      -4.656   2.281  24.693  0.00  0.00    +0.099 C 
ATOM      5  C   UNL     1      -4.582   3.093  24.815  0.00  0.00    +0.022 C 
ATOM      6  C   UNL     1      -5.086   3.478  25.343  0.00  0.00    +0.002 C 
ATOM      7  C   UNL     1      -5.663   3.051  25.749  0.00  0.00    +0.000 C 
ATOM      8  C   UNL     1      -5.736   2.238  25.626  0.00  0.00    +0.002 C 
ATOM      9  C   UNL     1      -5.233   1.853  25.098  0.00  0.00    +0.022 C 
ENDBRANCH   3   4
ENDBRANCH  10   2
ENDBRANCH  11  10
TORSDOF 5
ENDMDL
MODEL 2
REMARK VINA RESULT:      -9.0      1.128      6.774
REMARK  Name = 
REMARK  5 active torsions:
REMARK  status: ('A' for Active; 'I' for Inactive)
REMARK    1  A    between atoms: C_2  and  O_10
REMARK    2  A    between atoms: N_3  and  C_4
REMARK    3  A    between atoms: O_10  and  C_11
REMARK    4  A    between atoms: C_15  and  N_19
REMARK    5  A    between atoms: C_22  and  C_26
REMARK                            x       y       z     vdW  Elec       q    Type
REMARK                         _______ _______ _______ _____ _____    ______ ____
ROOT
ATOM     11  C   UNL     1       0.480   0.566  23.495  0.00  0.00    +0.229 C 
ATOM     12  C   UNL     1       0.461   1.389  23.537  0.00  0.00    +0.188 C 
ATOM     13  O   UNL     1      -0.221   1.607  23.945  0.00  0.00    -0.348 OA
ATOM     14  C   UNL     1      -0.624   0.920  24.156  0.00  0.00    +0.168 C 
ATOM     15  C   UNL     1      -1.294   0.628  24.538  0.00  0.00    +0.155 C 
ATOM     16  C   UNL     1      -1.275  -0.195  24.497  0.00  0.00    +0.166 C 
ATOM     17  O   UNL     1      -0.593  -0.414  24.088  0.00  0.00    -0.348 OA
ATOM     18  C   UNL     1      -0.190   0.275  23.877  0.00  0.00    +0.186 C 
ENDROOT
BRANCH  15  19
ATOM     19  N   UNL     1      -1.881   1.082  24.900  0.00  0.00    -0.200 NA
ATOM     20  C   UNL     1      -2.670   0.992  24.675  0.00  0.00    +0.237 A 
ATOM     21  N   UNL     1      -3.257   1.445  25.036  0.00  0.00    -0.209 NA
ATOM     22  C   UNL     1      -4.045   1.355  24.811  0.00  0.00    +0.120 A 
ATOM     23  C   UNL     1      -4.247   0.811  24.224  0.00  0.00    +0.043 A 
ATOM     24  C   UNL     1      -3.660   0.357  23.863  0.00  0.00    +0.104 A 
ATOM     25  N   UNL     1      -2.872   0.448  24.088  0.00  0.00    -0.211 NA
BRANCH  22  26
ATOM     26  C   UNL     1      -4.632   1.808  25.172  0.00  0.00    +0.163 A 
ATOM     27  C   UNL     1      -5.384   1.544  25.389  0.00  0.00    +0.042 A 
ATOM     28  C   UNL     1      -5.787   2.178  25.731  0.00  0.00    +0.044 A 
ATOM     29  C   UNL     1      -5.285   2.832  25.724  0.00  0.00    +0.180 A 
ATOM     30  O   UNL     1      -4.572   2.603  25.379  0.00  0.00    -0.449 OA
ENDBRANCH  22  26
ENDBRANCH  15  19
BRANCH  11  10
ATOM     10  O   UNL     1       1.067   0.112  23.133  0.00  0.00    -0.432 OA
BRANCH  10   2
ATOM      1  O   UNL     1       2.065   1.005  23.633  0.00  0.00    -0.225 OA
ATOM      2  C   UNL     1       1.859   0.336  23.195  0.00  0.00    +0.421 C 
ATOM      3  N   UNL     1       2.444  -0.107  22.819  0.00  0.00    -0.170 NA
BRANCH   3   4
ATOM      4  C   UNL     1       3.235   0.117  22.880  0.00  0.00    +0.099 C 
ATOM      5  C   UNL     1       3.506   0.790  22.488  0.00  0.00    +0.022 C 
ATOM      6  C   UNL     1       4.297   1.014  22.549  0.00  0.00    +0.002 C 
ATOM      7  C   UNL     1       4.819   0.565  23.004  0.00  0.00    +0.000 C 
ATOM      8  C   UNL     1       4.549  -0.109  23.397  0.00  0.00    +0.002 C 
ATOM      9  C   UNL     1       3.757  -0.332  23.335  0.00  0.00    +0.022 C 
ENDBRANCH   3   4
ENDBRANCH  10   2
ENDBRANCH  11  10
TORSDOF 5
ENDMDL
MODEL 3
REMARK VINA RESULT:      -8.9      3.002      5.096
REMARK  Name = 
REMARK  5 active torsions:
REMARK  status: ('A' for Active; 'I' for Inactive)
REMARK    1  A    between atoms: C_2  and  O_10
REMARK    2  A    between atoms: N_3  and  C_4
REMARK    3  A    between atoms: O_10  and  C_11
REMARK    4  A    between atoms: C_15  and  N_19
REMARK    5  A    between atoms: C_22  and  C_26
REMARK                            x       y       z     vdW  Elec       q    Type
REMARK                         _______ _______ _______ _____ _____    ______ ____
ROOT
ATOM     11  C   UNL     1      -0.200   1.798  24.574  0.00  0.00    +0.229 C 
ATOM     12  C   UNL     1      -0.260   1.569  23.784  0.00  0.00    +0.188 C 
ATOM     13  O   UNL     1      -0.616   0.826  23.762  0.00  0.00    -0.348 OA
ATOM     14  C   UNL     1      -0.775   0.595  24.536  0.00  0.00    +0.168 C 
ATOM     15  C   UNL     1      -1.093  -0.007  25.003  0.00  0.00    +0.155 C 
ATOM     16  C   UNL     1      -1.032   0.221  25.793  0.00  0.00    +0.166 C 
ATOM     17  O   UNL     1      -0.677   0.965  25.815  0.00  0.00    -0.348 OA
ATOM     18  C   UNL     1      -0.518   1.196  25.039  0.00  0.00    +0.186 C 
ENDROOT
BRANCH  15  19
ATOM     19  N   UNL     1      -1.416  -0.715  24.726  0.00  0.00    -0.200 NA
ATOM     20  C   UNL     1      -2.219  -0.872  24.833  0.00  0.00    +0.237 A 
ATOM     21  N   UNL     1      -2.541  -1.579  24.557  0.00  0.00    -0.209 NA
ATOM     22  C   UNL     1      -3.344  -1.737  24.664  0.00  0.00    +0.120 A 
ATOM     23  C   UNL     1      -3.824  -1.187  25.048  0.00  0.00    +0.043 A 
ATOM     24  C   UNL     1      -3.501  -0.479  25.325  0.00  0.00    +0.104 A 
ATOM     25  N   UNL     1      -2.699  -0.322  25.217  0.00  0.00    -0.211 NA
BRANCH  22  26
ATOM     26  C   UNL     1      -3.666  -2.443  24.388  0.00  0.00    +0.163 A 
ATOM     27  C   UNL     1      -4.200  -2.522  23.764  0.00  0.00    +0.042 A 
ATOM     28  C   UNL     1      -4.376  -3.323  23.677  0.00  0.00    +0.044 A 
ATOM     29  C   UNL     1      -3.951  -3.740  24.248  0.00  0.00    +0.180 A 
ATOM     30  O   UNL     1      -3.512  -3.196  24.687  0.00  0.00    -0.449 OA
ENDBRANCH  22  26
ENDBRANCH  15  19
BRANCH  11  10
ATOM     10  O   UNL     1       0.123   2.506  24.851  0.00  0.00    -0.432 OA
BRANCH  10   2
ATOM      1  O   UNL     1      -0.370   3.512  23.963  0.00  0.00    -0.225 OA
ATOM      2  C   UNL     1      -0.277   3.217  24.729  0.00  0.00    +0.421 C 
ATOM      3  N   UNL     1      -0.583   3.634  25.371  0.00  0.00    -0.170 NA
BRANCH   3   4
ATOM      4  C   UNL     1      -0.983   4.345  25.249  0.00  0.00    +0.099 C 
ATOM      5  C   UNL     1      -0.585   4.993  24.929  0.00  0.00    +0.022 C 
ATOM      6  C   UNL     1      -0.985   5.704  24.807  0.00  0.00    +0.002 C 
ATOM      7  C   UNL     1      -1.783   5.768  25.006  0.00  0.00    +0.000 C 
ATOM      8  C   UNL     1      -2.181   5.120  25.327  0.00  0.00    +0.002 C 
ATOM      9  C   UNL     1      -1.781   4.409  25.448  0.00  0.00    +0.022 C 
ENDBRANCH   3   4
ENDBRANCH  10   2
ENDBRANCH  11  10
TORSDOF 5
ENDMDL
MODEL 4
REMARK VINA RESULT:      -8.7      2.966      4.890
REMARK  Name = 
REMARK  5 active torsions:
REMARK  status: ('A' for Active; 'I' for Inactive)
REMARK    1  A    between atoms: C_2  and  O_10
REMARK    2  A    between atoms: N_3  and  C_4
REMARK    3  A    between atoms: O_10  and  C_11
REMARK    4  A    between atoms: C_15  and  N_19
REMARK    5  A    between atoms: C_22  and  C_26
REMARK                            x       y       z     vdW  Elec       q    Type
REMARK                         _______ _______ _______ _____ _____    ______ ____
ROOT
ATOM     11  C   UNL     1      -0.822  -0.835  24.835  0.00  0.00    +0.229 C 
ATOM     12  C   UNL     1      -0.476  -0.552  24.142  0.00  0.00    +0.188 C 
ATOM     13  O   UNL     1      -0.351   0.258  24.232  0.00  0.00    -0.348 OA
ATOM     14  C   UNL     1      -0.619   0.476  24.981  0.00  0.00    +0.168 C 
ATOM     15  C   UNL     1      -0.707   1.111  25.500  0.00  0.00    +0.155 C 
ATOM     16  C   UNL     1      -1.053   0.828  26.193  0.00  0.00    +0.166 C 
ATOM     17  O   UNL     1      -1.178   0.018  26.103  0.00  0.00    -0.348 OA
ATOM     18  C   UNL     1      -0.910  -0.200  25.353  0.00  0.00    +0.186 C 
ENDROOT
BRANCH  15  19
ATOM     19  N   UNL     1      -0.488   1.892  25.352  0.00  0.00    -0.200 NA
ATOM     20  C   UNL     1      -1.063   2.483  25.317  0.00  0.00    +0.237 A 
ATOM     21  N   UNL     1      -0.845   3.264  25.168  0.00  0.00    -0.209 NA
ATOM     22  C   UNL     1      -1.420   3.854  25.133  0.00  0.00    +0.120 A 
ATOM     23  C   UNL     1      -2.215   3.663  25.247  0.00  0.00    +0.043 A 
ATOM     24  C   UNL     1      -2.434   2.881  25.396  0.00  0.00    +0.104 A 
ATOM     25  N   UNL     1      -1.858   2.292  25.430  0.00  0.00    -0.211 NA
BRANCH  22  26
ATOM     26  C   UNL     1      -1.202   4.635  24.985  0.00  0.00    +0.163 A 
ATOM     27  C   UNL     1      -1.632   5.308  25.195  0.00  0.00    +0.042 A 
ATOM     28  C   UNL     1      -1.211   5.969  24.940  0.00  0.00    +0.044 A 
ATOM     29  C   UNL     1      -0.521   5.707  24.573  0.00  0.00    +0.180 A 
ATOM     30  O   UNL     1      -0.515   4.882  24.601  0.00  0.00    -0.449 OA
ENDBRANCH  22  26
ENDBRANCH  15  19
BRANCH  11  10
ATOM     10  O   UNL     1      -1.041  -1.617  24.984  0.00  0.00    -0.432 OA
BRANCH  10   2
ATOM      1  O   UNL     1      -1.609  -2.288  23.857  0.00  0.00    -0.225 OA
ATOM      2  C   UNL     1      -1.696  -1.942  24.602  0.00  0.00    +0.421 C 
ATOM      3  N   UNL     1      -2.437  -1.921  24.963  0.00  0.00    -0.170 NA
BRANCH   3   4
ATOM      4  C   UNL     1      -3.092  -2.246  24.581  0.00  0.00    +0.099 C 
ATOM      5  C   UNL     1      -3.211  -3.062  24.588  0.00  0.00    +0.022 C 
ATOM      6  C   UNL     1      -3.866  -3.387  24.206  0.00  0.00    +0.002 C 
ATOM      7  C   UNL     1      -4.403  -2.895  23.817  0.00  0.00    +0.000 C 
ATOM      8  C   UNL     1      -4.284  -2.079  23.811  0.00  0.00    +0.002 C 
ATOM      9  C   UNL     1      -3.628  -1.755  24.193  0.00  0.00    +0.022 C 
ENDBRANCH   3   4
ENDBRANCH  10   2
ENDBRANCH  11  10
TORSDOF 5
ENDMDL
MODEL 5
REMARK VINA RESULT:      -8.6      1.516      6.926
REMARK  Name = 
REMARK  5 active torsions:
REMARK  status: ('A' for Active; 'I' for Inactive)
REMARK    1  A    between atoms: C_2  and  O_10
REMARK    2  A    between atoms: N_3  and  C_4
REMARK    3  A    between atoms: O_10  and  C_11
REMARK    4  A    between atoms: C_15  and  N_19
REMARK    5  A    between atoms: C_22  and  C_26
REMARK                            x       y       z     vdW  Elec       q    Type
REMARK                         _______ _______ _______ _____ _____    ______ ____
ROOT
ATOM     11  C   UNL     1       1.724   0.499  22.954  0.00  0.00    +0.229 C 
ATOM     12  C   UNL     1       1.428  -0.258  22.815  0.00  0.00    +0.188 C 
ATOM     13  O   UNL     1       0.696  -0.317  23.190  0.00  0.00    -0.348 OA
ATOM     14  C   UNL     1       0.539   0.402  23.560  0.00  0.00    +0.168 C 
ATOM     15  C   UNL     1      -0.010   0.811  24.020  0.00  0.00    +0.155 C 
ATOM     16  C   UNL     1       0.287   1.568  24.159  0.00  0.00    +0.166 C 
ATOM     17  O   UNL     1       1.019   1.628  23.784  0.00  0.00    -0.348 OA
ATOM     18  C   UNL     1       1.175   0.907  23.414  0.00  0.00    +0.186 C 
ENDROOT
BRANCH  15  19
ATOM     19  N   UNL     1      -0.729   0.515  24.294  0.00  0.00    -0.200 NA
ATOM     20  C   UNL     1      -1.435   0.892  24.093  0.00  0.00    +0.237 A 
ATOM     21  N   UNL     1      -2.154   0.596  24.366  0.00  0.00    -0.209 NA
ATOM     22  C   UNL     1      -2.860   0.973  24.165  0.00  0.00    +0.120 A 
ATOM     23  C   UNL     1      -2.846   1.647  23.690  0.00  0.00    +0.043 A 
ATOM     24  C   UNL     1      -2.126   1.944  23.416  0.00  0.00    +0.104 A 
ATOM     25  N   UNL     1      -1.421   1.566  23.618  0.00  0.00    -0.211 NA
BRANCH  22  26
ATOM     26  C   UNL     1      -3.579   0.677  24.439  0.00  0.00    +0.163 A 
ATOM     27  C   UNL     1      -3.921  -0.042  24.222  0.00  0.00    +0.042 A 
ATOM     28  C   UNL     1      -4.636  -0.116  24.626  0.00  0.00    +0.044 A 
ATOM     29  C   UNL     1      -4.736   0.556  25.092  0.00  0.00    +0.180 A 
ATOM     30  O   UNL     1      -4.083   1.047  24.976  0.00  0.00    -0.449 OA
ENDBRANCH  22  26
ENDBRANCH  15  19
BRANCH  11  10
ATOM     10  O   UNL     1       2.444   0.796  22.680  0.00  0.00    -0.432 OA
BRANCH  10   2
ATOM      1  O   UNL     1       3.187  -0.405  22.897  0.00  0.00    -0.225 OA
ATOM      2  C   UNL     1       3.150   0.419  22.882  0.00  0.00    +0.421 C 
ATOM      3  N   UNL     1       3.817   0.866  23.070  0.00  0.00    -0.170 NA
BRANCH   3   4
ATOM      4  C   UNL     1       4.522   0.490  23.273  0.00  0.00    +0.099 C 
ATOM      5  C   UNL     1       5.026   0.211  22.683  0.00  0.00    +0.022 C 
ATOM      6  C   UNL     1       5.732  -0.165  22.885  0.00  0.00    +0.002 C 
ATOM      7  C   UNL     1       5.934  -0.263  23.679  0.00  0.00    +0.000 C 
ATOM      8  C   UNL     1       5.429   0.016  24.270  0.00  0.00    +0.002 C 
ATOM      9  C   UNL     1       4.724   0.392  24.067  0.00  0.00    +0.022 C 
ENDBRANCH   3   4
ENDBRANCH  10   2
ENDBRANCH  11  10
TORSDOF 5
ENDMDL
MODEL 6
REMARK VINA RESULT:      -8.4      1.955      2.638
REMARK  Name = 
REMARK  5 active torsions:
REMARK  status: ('A' for Active; 'I' for Inactive)
REMARK    1  A    between atoms: C_2  and  O_10
REMARK    2  A    between atoms: N_3  and  C_4
REMARK    3  A    between atoms: O_10  and  C_11
REMARK    4  A    between atoms: C_15  and  N_19
REMARK    5  A    between atoms: C_22  and  C_26
REMARK                            x       y       z     vdW  Elec       q    Type
REMARK                         _______ _______ _______ _____ _____    ______ ____
ROOT
ATOM     11  C   UNL     1      -1.704   0.532  24.904  0.00  0.00    +0.229 C 
ATOM     12  C   UNL     1      -1.211   0.290  25.519  0.00  0.00    +0.188 C 
ATOM     13  O   UNL     1      -0.434   0.461  25.303  0.00  0.00    -0.348 OA
ATOM     14  C   UNL     1      -0.446   0.808  24.556  0.00  0.00    +0.168 C 
ATOM     15  C   UNL     1       0.026   1.128  23.960  0.00  0.00    +0.155 C 
ATOM     16  C   UNL     1      -0.468   1.371  23.345  0.00  0.00    +0.166 C 
ATOM     17  O   UNL     1      -1.245   1.200  23.561  0.00  0.00    -0.348 OA
ATOM     18  C   UNL     1      -1.232   0.852  24.309  0.00  0.00    +0.186 C 
ENDROOT
BRANCH  15  19
ATOM     19  N   UNL     1       0.848   1.195  23.976  0.00  0.00    -0.200 NA
ATOM     20  C   UNL     1       1.308   0.767  23.441  0.00  0.00    +0.237 A 
ATOM     21  N   UNL     1       2.130   0.833  23.458  0.00  0.00    -0.209 NA
ATOM     22  C   UNL     1       2.589   0.405  22.923  0.00  0.00    +0.120 A 
ATOM     23  C   UNL     1       2.226  -0.090  22.371  0.00  0.00    +0.043 A 
ATOM     24  C   UNL     1       1.404  -0.156  22.355  0.00  0.00    +0.104 A 
ATOM     25  N   UNL     1       0.945   0.272  22.890  0.00  0.00    -0.211 NA
BRANCH  22  26
ATOM     26  C   UNL     1       3.411   0.471  22.939  0.00  0.00    +0.163 A 
ATOM     27  C   UNL     1       3.849   1.131  22.707  0.00  0.00    +0.042 A 
ATOM     28  C   UNL     1       4.648   0.957  22.815  0.00  0.00    +0.044 A 
ATOM     29  C   UNL     1       4.704   0.190  23.112  0.00  0.00    +0.180 A 
ATOM     30  O   UNL     1       3.939  -0.110  23.189  0.00  0.00    -0.449 OA
ENDBRANCH  22  26
ENDBRANCH  15  19
BRANCH  11  10
ATOM     10  O   UNL     1      -2.527   0.466  24.888  0.00  0.00    -0.432 OA
BRANCH  10   2
ATOM      1  O   UNL     1      -3.049  -0.643  25.623  0.00  0.00    -0.225 OA
ATOM      2  C   UNL     1      -2.881  -0.279  24.901  0.00  0.00    +0.421 C 
ATOM      3  N   UNL     1      -3.069  -0.660  24.194  0.00  0.00    -0.170 NA
BRANCH   3   4
ATOM      4  C   UNL     1      -3.423  -1.405  24.207  0.00  0.00    +0.099 C 
ATOM      5  C   UNL     1      -2.996  -2.060  24.467  0.00  0.00    +0.022 C 
ATOM      6  C   UNL     1      -3.351  -2.805  24.480  0.00  0.00    +0.002 C 
ATOM      7  C   UNL     1      -4.133  -2.894  24.233  0.00  0.00    +0.000 C 
ATOM      8  C   UNL     1      -4.560  -2.238  23.972  0.00  0.00    +0.002 C 
ATOM      9  C   UNL     1      -4.205  -1.493  23.959  0.00  0.00    +0.022 C 
ENDBRANCH   3   4
ENDBRANCH  10   2
ENDBRANCH  11  10
TORSDOF 5
ENDMDL
MODEL 7
REMARK VINA RESULT:      -8.4      4.168      5.468
REMARK  Name = 
REMARK  5 active torsions:
REMARK  status: ('A' for Active; 'I' for Inactive)
REMARK    1  A    between atoms: C_2  and  O_10
REMARK    2  A    between atoms: N_3  and  C_4
REMARK    3  A    between atoms: O_10  and  C_11
REMARK    4  A    between atoms: C_15  and  N_19
REMARK    5  A    between atoms: C_22  and  C_26
REMARK                            x       y       z     vdW  Elec       q    Type
REMARK                         _______ _______ _______ _____ _____    ______ ____
ROOT
ATOM     11  C   UNL     1      -4.037   3.017  24.444  0.00  0.00    +0.229 C 
ATOM     12  C   UNL     1      -3.820   2.774  23.687  0.00  0.00    +0.188 C 
ATOM     13  O   UNL     1      -3.977   1.967  23.624  0.00  0.00    -0.348 OA
ATOM     14  C   UNL     1      -4.292   1.711  24.342  0.00  0.00    +0.168 C 
ATOM     15  C   UNL     1      -4.584   1.055  24.748  0.00  0.00    +0.155 C 
ATOM     16  C   UNL     1      -4.801   1.298  25.505  0.00  0.00    +0.166 C 
ATOM     17  O   UNL     1      -4.643   2.105  25.568  0.00  0.00    -0.348 OA
ATOM     18  C   UNL     1      -4.328   2.361  24.849  0.00  0.00    +0.186 C 
ENDROOT
BRANCH  15  19
ATOM     19  N   UNL     1      -4.647   0.289  24.448  0.00  0.00    -0.200 NA
ATOM     20  C   UNL     1      -4.155  -0.309  24.734  0.00  0.00    +0.237 A 
ATOM     21  N   UNL     1      -4.218  -1.074  24.434  0.00  0.00    -0.209 NA
ATOM     22  C   UNL     1      -3.727  -1.672  24.721  0.00  0.00    +0.120 A 
ATOM     23  C   UNL     1      -3.171  -1.503  25.307  0.00  0.00    +0.043 A 
ATOM     24  C   UNL     1      -3.108  -0.737  25.607  0.00  0.00    +0.104 A 
ATOM     25  N   UNL     1      -3.600  -0.140  25.320  0.00  0.00    -0.211 NA
BRANCH  22  26
ATOM     26  C   UNL     1      -3.790  -2.438  24.421  0.00  0.00    +0.163 A 
ATOM     27  C   UNL     1      -3.326  -3.084  24.641  0.00  0.00    +0.042 A 
ATOM     28  C   UNL     1      -3.577  -3.738  24.205  0.00  0.00    +0.044 A 
ATOM     29  C   UNL     1      -4.196  -3.496  23.716  0.00  0.00    +0.180 A 
ATOM     30  O   UNL     1      -4.327  -2.692  23.850  0.00  0.00    -0.449 OA
ENDBRANCH  22  26
ENDBRANCH  15  19
BRANCH  11  10
ATOM     10  O   UNL     1      -3.973   3.783  24.744  0.00  0.00    -0.432 OA
BRANCH  10   2
ATOM      1  O   UNL     1      -3.149   4.645  23.956  0.00  0.00    -0.225 OA
ATOM      2  C   UNL     1      -3.273   4.208  24.646  0.00  0.00    +0.421 C 
ATOM      3  N   UNL     1      -2.697   4.197  25.236  0.00  0.00    -0.170 NA
BRANCH   3   4
ATOM      4  C   UNL     1      -1.997   4.622  25.138  0.00  0.00    +0.099 C 
ATOM      5  C   UNL     1      -2.009   5.447  25.151  0.00  0.00    +0.022 C 
ATOM      6  C   UNL     1      -1.309   5.872  25.053  0.00  0.00    +0.002 C 
ATOM      7  C   UNL     1      -0.596   5.472  24.942  0.00  0.00    +0.000 C 
ATOM      8  C   UNL     1      -0.583   4.646  24.928  0.00  0.00    +0.002 C 
ATOM      9  C   UNL     1      -1.284   4.222  25.026  0.00  0.00    +0.022 C 
ENDBRANCH   3   4
ENDBRANCH  10   2
ENDBRANCH  11  10
TORSDOF 5
ENDMDL
MODEL 8
REMARK VINA RESULT:      -8.1      1.463      2.017
REMARK  Name = 
REMARK  5 active torsions:
REMARK  status: ('A' for Active; 'I' for Inactive)
REMARK    1  A    between atoms: C_2  and  O_10
REMARK    2  A    between atoms: N_3  and  C_4
REMARK    3  A    between atoms: O_10  and  C_11
REMARK    4  A    between atoms: C_15  and  N_19
REMARK    5  A    between atoms: C_22  and  C_26
REMARK                            x       y       z     vdW  Elec       q    Type
REMARK                         _______ _______ _______ _____ _____    ______ ____
ROOT
ATOM     11  C   UNL     1      -3.158  -0.643  24.892  0.00  0.00    +0.229 C 
ATOM     12  C   UNL     1      -3.167  -0.923  24.116  0.00  0.00    +0.188 C 
ATOM     13  O   UNL     1      -2.386  -0.981  23.858  0.00  0.00    -0.348 OA
ATOM     14  C   UNL     1      -1.894  -0.738  24.473  0.00  0.00    +0.168 C 
ATOM     15  C   UNL     1      -1.108  -0.623  24.695  0.00  0.00    +0.155 C 
ATOM     16  C   UNL     1      -1.099  -0.343  25.471  0.00  0.00    +0.166 C 
ATOM     17  O   UNL     1      -1.880  -0.285  25.729  0.00  0.00    -0.348 OA
ATOM     18  C   UNL     1      -2.371  -0.529  25.113  0.00  0.00    +0.186 C 
ENDROOT
BRANCH  15  19
ATOM     19  N   UNL     1      -0.446  -0.764  24.223  0.00  0.00    -0.200 NA
ATOM     20  C   UNL     1       0.034  -0.136  23.986  0.00  0.00    +0.237 A 
ATOM     21  N   UNL     1       0.695  -0.276  23.514  0.00  0.00    -0.209 NA
ATOM     22  C   UNL     1       1.175   0.352  23.277  0.00  0.00    +0.120 A 
ATOM     23  C   UNL     1       0.992   1.121  23.512  0.00  0.00    +0.043 A 
ATOM     24  C   UNL     1       0.330   1.262  23.985  0.00  0.00    +0.104 A 
ATOM     25  N   UNL     1      -0.148   0.633  24.221  0.00  0.00    -0.211 NA
BRANCH  22  26
ATOM     26  C   UNL     1       1.836   0.211  22.805  0.00  0.00    +0.163 A 
ATOM     27  C   UNL     1       2.617   0.396  22.997  0.00  0.00    +0.042 A 
ATOM     28  C   UNL     1       3.097   0.160  22.369  0.00  0.00    +0.044 A 
ATOM     29  C   UNL     1       2.613  -0.170  21.789  0.00  0.00    +0.180 A 
ATOM     30  O   UNL     1       1.834  -0.138  22.058  0.00  0.00    -0.449 OA
ENDBRANCH  22  26
ENDBRANCH  15  19
BRANCH  11  10
ATOM     10  O   UNL     1      -3.820  -0.502  25.364  0.00  0.00    -0.432 OA
BRANCH  10   2
ATOM      1  O   UNL     1      -4.824  -0.003  24.479  0.00  0.00    -0.225 OA
ATOM      2  C   UNL     1      -4.358   0.087  25.155  0.00  0.00    +0.421 C 
ATOM      3  N   UNL     1      -4.432   0.764  25.620  0.00  0.00    -0.170 NA
BRANCH   3   4
ATOM      4  C   UNL     1      -4.971   1.352  25.411  0.00  0.00    +0.099 C 
ATOM      5  C   UNL     1      -5.773   1.256  25.577  0.00  0.00    +0.022 C 
ATOM      6  C   UNL     1      -6.311   1.845  25.368  0.00  0.00    +0.002 C 
ATOM      7  C   UNL     1      -6.048   2.530  24.992  0.00  0.00    +0.000 C 
ATOM      8  C   UNL     1      -5.245   2.626  24.825  0.00  0.00    +0.002 C 
ATOM      9  C   UNL     1      -4.707   2.037  25.034  0.00  0.00    +0.022 C 
ENDBRANCH   3   4
ENDBRANCH  10   2
ENDBRANCH  11  10
TORSDOF 5
ENDMDL
MODEL 9
REMARK VINA RESULT:      -7.2     17.223     18.147
REMARK  Name = 
REMARK  5 active torsions:
REMARK  status: ('A' for Active; 'I' for Inactive)
REMARK    1  A    between atoms: C_2  and  O_10
REMARK    2  A    between atoms: N_3  and  C_4
REMARK    3  A    between atoms: O_10  and  C_11
REMARK    4  A    between atoms: C_15  and  N_19
REMARK    5  A    between atoms: C_22  and  C_26
REMARK                            x       y       z     vdW  Elec       q    Type
REMARK                         _______ _______ _______ _____ _____    ______ ____
ROOT
ATOM     11  C   UNL     1      -7.670  -8.495   9.018  0.00  0.00    +0.229 C 
ATOM     12  C   UNL     1      -7.871  -8.515   9.817  0.00  0.00    +0.188 C 
ATOM     13  O   UNL     1      -7.261  -8.893  10.224  0.00  0.00    -0.348 OA
ATOM     14  C   UNL     1      -6.683  -9.107   9.677  0.00  0.00    +0.168 C 
ATOM     15  C   UNL     1      -5.949  -9.473   9.588  0.00  0.00    +0.155 C 
ATOM     16  C   UNL     1      -5.748  -9.454   8.789  0.00  0.00    +0.166 C 
ATOM     17  O   UNL     1      -6.358  -9.076   8.382  0.00  0.00    -0.348 OA
ATOM     18  C   UNL     1      -6.936  -8.861   8.931  0.00  0.00    +0.186 C 
ENDROOT
BRANCH  15  19
ATOM     19  N   UNL     1      -5.496  -9.801  10.195  0.00  0.00    -0.200 NA
ATOM     20  C   UNL     1      -4.691  -9.627  10.249  0.00  0.00    +0.237 A 
ATOM     21  N   UNL     1      -4.238  -9.955  10.855  0.00  0.00    -0.209 NA
ATOM     22  C   UNL     1      -3.433  -9.781  10.909  0.00  0.00    +0.120 A 
ATOM     23  C   UNL     1      -3.082  -9.278  10.357  0.00  0.00    +0.043 A 
ATOM     24  C   UNL     1      -3.535  -8.950   9.750  0.00  0.00    +0.104 A 
ATOM     25  N   UNL     1      -4.340  -9.125   9.697  0.00  0.00    -0.211 NA
BRANCH  22  26
ATOM     26  C   UNL     1      -2.979 -10.108  11.515  0.00  0.00    +0.163 A 
ATOM     27  C   UNL     1      -2.304 -10.573  11.418  0.00  0.00    +0.042 A 
ATOM     28  C   UNL     1      -2.029 -10.781  12.167  0.00  0.00    +0.044 A 
ATOM     29  C   UNL     1      -2.533 -10.445  12.726  0.00  0.00    +0.180 A 
ATOM     30  O   UNL     1      -3.120 -10.029  12.323  0.00  0.00    -0.449 OA
ENDBRANCH  22  26
ENDBRANCH  15  19
BRANCH  11  10
ATOM     10  O   UNL     1      -8.123  -8.167   8.411  0.00  0.00    -0.432 OA
BRANCH  10   2
ATOM      1  O   UNL     1      -9.181  -7.566   9.161  0.00  0.00    -0.225 OA
ATOM      2  C   UNL     1      -8.612  -7.520   8.565  0.00  0.00    +0.421 C 
ATOM      3  N   UNL     1      -8.531  -6.828   8.124  0.00  0.00    -0.170 NA
BRANCH   3   4
ATOM      4  C   UNL     1      -9.019  -6.181   8.277  0.00  0.00    +0.099 C 
ATOM      5  C   UNL     1      -9.838  -6.256   8.210  0.00  0.00    +0.022 C 
ATOM      6  C   UNL     1     -10.326  -5.609   8.364  0.00  0.00    +0.002 C 
ATOM      7  C   UNL     1      -9.995  -4.886   8.584  0.00  0.00    +0.000 C 
ATOM      8  C   UNL     1      -9.176  -4.811   8.651  0.00  0.00    +0.002 C 
ATOM      9  C   UNL     1      -8.688  -5.458   8.497  0.00  0.00    +0.022 C 
ENDBRANCH   3   4
ENDBRANCH  10   2
ENDBRANCH  11  10
TORSDOF 5
ENDMDL
MODEL 10
REMARK VINA RESULT:      -7.0     14.694     16.552
REMARK  Name = 
REMARK  5 active torsions:
REMARK  status: ('A' for Active; 'I' for Inactive)
REMARK    1  A    between atoms: C_2  and  O_10
REMARK    2  A    between atoms: N_3  and  C_4
REMARK    3  A    between atoms: O_10  and  C_11
REMARK    4  A    between atoms: C_15  and  N_19
REMARK    5  A    between atoms: C_22  and  C_26
REMARK                            x       y       z     vdW  Elec       q    Type
REMARK                         _______ _______ _______ _____ _____    ______ ____
ROOT
ATOM     11  C   UNL     1      -4.442 -10.548  12.956  0.00  0.00    +0.229 C 
ATOM     12  C   UNL     1      -5.257 -10.444  12.893  0.00  0.00    +0.188 C 
ATOM     13  O   UNL     1      -5.576 -10.468  13.653  0.00  0.00    -0.348 OA
ATOM     14  C   UNL     1      -4.958 -10.586  14.186  0.00  0.00    +0.168 C 
ATOM     15  C   UNL     1      -4.772 -10.674  14.985  0.00  0.00    +0.155 C 
ATOM     16  C   UNL     1      -3.957 -10.779  15.048  0.00  0.00    +0.166 C 
ATOM     17  O   UNL     1      -3.638 -10.755  14.288  0.00  0.00    -0.348 OA
ATOM     18  C   UNL     1      -4.257 -10.636  13.755  0.00  0.00    +0.186 C 
ENDROOT
BRANCH  15  19
ATOM     19  N   UNL     1      -5.309 -10.661  15.611  0.00  0.00    -0.200 NA
ATOM     20  C   UNL     1      -5.036 -10.626  16.389  0.00  0.00    +0.237 A 
ATOM     21  N   UNL     1      -5.572 -10.612  17.015  0.00  0.00    -0.209 NA
ATOM     22  C   UNL     1      -5.298 -10.577  17.793  0.00  0.00    +0.120 A 
ATOM     23  C   UNL     1      -4.488 -10.555  17.944  0.00  0.00    +0.043 A 
ATOM     24  C   UNL     1      -3.951 -10.569  17.317  0.00  0.00    +0.104 A 
ATOM     25  N   UNL     1      -4.225 -10.604  16.540  0.00  0.00    -0.211 NA
BRANCH  22  26
ATOM     26  C   UNL     1      -5.834 -10.563  18.419  0.00  0.00    +0.163 A 
ATOM     27  C   UNL     1      -5.673 -10.772  19.201  0.00  0.00    +0.042 A 
ATOM     28  C   UNL     1      -6.365 -10.676  19.639  0.00  0.00    +0.044 A 
ATOM     29  C   UNL     1      -6.954 -10.408  19.128  0.00  0.00    +0.180 A 
ATOM     30  O   UNL     1      -6.626 -10.338  18.374  0.00  0.00    -0.449 OA
ENDBRANCH  22  26
ENDBRANCH  15  19
BRANCH  11  10
ATOM     10  O   UNL     1      -3.904 -10.562  12.329  0.00  0.00    -0.432 OA
BRANCH  10   2
ATOM      1  O   UNL     1      -4.905 -10.553  11.308  0.00  0.00    -0.225 OA
ATOM      2  C   UNL     1      -4.149 -10.347  11.571  0.00  0.00    +0.421 C 
ATOM      3  N   UNL     1      -3.640  -9.928  11.076  0.00  0.00    -0.170 NA
BRANCH   3   4
ATOM      4  C   UNL     1      -3.885  -9.713  10.318  0.00  0.00    +0.099 C 
ATOM      5  C   UNL     1      -3.975 -10.289   9.735  0.00  0.00    +0.022 C 
ATOM      6  C   UNL     1      -4.220 -10.075   8.976  0.00  0.00    +0.002 C 
ATOM      7  C   UNL     1      -4.374  -9.284   8.802  0.00  0.00    +0.000 C 
ATOM      8  C   UNL     1      -4.285  -8.707   9.385  0.00  0.00    +0.002 C 
ATOM      9  C   UNL     1      -4.040  -8.922  10.143  0.00  0.00    +0.022 C 
ENDBRANCH   3   4
ENDBRANCH  10   2
ENDBRANCH  11  10
TORSDOF 5
ENDMDL
