MODEL 1
REMARK VINA RESULT:      -6.6      0.000      0.000
REMARK  Name = 
REMARK  3 active torsions:
REMARK  status: ('A' for Active; 'I' for Inactive)
REMARK    1  A    between atoms: O_2  and  C_3
REMARK    2  A    between atoms: C_3  and  C_4
REMARK    3  A    between atoms: N_6  and  C_7
REMARK                            x       y       z     vdW  Elec       q    Type
REMARK                         _______ _______ _______ _____ _____    ______ ____
ROOT
ATOM      7  C   UNL     1      -4.008   3.237  25.151  0.00  0.00    +0.154 C 
ATOM      8  C   UNL     1      -4.553   3.775  25.458  0.00  0.00    +0.166 C 
ATOM      9  O   UNL     1      -5.280   3.391  25.524  0.00  0.00    -0.349 OA
ATOM     10  C   UNL     1      -5.185   2.616  25.258  0.00  0.00    +0.177 C 
ATOM     11  C   UNL     1      -5.575   1.900  25.134  0.00  0.00    +0.211 C 
ATOM     12  O   UNL     1      -6.372   1.749  25.290  0.00  0.00    -0.218 OA
ATOM     13  C   UNL     1      -5.031   1.362  24.828  0.00  0.00    +0.178 C 
ATOM     14  O   UNL     1      -4.303   1.746  24.762  0.00  0.00    -0.349 OA
ATOM     15  C   UNL     1      -4.399   2.521  25.028  0.00  0.00    +0.167 C 
ENDROOT
BRANCH   7   6
ATOM      4  C   UNL     1      -2.780   3.880  25.497  0.00  0.00    +0.272 C 
ATOM      5  O   UNL     1      -3.144   4.221  26.155  0.00  0.00    -0.271 OA
ATOM      6  N   UNL     1      -3.212   3.388  24.996  0.00  0.00    -0.200 NA
BRANCH   4   3
ATOM      3  C   UNL     1      -1.984   4.032  25.342  0.00  0.00    +0.229 C 
BRANCH   3   2
ATOM      1  C   UNL     1      -0.972   4.986  25.018  0.00  0.00    +0.175 C 
ATOM      2  O   UNL     1      -1.700   4.806  25.360  0.00  0.00    -0.342 OA
ENDBRANCH   3   2
ENDBRANCH   4   3
ENDBRANCH   7   6
TORSDOF 3
ENDMDL
MODEL 2
REMARK VINA RESULT:      -6.5      2.852      3.978
REMARK  Name = 
REMARK  3 active torsions:
REMARK  status: ('A' for Active; 'I' for Inactive)
REMARK    1  A    between atoms: O_2  and  C_3
REMARK    2  A    between atoms: C_3  and  C_4
REMARK    3  A    between atoms: N_6  and  C_7
REMARK                            x       y       z     vdW  Elec       q    Type
REMARK                         _______ _______ _______ _____ _____    ______ ____
ROOT
ATOM      7  C   UNL     1      -3.989  -0.346  24.837  0.00  0.00    +0.154 C 
ATOM      8  C   UNL     1      -3.587  -0.465  25.548  0.00  0.00    +0.166 C 
ATOM      9  O   UNL     1      -3.396  -1.266  25.601  0.00  0.00    -0.349 OA
ATOM     10  C   UNL     1      -3.679  -1.642  24.924  0.00  0.00    +0.177 C 
ATOM     11  C   UNL     1      -3.737  -2.368  24.537  0.00  0.00    +0.211 C 
ATOM     12  O   UNL     1      -3.444  -3.088  24.814  0.00  0.00    -0.218 OA
ATOM     13  C   UNL     1      -4.138  -2.249  23.827  0.00  0.00    +0.178 C 
ATOM     14  O   UNL     1      -4.329  -1.448  23.773  0.00  0.00    -0.349 OA
ATOM     15  C   UNL     1      -4.046  -1.073  24.452  0.00  0.00    +0.167 C 
ENDROOT
BRANCH   7   6
ATOM      4  C   UNL     1      -3.833   1.062  24.643  0.00  0.00    +0.272 C 
ATOM      5  O   UNL     1      -3.090   1.029  25.002  0.00  0.00    -0.271 OA
ATOM      6  N   UNL     1      -4.282   0.374  24.561  0.00  0.00    -0.200 NA
BRANCH   4   3
ATOM      3  C   UNL     1      -4.125   1.781  24.367  0.00  0.00    +0.229 C 
BRANCH   3   2
ATOM      1  C   UNL     1      -3.900   3.122  23.926  0.00  0.00    +0.175 C 
ATOM      2  O   UNL     1      -3.608   2.405  24.212  0.00  0.00    -0.342 OA
ENDBRANCH   3   2
ENDBRANCH   4   3
ENDBRANCH   7   6
TORSDOF 3
ENDMDL
MODEL 3
REMARK VINA RESULT:      -6.5      2.097      3.785
REMARK  Name = 
REMARK  3 active torsions:
REMARK  status: ('A' for Active; 'I' for Inactive)
REMARK    1  A    between atoms: O_2  and  C_3
REMARK    2  A    between atoms: C_3  and  C_4
REMARK    3  A    between atoms: N_6  and  C_7
REMARK                            x       y       z     vdW  Elec       q    Type
REMARK                         _______ _______ _______ _____ _____    ______ ____
ROOT
ATOM      7  C   UNL     1      -4.381   1.085  24.696  0.00  0.00    +0.154 C 
ATOM      8  C   UNL     1      -3.741   1.512  24.397  0.00  0.00    +0.166 C 
ATOM      9  O   UNL     1      -3.846   2.304  24.602  0.00  0.00    -0.349 OA
ATOM     10  C   UNL     1      -4.549   2.368  25.028  0.00  0.00    +0.177 C 
ATOM     11  C   UNL     1      -5.049   2.896  25.417  0.00  0.00    +0.211 C 
ATOM     12  O   UNL     1      -4.929   3.709  25.494  0.00  0.00    -0.218 OA
ATOM     13  C   UNL     1      -5.688   2.469  25.716  0.00  0.00    +0.178 C 
ATOM     14  O   UNL     1      -5.585   1.677  25.511  0.00  0.00    -0.349 OA
ATOM     15  C   UNL     1      -4.880   1.615  25.086  0.00  0.00    +0.167 C 
ENDROOT
BRANCH   7   6
ATOM      4  C   UNL     1      -3.856  -0.242  24.631  0.00  0.00    +0.272 C 
ATOM      5  O   UNL     1      -3.092   0.056  24.721  0.00  0.00    -0.271 OA
ATOM      6  N   UNL     1      -4.500   0.273  24.619  0.00  0.00    -0.200 NA
BRANCH   4   3
ATOM      3  C   UNL     1      -3.975  -1.054  24.554  0.00  0.00    +0.229 C 
BRANCH   3   2
ATOM      1  C   UNL     1      -3.520  -2.395  24.747  0.00  0.00    +0.175 C 
ATOM      2  O   UNL     1      -3.417  -1.584  24.853  0.00  0.00    -0.342 OA
ENDBRANCH   3   2
ENDBRANCH   4   3
ENDBRANCH   7   6
TORSDOF 3
ENDMDL
MODEL 4
REMARK VINA RESULT:      -6.3      1.414      1.868
REMARK  Name = 
REMARK  3 active torsions:
REMARK  status: ('A' for Active; 'I' for Inactive)
REMARK    1  A    between atoms: O_2  and  C_3
REMARK    2  A    between atoms: C_3  and  C_4
REMARK    3  A    between atoms: N_6  and  C_7
REMARK                            x       y       z     vdW  Elec       q    Type
REMARK                         _______ _______ _______ _____ _____    ______ ____
ROOT
ATOM      7  C   UNL     1      -3.490   2.343  24.855  0.00  0.00    +0.154 C 
ATOM      8  C   UNL     1      -3.591   1.733  24.309  0.00  0.00    +0.166 C 
ATOM      9  O   UNL     1      -4.395   1.552  24.275  0.00  0.00    -0.349 OA
ATOM     10  C   UNL     1      -4.792   2.051  24.799  0.00  0.00    +0.177 C 
ATOM     11  C   UNL     1      -5.533   2.247  25.103  0.00  0.00    +0.211 C 
ATOM     12  O   UNL     1      -6.250   1.895  24.896  0.00  0.00    -0.218 OA
ATOM     13  C   UNL     1      -5.432   2.857  25.648  0.00  0.00    +0.178 C 
ATOM     14  O   UNL     1      -4.628   3.038  25.683  0.00  0.00    -0.349 OA
ATOM     15  C   UNL     1      -4.232   2.539  25.158  0.00  0.00    +0.167 C 
ENDROOT
BRANCH   7   6
ATOM      4  C   UNL     1      -2.095   2.232  25.144  0.00  0.00    +0.272 C 
ATOM      5  O   UNL     1      -2.134   1.418  25.020  0.00  0.00    -0.271 OA
ATOM      6  N   UNL     1      -2.774   2.695  25.061  0.00  0.00    -0.200 NA
BRANCH   4   3
ATOM      3  C   UNL     1      -1.379   2.584  25.350  0.00  0.00    +0.229 C 
BRANCH   3   2
ATOM      1  C   UNL     1      -0.127   2.532  26.038  0.00  0.00    +0.175 C 
ATOM      2  O   UNL     1      -0.835   2.173  25.815  0.00  0.00    -0.342 OA
ENDBRANCH   3   2
ENDBRANCH   4   3
ENDBRANCH   7   6
TORSDOF 3
ENDMDL
MODEL 5
REMARK VINA RESULT:      -6.2      1.690      3.750
REMARK  Name = 
REMARK  3 active torsions:
REMARK  status: ('A' for Active; 'I' for Inactive)
REMARK    1  A    between atoms: O_2  and  C_3
REMARK    2  A    between atoms: C_3  and  C_4
REMARK    3  A    between atoms: N_6  and  C_7
REMARK                            x       y       z     vdW  Elec       q    Type
REMARK                         _______ _______ _______ _____ _____    ______ ____
ROOT
ATOM      7  C   UNL     1      -2.061   3.187  25.310  0.00  0.00    +0.154 C 
ATOM      8  C   UNL     1      -1.696   3.919  25.423  0.00  0.00    +0.166 C 
ATOM      9  O   UNL     1      -0.911   3.781  25.634  0.00  0.00    -0.349 OA
ATOM     10  C   UNL     1      -0.790   2.965  25.652  0.00  0.00    +0.177 C 
ATOM     11  C   UNL     1      -0.231   2.376  25.792  0.00  0.00    +0.211 C 
ATOM     12  O   UNL     1       0.557   2.496  26.009  0.00  0.00    -0.218 OA
ATOM     13  C   UNL     1      -0.596   1.645  25.680  0.00  0.00    +0.178 C 
ATOM     14  O   UNL     1      -1.381   1.782  25.469  0.00  0.00    -0.349 OA
ATOM     15  C   UNL     1      -1.501   2.598  25.451  0.00  0.00    +0.167 C 
ENDROOT
BRANCH   7   6
ATOM      4  C   UNL     1      -3.447   3.504  25.455  0.00  0.00    +0.272 C 
ATOM      5  O   UNL     1      -3.259   4.062  26.033  0.00  0.00    -0.271 OA
ATOM      6  N   UNL     1      -2.848   3.067  25.094  0.00  0.00    -0.200 NA
BRANCH   4   3
ATOM      3  C   UNL     1      -4.234   3.384  25.239  0.00  0.00    +0.229 C 
BRANCH   3   2
ATOM      1  C   UNL     1      -5.572   3.072  25.630  0.00  0.00    +0.175 C 
ATOM      2  O   UNL     1      -4.821   3.356  25.818  0.00  0.00    -0.342 OA
ENDBRANCH   3   2
ENDBRANCH   4   3
ENDBRANCH   7   6
TORSDOF 3
ENDMDL
MODEL 6
REMARK VINA RESULT:      -6.1      4.073      4.774
REMARK  Name = 
REMARK  3 active torsions:
REMARK  status: ('A' for Active; 'I' for Inactive)
REMARK    1  A    between atoms: O_2  and  C_3
REMARK    2  A    between atoms: C_3  and  C_4
REMARK    3  A    between atoms: N_6  and  C_7
REMARK                            x       y       z     vdW  Elec       q    Type
REMARK                         _______ _______ _______ _____ _____    ______ ____
ROOT
ATOM      7  C   UNL     1      -1.894  -1.078  24.823  0.00  0.00    +0.154 C 
ATOM      8  C   UNL     1      -1.441  -1.767  24.805  0.00  0.00    +0.166 C 
ATOM      9  O   UNL     1      -1.944  -2.398  24.633  0.00  0.00    -0.349 OA
ATOM     10  C   UNL     1      -2.708  -2.099  24.545  0.00  0.00    +0.177 C 
ATOM     11  C   UNL     1      -3.491  -2.303  24.384  0.00  0.00    +0.211 C 
ATOM     12  O   UNL     1      -3.772  -3.064  24.232  0.00  0.00    -0.218 OA
ATOM     13  C   UNL     1      -3.943  -1.614  24.402  0.00  0.00    +0.178 C 
ATOM     14  O   UNL     1      -3.440  -0.983  24.573  0.00  0.00    -0.349 OA
ATOM     15  C   UNL     1      -2.677  -1.283  24.662  0.00  0.00    +0.167 C 
ENDROOT
BRANCH   7   6
ATOM      4  C   UNL     1      -0.865  -0.093  24.708  0.00  0.00    +0.272 C 
ATOM      5  O   UNL     1      -0.398  -0.629  24.291  0.00  0.00    -0.271 OA
ATOM      6  N   UNL     1      -1.613  -0.318  24.974  0.00  0.00    -0.200 NA
BRANCH   4   3
ATOM      3  C   UNL     1      -0.584   0.667  24.860  0.00  0.00    +0.229 C 
BRANCH   3   2
ATOM      1  C   UNL     1       0.160   1.816  24.449  0.00  0.00    +0.175 C 
ATOM      2  O   UNL     1      -0.090   1.042  24.316  0.00  0.00    -0.342 OA
ENDBRANCH   3   2
ENDBRANCH   4   3
ENDBRANCH   7   6
TORSDOF 3
ENDMDL
