MODEL 1
REMARK VINA RESULT:     -12.2      0.000      0.000
REMARK  Name = 
REMARK  7 active torsions:
REMARK  status: ('A' for Active; 'I' for Inactive)
REMARK    1  A    between atoms: O_2  and  C_3
REMARK    2  A    between atoms: C_6  and  C_7
REMARK    3  A    between atoms: C_7  and  N_8
REMARK    4  A    between atoms: C_9  and  C_11
REMARK    5  A    between atoms: C_11  and  C_13
REMARK    6  A    between atoms: C_20  and  N_21
REMARK    7  A    between atoms: C_22  and  C_24
REMARK                            x       y       z     vdW  Elec       q    Type
REMARK                         _______ _______ _______ _____ _____    ______ ____
ROOT
ATOM     13  C   UNL     1      -4.295   2.930  24.392  0.00  0.00    +0.039 C 
ATOM     14  C   UNL     1      -4.918   2.975  24.932  0.00  0.00    +0.003 C 
ATOM     15  C   UNL     1      -5.250   2.285  25.236  0.00  0.00    +0.000 C 
ATOM     16  C   UNL     1      -4.961   1.550  25.002  0.00  0.00    +0.002 C 
ATOM     17  C   UNL     1      -5.583   1.595  25.540  0.00  0.00    +0.000 C 
ATOM     18  C   UNL     1      -5.293   0.858  25.306  0.00  0.00    +0.002 C 
ATOM     19  C   UNL     1      -5.004   0.123  25.071  0.00  0.00    +0.022 C 
ATOM     20  C   UNL     1      -4.380   0.078  24.531  0.00  0.00    +0.096 C 
ATOM     30  C   UNL     1      -4.048   0.768  24.227  0.00  0.00    +0.022 C 
ATOM     31  C   UNL     1      -3.425   0.723  23.688  0.00  0.00    +0.002 C 
ATOM     32  C   UNL     1      -4.337   1.505  24.462  0.00  0.00    +0.032 C 
ATOM     33  C   UNL     1      -4.005   2.195  24.157  0.00  0.00    +0.152 C 
ATOM     34  O   UNL     1      -3.382   2.150  23.618  0.00  0.00    -0.223 OA
ENDROOT
BRANCH  20  21
ATOM     21  N   UNL     1      -4.091  -0.658  24.297  0.00  0.00    -0.202 NA
ATOM     22  C   UNL     1      -3.829  -1.198  24.862  0.00  0.00    +0.282 C 
ATOM     23  O   UNL     1      -3.856  -1.002  25.664  0.00  0.00    -0.267 OA
BRANCH  22  24
ATOM     24  C   UNL     1      -3.539  -1.935  24.628  0.00  0.00    +0.136 A 
ATOM     25  N   UNL     1      -2.748  -2.127  24.755  0.00  0.00    -0.239 NA
ATOM     26  C   UNL     1      -2.458  -2.863  24.520  0.00  0.00    +0.099 A 
ATOM     27  C   UNL     1      -2.962  -3.407  24.158  0.00  0.00    +0.021 A 
ATOM     28  C   UNL     1      -3.755  -3.215  24.031  0.00  0.00    +0.003 A 
ATOM     29  C   UNL     1      -4.043  -2.479  24.266  0.00  0.00    +0.024 A 
ENDBRANCH  22  24
ENDBRANCH  20  21
BRANCH  13  11
ATOM     11  C   UNL     1      -3.962   3.622  24.088  0.00  0.00    +0.081 C 
ATOM     12  C   UNL     1      -4.174   3.883  23.334  0.00  0.00    +0.010 C 
BRANCH  11   9
ATOM      8  N   UNL     1      -2.636   3.800  24.588  0.00  0.00    -0.201 NA
ATOM      9  C   UNL     1      -3.419   4.052  24.536  0.00  0.00    +0.241 C 
ATOM     10  O   UNL     1      -3.660   4.735  24.932  0.00  0.00    -0.273 OA
BRANCH   8   7
ATOM      7  C   UNL     1      -2.093   4.229  25.036  0.00  0.00    +0.141 C 
BRANCH   7   6
ATOM      3  C   UNL     1      -0.063   3.124  25.920  0.00  0.00    +0.139 A 
ATOM      4  C   UNL     1      -0.039   3.507  25.190  0.00  0.00    +0.037 A 
ATOM      5  C   UNL     1      -0.716   3.876  24.896  0.00  0.00    +0.001 A 
ATOM      6  C   UNL     1      -1.416   3.861  25.330  0.00  0.00    -0.000 A 
ATOM     35  C   UNL     1      -1.440   3.477  26.060  0.00  0.00    +0.001 A 
ATOM     36  C   UNL     1      -0.764   3.109  26.356  0.00  0.00    +0.037 A 
BRANCH   3   2
ATOM      1  C   UNL     1       0.590   2.374  26.945  0.00  0.00    +0.252 C 
ATOM      2  O   UNL     1       0.614   2.755  26.215  0.00  0.00    -0.471 OA
ENDBRANCH   3   2
ENDBRANCH   7   6
ENDBRANCH   8   7
ENDBRANCH  11   9
ENDBRANCH  13  11
TORSDOF 7
ENDMDL
MODEL 2
REMARK VINA RESULT:     -11.5      1.829      3.717
REMARK  Name = 
REMARK  7 active torsions:
REMARK  status: ('A' for Active; 'I' for Inactive)
REMARK    1  A    between atoms: O_2  and  C_3
REMARK    2  A    between atoms: C_6  and  C_7
REMARK    3  A    between atoms: C_7  and  N_8
REMARK    4  A    between atoms: C_9  and  C_11
REMARK    5  A    between atoms: C_11  and  C_13
REMARK    6  A    between atoms: C_20  and  N_21
REMARK    7  A    between atoms: C_22  and  C_24
REMARK                            x       y       z     vdW  Elec       q    Type
REMARK                         _______ _______ _______ _____ _____    ______ ____
ROOT
ATOM     13  C   UNL     1      -0.172   2.066  25.263  0.00  0.00    +0.039 C 
ATOM     14  C   UNL     1       0.325   2.078  24.603  0.00  0.00    +0.003 C 
ATOM     15  C   UNL     1       0.347   1.431  24.092  0.00  0.00    +0.000 C 
ATOM     16  C   UNL     1      -0.127   0.773  24.239  0.00  0.00    +0.002 C 
ATOM     17  C   UNL     1       0.369   0.785  23.581  0.00  0.00    +0.000 C 
ATOM     18  C   UNL     1      -0.105   0.126  23.728  0.00  0.00    +0.002 C 
ATOM     19  C   UNL     1      -0.579  -0.533  23.875  0.00  0.00    +0.022 C 
ATOM     20  C   UNL     1      -1.076  -0.545  24.535  0.00  0.00    +0.096 C 
ATOM     30  C   UNL     1      -1.098   0.102  25.046  0.00  0.00    +0.022 C 
ATOM     31  C   UNL     1      -1.594   0.090  25.705  0.00  0.00    +0.002 C 
ATOM     32  C   UNL     1      -0.624   0.761  24.899  0.00  0.00    +0.032 C 
ATOM     33  C   UNL     1      -0.645   1.407  25.410  0.00  0.00    +0.152 C 
ATOM     34  O   UNL     1      -1.141   1.395  26.069  0.00  0.00    -0.223 OA
ENDROOT
BRANCH  20  21
ATOM     21  N   UNL     1      -1.550  -1.204  24.682  0.00  0.00    -0.202 NA
ATOM     22  C   UNL     1      -2.187  -1.374  24.187  0.00  0.00    +0.282 C 
ATOM     23  O   UNL     1      -2.351  -0.883  23.543  0.00  0.00    -0.267 OA
BRANCH  22  24
ATOM     24  C   UNL     1      -2.661  -2.033  24.334  0.00  0.00    +0.136 A 
ATOM     25  N   UNL     1      -2.318  -2.742  24.577  0.00  0.00    -0.239 NA
ATOM     26  C   UNL     1      -2.792  -3.401  24.723  0.00  0.00    +0.099 A 
ATOM     27  C   UNL     1      -3.610  -3.350  24.627  0.00  0.00    +0.021 A 
ATOM     28  C   UNL     1      -3.953  -2.640  24.384  0.00  0.00    +0.003 A 
ATOM     29  C   UNL     1      -3.478  -1.982  24.237  0.00  0.00    +0.024 A 
ENDBRANCH  22  24
ENDBRANCH  20  21
BRANCH  13  11
ATOM     11  C   UNL     1      -0.193   2.713  25.775  0.00  0.00    +0.081 C 
ATOM     12  C   UNL     1       0.228   2.692  26.484  0.00  0.00    +0.010 C 
BRANCH  11   9
ATOM      8  N   UNL     1      -1.444   3.403  25.736  0.00  0.00    -0.201 NA
ATOM      9  C   UNL     1      -0.635   3.381  25.578  0.00  0.00    +0.241 C 
ATOM     10  O   UNL     1      -0.267   4.029  25.221  0.00  0.00    -0.273 OA
BRANCH   8   7
ATOM      7  C   UNL     1      -1.885   4.071  25.539  0.00  0.00    +0.141 C 
BRANCH   7   6
ATOM      3  C   UNL     1      -4.354   3.941  25.437  0.00  0.00    +0.139 A 
ATOM      4  C   UNL     1      -3.977   4.048  26.163  0.00  0.00    +0.037 A 
ATOM      5  C   UNL     1      -3.153   4.092  26.196  0.00  0.00    +0.001 A 
ATOM      6  C   UNL     1      -2.708   4.028  25.506  0.00  0.00    -0.000 A 
ATOM     35  C   UNL     1      -3.086   3.920  24.780  0.00  0.00    +0.001 A 
ATOM     36  C   UNL     1      -3.909   3.877  24.745  0.00  0.00    +0.037 A 
BRANCH   3   2
ATOM      1  C   UNL     1      -5.561   3.190  25.579  0.00  0.00    +0.252 C 
ATOM      2  O   UNL     1      -5.177   3.897  25.402  0.00  0.00    -0.471 OA
ENDBRANCH   3   2
ENDBRANCH   7   6
ENDBRANCH   8   7
ENDBRANCH  11   9
ENDBRANCH  13  11
TORSDOF 7
ENDMDL
MODEL 3
REMARK VINA RESULT:     -11.4      3.526      5.235
REMARK  Name = 
REMARK  7 active torsions:
REMARK  status: ('A' for Active; 'I' for Inactive)
REMARK    1  A    between atoms: O_2  and  C_3
REMARK    2  A    between atoms: C_6  and  C_7
REMARK    3  A    between atoms: C_7  and  N_8
REMARK    4  A    between atoms: C_9  and  C_11
REMARK    5  A    between atoms: C_11  and  C_13
REMARK    6  A    between atoms: C_20  and  N_21
REMARK    7  A    between atoms: C_22  and  C_24
REMARK                            x       y       z     vdW  Elec       q    Type
REMARK                         _______ _______ _______ _____ _____    ______ ____
ROOT
ATOM     13  C   UNL     1      -0.119   0.657  23.990  0.00  0.00    +0.039 C 
ATOM     14  C   UNL     1       0.286   1.373  24.061  0.00  0.00    +0.003 C 
ATOM     15  C   UNL     1      -0.111   2.046  24.323  0.00  0.00    +0.000 C 
ATOM     16  C   UNL     1      -0.912   2.005  24.514  0.00  0.00    +0.002 C 
ATOM     17  C   UNL     1      -0.508   2.720  24.585  0.00  0.00    +0.000 C 
ATOM     18  C   UNL     1      -1.310   2.679  24.776  0.00  0.00    +0.002 C 
ATOM     19  C   UNL     1      -2.110   2.637  24.967  0.00  0.00    +0.022 C 
ATOM     20  C   UNL     1      -2.515   1.921  24.896  0.00  0.00    +0.096 C 
ATOM     30  C   UNL     1      -2.118   1.248  24.634  0.00  0.00    +0.022 C 
ATOM     31  C   UNL     1      -2.523   0.532  24.563  0.00  0.00    +0.002 C 
ATOM     32  C   UNL     1      -1.317   1.289  24.443  0.00  0.00    +0.032 C 
ATOM     33  C   UNL     1      -0.920   0.615  24.181  0.00  0.00    +0.152 C 
ATOM     34  O   UNL     1      -1.324  -0.100  24.110  0.00  0.00    -0.223 OA
ENDROOT
BRANCH  20  21
ATOM     21  N   UNL     1      -3.317   1.880  25.087  0.00  0.00    -0.202 NA
ATOM     22  C   UNL     1      -3.826   2.489  24.864  0.00  0.00    +0.282 C 
ATOM     23  O   UNL     1      -3.534   3.141  24.450  0.00  0.00    -0.267 OA
BRANCH  22  24
ATOM     24  C   UNL     1      -4.628   2.448  25.055  0.00  0.00    +0.136 A 
ATOM     25  N   UNL     1      -5.126   1.939  24.640  0.00  0.00    -0.239 NA
ATOM     26  C   UNL     1      -5.928   1.898  24.832  0.00  0.00    +0.099 A 
ATOM     27  C   UNL     1      -6.231   2.367  25.439  0.00  0.00    +0.021 A 
ATOM     28  C   UNL     1      -5.732   2.877  25.855  0.00  0.00    +0.003 A 
ATOM     29  C   UNL     1      -4.931   2.917  25.663  0.00  0.00    +0.024 A 
ENDBRANCH  22  24
ENDBRANCH  20  21
BRANCH  13  11
ATOM     11  C   UNL     1       0.279  -0.017  23.728  0.00  0.00    +0.081 C 
ATOM     12  C   UNL     1       0.145  -0.744  24.095  0.00  0.00    +0.010 C 
BRANCH  11   9
ATOM      8  N   UNL     1       1.622   0.042  23.244  0.00  0.00    -0.201 NA
ATOM      9  C   UNL     1       0.811   0.035  23.099  0.00  0.00    +0.241 C 
ATOM     10  O   UNL     1       0.529   0.080  22.323  0.00  0.00    -0.273 OA
BRANCH   8   7
ATOM      7  C   UNL     1       2.153   0.094  22.615  0.00  0.00    +0.141 C 
BRANCH   7   6
ATOM      3  C   UNL     1       4.578   0.323  23.055  0.00  0.00    +0.139 A 
ATOM      4  C   UNL     1       4.196  -0.391  23.215  0.00  0.00    +0.037 A 
ATOM      5  C   UNL     1       3.387  -0.466  23.068  0.00  0.00    +0.001 A 
ATOM      6  C   UNL     1       2.962   0.170  22.762  0.00  0.00    -0.000 A 
ATOM     35  C   UNL     1       3.344   0.883  22.602  0.00  0.00    +0.001 A 
ATOM     36  C   UNL     1       4.152   0.960  22.748  0.00  0.00    +0.037 A 
BRANCH   3   2
ATOM      1  C   UNL     1       5.720   0.048  23.867  0.00  0.00    +0.252 C 
ATOM      2  O   UNL     1       5.386   0.400  23.201  0.00  0.00    -0.471 OA
ENDBRANCH   3   2
ENDBRANCH   7   6
ENDBRANCH   8   7
ENDBRANCH  11   9
ENDBRANCH  13  11
TORSDOF 7
ENDMDL
MODEL 4
REMARK VINA RESULT:     -11.1      2.414      4.860
REMARK  Name = 
REMARK  7 active torsions:
REMARK  status: ('A' for Active; 'I' for Inactive)
REMARK    1  A    between atoms: O_2  and  C_3
REMARK    2  A    between atoms: C_6  and  C_7
REMARK    3  A    between atoms: C_7  and  N_8
REMARK    4  A    between atoms: C_9  and  C_11
REMARK    5  A    between atoms: C_11  and  C_13
REMARK    6  A    between atoms: C_20  and  N_21
REMARK    7  A    between atoms: C_22  and  C_24
REMARK                            x       y       z     vdW  Elec       q    Type
REMARK                         _______ _______ _______ _____ _____    ______ ____
ROOT
ATOM     13  C   UNL     1      -2.827   2.584  24.643  0.00  0.00    +0.039 C 
ATOM     14  C   UNL     1      -2.637   2.928  25.370  0.00  0.00    +0.003 C 
ATOM     15  C   UNL     1      -1.850   2.980  25.608  0.00  0.00    +0.000 C 
ATOM     16  C   UNL     1      -1.251   2.689  25.121  0.00  0.00    +0.002 C 
ATOM     17  C   UNL     1      -1.062   3.031  25.846  0.00  0.00    +0.000 C 
ATOM     18  C   UNL     1      -0.463   2.740  25.359  0.00  0.00    +0.002 C 
ATOM     19  C   UNL     1       0.135   2.449  24.873  0.00  0.00    +0.022 C 
ATOM     20  C   UNL     1      -0.055   2.106  24.146  0.00  0.00    +0.096 C 
ATOM     30  C   UNL     1      -0.842   2.054  23.908  0.00  0.00    +0.022 C 
ATOM     31  C   UNL     1      -1.031   1.711  23.182  0.00  0.00    +0.002 C 
ATOM     32  C   UNL     1      -1.441   2.345  24.395  0.00  0.00    +0.032 C 
ATOM     33  C   UNL     1      -2.229   2.293  24.156  0.00  0.00    +0.152 C 
ATOM     34  O   UNL     1      -2.418   1.950  23.431  0.00  0.00    -0.223 OA
ENDROOT
BRANCH  20  21
ATOM     21  N   UNL     1       0.545   1.815  23.659  0.00  0.00    -0.202 NA
ATOM     22  C   UNL     1       0.995   1.168  23.900  0.00  0.00    +0.282 C 
ATOM     23  O   UNL     1       0.847   0.810  24.630  0.00  0.00    -0.267 OA
BRANCH  22  24
ATOM     24  C   UNL     1       1.594   0.877  23.413  0.00  0.00    +0.136 A 
ATOM     25  N   UNL     1       2.331   1.246  23.399  0.00  0.00    -0.239 NA
ATOM     26  C   UNL     1       2.930   0.955  22.912  0.00  0.00    +0.099 A 
ATOM     27  C   UNL     1       2.792   0.294  22.438  0.00  0.00    +0.021 A 
ATOM     28  C   UNL     1       2.054  -0.077  22.452  0.00  0.00    +0.003 A 
ATOM     29  C   UNL     1       1.456   0.215  22.939  0.00  0.00    +0.024 A 
ENDBRANCH  22  24
ENDBRANCH  20  21
BRANCH  13  11
ATOM     11  C   UNL     1      -3.615   2.532  24.405  0.00  0.00    +0.081 C 
ATOM     12  C   UNL     1      -3.909   3.054  23.838  0.00  0.00    +0.010 C 
BRANCH  11   9
ATOM      8  N   UNL     1      -4.011   1.165  24.537  0.00  0.00    -0.201 NA
ATOM      9  C   UNL     1      -4.110   1.960  24.734  0.00  0.00    +0.241 C 
ATOM     10  O   UNL     1      -4.705   2.183  25.262  0.00  0.00    -0.273 OA
BRANCH   8   7
ATOM      7  C   UNL     1      -4.506   0.594  24.866  0.00  0.00    +0.141 C 
BRANCH   7   6
ATOM      3  C   UNL     1      -3.890  -1.800  24.738  0.00  0.00    +0.139 A 
ATOM      4  C   UNL     1      -3.718  -1.366  25.418  0.00  0.00    +0.037 A 
ATOM      5  C   UNL     1      -3.923  -0.568  25.460  0.00  0.00    +0.001 A 
ATOM      6  C   UNL     1      -4.300  -0.204  24.823  0.00  0.00    -0.000 A 
ATOM     35  C   UNL     1      -4.472  -0.638  24.143  0.00  0.00    +0.001 A 
ATOM     36  C   UNL     1      -4.267  -1.436  24.100  0.00  0.00    +0.037 A 
BRANCH   3   2
ATOM      1  C   UNL     1      -2.910  -2.816  24.517  0.00  0.00    +0.252 C 
ATOM      2  O   UNL     1      -3.685  -2.598  24.694  0.00  0.00    -0.471 OA
ENDBRANCH   3   2
ENDBRANCH   7   6
ENDBRANCH   8   7
ENDBRANCH  11   9
ENDBRANCH  13  11
TORSDOF 7
ENDMDL
MODEL 5
REMARK VINA RESULT:     -10.4      2.761      4.819
REMARK  Name = 
REMARK  7 active torsions:
REMARK  status: ('A' for Active; 'I' for Inactive)
REMARK    1  A    between atoms: O_2  and  C_3
REMARK    2  A    between atoms: C_6  and  C_7
REMARK    3  A    between atoms: C_7  and  N_8
REMARK    4  A    between atoms: C_9  and  C_11
REMARK    5  A    between atoms: C_11  and  C_13
REMARK    6  A    between atoms: C_20  and  N_21
REMARK    7  A    between atoms: C_22  and  C_24
REMARK                            x       y       z     vdW  Elec       q    Type
REMARK                         _______ _______ _______ _____ _____    ______ ____
ROOT
ATOM     13  C   UNL     1      -1.680  -1.085  24.647  0.00  0.00    +0.039 C 
ATOM     14  C   UNL     1      -2.203  -1.685  24.428  0.00  0.00    +0.003 C 
ATOM     15  C   UNL     1      -3.016  -1.548  24.439  0.00  0.00    +0.000 C 
ATOM     16  C   UNL     1      -3.306  -0.811  24.670  0.00  0.00    +0.002 C 
ATOM     17  C   UNL     1      -3.829  -1.410  24.451  0.00  0.00    +0.000 C 
ATOM     18  C   UNL     1      -4.120  -0.673  24.682  0.00  0.00    +0.002 C 
ATOM     19  C   UNL     1      -4.410   0.063  24.912  0.00  0.00    +0.022 C 
ATOM     20  C   UNL     1      -3.887   0.663  25.131  0.00  0.00    +0.096 C 
ATOM     30  C   UNL     1      -3.074   0.526  25.120  0.00  0.00    +0.022 C 
ATOM     31  C   UNL     1      -2.551   1.125  25.339  0.00  0.00    +0.002 C 
ATOM     32  C   UNL     1      -2.783  -0.211  24.889  0.00  0.00    +0.032 C 
ATOM     33  C   UNL     1      -1.970  -0.349  24.877  0.00  0.00    +0.152 C 
ATOM     34  O   UNL     1      -1.447   0.250  25.096  0.00  0.00    -0.223 OA
ENDROOT
BRANCH  20  21
ATOM     21  N   UNL     1      -4.178   1.400  25.362  0.00  0.00    -0.202 NA
ATOM     22  C   UNL     1      -4.780   1.760  24.929  0.00  0.00    +0.282 C 
ATOM     23  O   UNL     1      -5.092   1.383  24.263  0.00  0.00    -0.267 OA
BRANCH  22  24
ATOM     24  C   UNL     1      -5.071   2.497  25.159  0.00  0.00    +0.136 A 
ATOM     25  N   UNL     1      -4.656   3.183  24.969  0.00  0.00    -0.239 NA
ATOM     26  C   UNL     1      -4.947   3.920  25.199  0.00  0.00    +0.099 A 
ATOM     27  C   UNL     1      -5.654   3.970  25.621  0.00  0.00    +0.021 A 
ATOM     28  C   UNL     1      -6.070   3.283  25.812  0.00  0.00    +0.003 A 
ATOM     29  C   UNL     1      -5.778   2.547  25.581  0.00  0.00    +0.024 A 
ENDBRANCH  22  24
ENDBRANCH  20  21
BRANCH  13  11
ATOM     11  C   UNL     1      -0.866  -1.223  24.635  0.00  0.00    +0.081 C 
ATOM     12  C   UNL     1      -0.470  -1.411  25.334  0.00  0.00    +0.010 C 
BRANCH  11   9
ATOM      8  N   UNL     1       0.132  -0.598  23.826  0.00  0.00    -0.201 NA
ATOM      9  C   UNL     1      -0.448  -1.175  23.925  0.00  0.00    +0.241 C 
ATOM     10  O   UNL     1      -0.612  -1.705  23.313  0.00  0.00    -0.273 OA
BRANCH   8   7
ATOM      7  C   UNL     1       0.549  -0.549  23.117  0.00  0.00    +0.141 C 
BRANCH   7   6
ATOM      3  C   UNL     1       2.612   0.811  22.983  0.00  0.00    +0.139 A 
ATOM      4  C   UNL     1       2.591   0.060  22.641  0.00  0.00    +0.037 A 
ATOM      5  C   UNL     1       1.903  -0.393  22.686  0.00  0.00    +0.001 A 
ATOM      6  C   UNL     1       1.237  -0.096  23.072  0.00  0.00    -0.000 A 
ATOM     35  C   UNL     1       1.259   0.655  23.413  0.00  0.00    +0.001 A 
ATOM     36  C   UNL     1       1.946   1.109  23.369  0.00  0.00    +0.037 A 
BRANCH   3   2
ATOM      1  C   UNL     1       4.006   0.921  22.692  0.00  0.00    +0.252 C 
ATOM      2  O   UNL     1       3.300   1.265  22.938  0.00  0.00    -0.471 OA
ENDBRANCH   3   2
ENDBRANCH   7   6
ENDBRANCH   8   7
ENDBRANCH  11   9
ENDBRANCH  13  11
TORSDOF 7
ENDMDL
MODEL 6
REMARK VINA RESULT:     -10.0      2.619      5.143
REMARK  Name = 
REMARK  7 active torsions:
REMARK  status: ('A' for Active; 'I' for Inactive)
REMARK    1  A    between atoms: O_2  and  C_3
REMARK    2  A    between atoms: C_6  and  C_7
REMARK    3  A    between atoms: C_7  and  N_8
REMARK    4  A    between atoms: C_9  and  C_11
REMARK    5  A    between atoms: C_11  and  C_13
REMARK    6  A    between atoms: C_20  and  N_21
REMARK    7  A    between atoms: C_22  and  C_24
REMARK                            x       y       z     vdW  Elec       q    Type
REMARK                         _______ _______ _______ _____ _____    ______ ____
ROOT
ATOM     13  C   UNL     1      -2.898  -1.174  25.215  0.00  0.00    +0.039 C 
ATOM     14  C   UNL     1      -2.939  -1.947  24.927  0.00  0.00    +0.003 C 
ATOM     15  C   UNL     1      -2.299  -2.269  24.519  0.00  0.00    +0.000 C 
ATOM     16  C   UNL     1      -1.618  -1.821  24.399  0.00  0.00    +0.002 C 
ATOM     17  C   UNL     1      -1.659  -2.592  24.111  0.00  0.00    +0.000 C 
ATOM     18  C   UNL     1      -0.977  -2.143  23.991  0.00  0.00    +0.002 C 
ATOM     19  C   UNL     1      -0.296  -1.694  23.870  0.00  0.00    +0.022 C 
ATOM     20  C   UNL     1      -0.255  -0.921  24.159  0.00  0.00    +0.096 C 
ATOM     30  C   UNL     1      -0.895  -0.599  24.566  0.00  0.00    +0.022 C 
ATOM     31  C   UNL     1      -0.854   0.173  24.854  0.00  0.00    +0.002 C 
ATOM     32  C   UNL     1      -1.577  -1.048  24.687  0.00  0.00    +0.032 C 
ATOM     33  C   UNL     1      -2.217  -0.725  25.095  0.00  0.00    +0.152 C 
ATOM     34  O   UNL     1      -2.175   0.047  25.382  0.00  0.00    -0.223 OA
ENDROOT
BRANCH  20  21
ATOM     21  N   UNL     1       0.427  -0.473  24.038  0.00  0.00    -0.202 NA
ATOM     22  C   UNL     1       0.719  -0.363  23.275  0.00  0.00    +0.282 C 
ATOM     23  O   UNL     1       0.329  -0.702  22.631  0.00  0.00    -0.267 OA
BRANCH  22  24
ATOM     24  C   UNL     1       1.401   0.086  23.154  0.00  0.00    +0.136 A 
ATOM     25  N   UNL     1       1.442   0.860  23.436  0.00  0.00    -0.239 NA
ATOM     26  C   UNL     1       2.124   1.308  23.316  0.00  0.00    +0.099 A 
ATOM     27  C   UNL     1       2.765   0.982  22.913  0.00  0.00    +0.021 A 
ATOM     28  C   UNL     1       2.725   0.208  22.630  0.00  0.00    +0.003 A 
ATOM     29  C   UNL     1       2.043  -0.240  22.751  0.00  0.00    +0.024 A 
ENDBRANCH  22  24
ENDBRANCH  20  21
BRANCH  13  11
ATOM     11  C   UNL     1      -3.538  -0.852  25.623  0.00  0.00    +0.081 C 
ATOM     12  C   UNL     1      -3.570  -0.902  26.446  0.00  0.00    +0.010 C 
BRANCH  11   9
ATOM      8  N   UNL     1      -4.340   0.305  25.375  0.00  0.00    -0.201 NA
ATOM      9  C   UNL     1      -4.147  -0.479  25.209  0.00  0.00    +0.241 C 
ATOM     10  O   UNL     1      -4.564  -0.893  24.628  0.00  0.00    -0.273 OA
BRANCH   8   7
ATOM      7  C   UNL     1      -4.949   0.677  24.962  0.00  0.00    +0.141 C 
BRANCH   7   6
ATOM      3  C   UNL     1      -5.424   3.075  25.345  0.00  0.00    +0.139 A 
ATOM      4  C   UNL     1      -4.849   2.851  24.797  0.00  0.00    +0.037 A 
ATOM      5  C   UNL     1      -4.691   2.051  24.669  0.00  0.00    +0.001 A 
ATOM      6  C   UNL     1      -5.107   1.476  25.089  0.00  0.00    -0.000 A 
ATOM     35  C   UNL     1      -5.681   1.700  25.637  0.00  0.00    +0.001 A 
ATOM     36  C   UNL     1      -5.840   2.500  25.765  0.00  0.00    +0.037 A 
BRANCH   3   2
ATOM      1  C   UNL     1      -4.966   4.420  25.491  0.00  0.00    +0.252 C 
ATOM      2  O   UNL     1      -5.583   3.874  25.473  0.00  0.00    -0.471 OA
ENDBRANCH   3   2
ENDBRANCH   7   6
ENDBRANCH   8   7
ENDBRANCH  11   9
ENDBRANCH  13  11
TORSDOF 7
ENDMDL
MODEL 7
REMARK VINA RESULT:     -10.0      1.855      5.468
REMARK  Name = 
REMARK  7 active torsions:
REMARK  status: ('A' for Active; 'I' for Inactive)
REMARK    1  A    between atoms: O_2  and  C_3
REMARK    2  A    between atoms: C_6  and  C_7
REMARK    3  A    between atoms: C_7  and  N_8
REMARK    4  A    between atoms: C_9  and  C_11
REMARK    5  A    between atoms: C_11  and  C_13
REMARK    6  A    between atoms: C_20  and  N_21
REMARK    7  A    between atoms: C_22  and  C_24
REMARK                            x       y       z     vdW  Elec       q    Type
REMARK                         _______ _______ _______ _____ _____    ______ ____
ROOT
ATOM     13  C   UNL     1      -0.428   1.353  24.342  0.00  0.00    +0.039 C 
ATOM     14  C   UNL     1       0.077   1.714  24.887  0.00  0.00    +0.003 C 
ATOM     15  C   UNL     1      -0.196   2.339  25.349  0.00  0.00    +0.000 C 
ATOM     16  C   UNL     1      -0.971   2.606  25.267  0.00  0.00    +0.002 C 
ATOM     17  C   UNL     1      -0.468   2.965  25.811  0.00  0.00    +0.000 C 
ATOM     18  C   UNL     1      -1.245   3.232  25.730  0.00  0.00    +0.002 C 
ATOM     19  C   UNL     1      -2.021   3.498  25.648  0.00  0.00    +0.022 C 
ATOM     20  C   UNL     1      -2.525   3.137  25.102  0.00  0.00    +0.096 C 
ATOM     30  C   UNL     1      -2.253   2.511  24.640  0.00  0.00    +0.022 C 
ATOM     31  C   UNL     1      -2.757   2.151  24.095  0.00  0.00    +0.002 C 
ATOM     32  C   UNL     1      -1.476   2.245  24.722  0.00  0.00    +0.032 C 
ATOM     33  C   UNL     1      -1.204   1.619  24.260  0.00  0.00    +0.152 C 
ATOM     34  O   UNL     1      -1.708   1.259  23.715  0.00  0.00    -0.223 OA
ENDROOT
BRANCH  20  21
ATOM     21  N   UNL     1      -3.302   3.404  25.021  0.00  0.00    -0.202 NA
ATOM     22  C   UNL     1      -3.793   3.453  25.681  0.00  0.00    +0.282 C 
ATOM     23  O   UNL     1      -3.508   3.234  26.425  0.00  0.00    -0.267 OA
BRANCH  22  24
ATOM     24  C   UNL     1      -4.570   3.719  25.599  0.00  0.00    +0.136 A 
ATOM     25  N   UNL     1      -4.718   4.510  25.420  0.00  0.00    -0.239 NA
ATOM     26  C   UNL     1      -5.495   4.777  25.339  0.00  0.00    +0.099 A 
ATOM     27  C   UNL     1      -6.123   4.251  25.436  0.00  0.00    +0.021 A 
ATOM     28  C   UNL     1      -5.975   3.459  25.615  0.00  0.00    +0.003 A 
ATOM     29  C   UNL     1      -5.198   3.194  25.696  0.00  0.00    +0.024 A 
ENDBRANCH  22  24
ENDBRANCH  20  21
BRANCH  13  11
ATOM     11  C   UNL     1      -0.155   0.726  23.879  0.00  0.00    +0.081 C 
ATOM     12  C   UNL     1       0.084   0.862  23.101  0.00  0.00    +0.010 C 
BRANCH  11   9
ATOM      8  N   UNL     1      -0.803  -0.494  24.244  0.00  0.00    -0.201 NA
ATOM      9  C   UNL     1      -0.119  -0.036  24.194  0.00  0.00    +0.241 C 
ATOM     10  O   UNL     1       0.601  -0.340  24.459  0.00  0.00    -0.273 OA
BRANCH   8   7
ATOM      7  C   UNL     1      -0.768  -1.255  24.559  0.00  0.00    +0.141 C 
BRANCH   7   6
ATOM      3  C   UNL     1      -2.821  -2.627  24.722  0.00  0.00    +0.139 A 
ATOM      4  C   UNL     1      -2.736  -1.955  25.193  0.00  0.00    +0.037 A 
ATOM      5  C   UNL     1      -2.051  -1.498  25.139  0.00  0.00    +0.001 A 
ATOM      6  C   UNL     1      -1.452  -1.712  24.614  0.00  0.00    -0.000 A 
ATOM     35  C   UNL     1      -1.538  -2.383  24.142  0.00  0.00    +0.001 A 
ATOM     36  C   UNL     1      -2.222  -2.841  24.196  0.00  0.00    +0.037 A 
BRANCH   3   2
ATOM      1  C   UNL     1      -4.131  -2.955  24.255  0.00  0.00    +0.252 C 
ATOM      2  O   UNL     1      -3.505  -3.084  24.776  0.00  0.00    -0.471 OA
ENDBRANCH   3   2
ENDBRANCH   7   6
ENDBRANCH   8   7
ENDBRANCH  11   9
ENDBRANCH  13  11
TORSDOF 7
ENDMDL
MODEL 8
REMARK VINA RESULT:     -10.0      2.238      3.485
REMARK  Name = 
REMARK  7 active torsions:
REMARK  status: ('A' for Active; 'I' for Inactive)
REMARK    1  A    between atoms: O_2  and  C_3
REMARK    2  A    between atoms: C_6  and  C_7
REMARK    3  A    between atoms: C_7  and  N_8
REMARK    4  A    between atoms: C_9  and  C_11
REMARK    5  A    between atoms: C_11  and  C_13
REMARK    6  A    between atoms: C_20  and  N_21
REMARK    7  A    between atoms: C_22  and  C_24
REMARK                            x       y       z     vdW  Elec       q    Type
REMARK                         _______ _______ _______ _____ _____    ______ ____
ROOT
ATOM     13  C   UNL     1      -4.322   0.545  24.948  0.00  0.00    +0.039 C 
ATOM     14  C   UNL     1      -4.357  -0.039  25.531  0.00  0.00    +0.003 C 
ATOM     15  C   UNL     1      -3.719  -0.549  25.641  0.00  0.00    +0.000 C 
ATOM     16  C   UNL     1      -3.047  -0.477  25.171  0.00  0.00    +0.002 C 
ATOM     17  C   UNL     1      -3.082  -1.060  25.752  0.00  0.00    +0.000 C 
ATOM     18  C   UNL     1      -2.408  -0.987  25.281  0.00  0.00    +0.002 C 
ATOM     19  C   UNL     1      -1.735  -0.915  24.810  0.00  0.00    +0.022 C 
ATOM     20  C   UNL     1      -1.700  -0.331  24.228  0.00  0.00    +0.096 C 
ATOM     30  C   UNL     1      -2.338   0.180  24.117  0.00  0.00    +0.022 C 
ATOM     31  C   UNL     1      -2.303   0.763  23.535  0.00  0.00    +0.002 C 
ATOM     32  C   UNL     1      -3.012   0.107  24.588  0.00  0.00    +0.032 C 
ATOM     33  C   UNL     1      -3.649   0.618  24.477  0.00  0.00    +0.152 C 
ATOM     34  O   UNL     1      -3.614   1.201  23.895  0.00  0.00    -0.223 OA
ENDROOT
BRANCH  20  21
ATOM     21  N   UNL     1      -1.026  -0.258  23.757  0.00  0.00    -0.202 NA
ATOM     22  C   UNL     1      -0.292  -0.119  24.105  0.00  0.00    +0.282 C 
ATOM     23  O   UNL     1      -0.230  -0.052  24.926  0.00  0.00    -0.267 OA
BRANCH  22  24
ATOM     24  C   UNL     1       0.382  -0.047  23.634  0.00  0.00    +0.136 A 
ATOM     25  N   UNL     1       0.567  -0.634  23.085  0.00  0.00    -0.239 NA
ATOM     26  C   UNL     1       1.241  -0.561  22.614  0.00  0.00    +0.099 A 
ATOM     27  C   UNL     1       1.729   0.099  22.693  0.00  0.00    +0.021 A 
ATOM     28  C   UNL     1       1.544   0.687  23.242  0.00  0.00    +0.003 A 
ATOM     29  C   UNL     1       0.870   0.614  23.712  0.00  0.00    +0.024 A 
ENDBRANCH  22  24
ENDBRANCH  20  21
BRANCH  13  11
ATOM     11  C   UNL     1      -4.961   1.056  24.838  0.00  0.00    +0.081 C 
ATOM     12  C   UNL     1      -5.547   0.870  24.287  0.00  0.00    +0.010 C 
BRANCH  11   9
ATOM      8  N   UNL     1      -4.526   2.391  25.099  0.00  0.00    -0.201 NA
ATOM      9  C   UNL     1      -5.015   1.752  25.277  0.00  0.00    +0.241 C 
ATOM     10  O   UNL     1      -5.559   1.809  25.895  0.00  0.00    -0.273 OA
BRANCH   8   7
ATOM      7  C   UNL     1      -4.580   3.087  25.538  0.00  0.00    +0.141 C 
BRANCH   7   6
ATOM      3  C   UNL     1      -2.686   4.680  25.574  0.00  0.00    +0.139 A 
ATOM      4  C   UNL     1      -2.861   4.233  26.245  0.00  0.00    +0.037 A 
ATOM      5  C   UNL     1      -3.493   3.702  26.233  0.00  0.00    +0.001 A 
ATOM      6  C   UNL     1      -3.948   3.618  25.551  0.00  0.00    -0.000 A 
ATOM     35  C   UNL     1      -3.773   4.065  24.880  0.00  0.00    +0.001 A 
ATOM     36  C   UNL     1      -3.142   4.597  24.891  0.00  0.00    +0.037 A 
BRANCH   3   2
ATOM      1  C   UNL     1      -1.378   5.058  25.141  0.00  0.00    +0.252 C 
ATOM      2  O   UNL     1      -2.055   5.211  25.586  0.00  0.00    -0.471 OA
ENDBRANCH   3   2
ENDBRANCH   7   6
ENDBRANCH   8   7
ENDBRANCH  11   9
ENDBRANCH  13  11
TORSDOF 7
ENDMDL
MODEL 9
REMARK VINA RESULT:      -9.9      2.498      4.637
REMARK  Name = 
REMARK  7 active torsions:
REMARK  status: ('A' for Active; 'I' for Inactive)
REMARK    1  A    between atoms: O_2  and  C_3
REMARK    2  A    between atoms: C_6  and  C_7
REMARK    3  A    between atoms: C_7  and  N_8
REMARK    4  A    between atoms: C_9  and  C_11
REMARK    5  A    between atoms: C_11  and  C_13
REMARK    6  A    between atoms: C_20  and  N_21
REMARK    7  A    between atoms: C_22  and  C_24
REMARK                            x       y       z     vdW  Elec       q    Type
REMARK                         _______ _______ _______ _____ _____    ______ ____
ROOT
ATOM     13  C   UNL     1      -1.443   3.854  25.497  0.00  0.00    +0.039 C 
ATOM     14  C   UNL     1      -1.342   3.557  26.261  0.00  0.00    +0.003 C 
ATOM     15  C   UNL     1      -0.849   2.909  26.389  0.00  0.00    +0.000 C 
ATOM     16  C   UNL     1      -0.456   2.558  25.755  0.00  0.00    +0.002 C 
ATOM     17  C   UNL     1      -0.355   2.261  26.517  0.00  0.00    +0.000 C 
ATOM     18  C   UNL     1       0.039   1.910  25.883  0.00  0.00    +0.002 C 
ATOM     19  C   UNL     1       0.432   1.559  25.249  0.00  0.00    +0.022 C 
ATOM     20  C   UNL     1       0.331   1.856  24.485  0.00  0.00    +0.096 C 
ATOM     30  C   UNL     1      -0.163   2.504  24.357  0.00  0.00    +0.022 C 
ATOM     31  C   UNL     1      -0.263   2.801  23.594  0.00  0.00    +0.002 C 
ATOM     32  C   UNL     1      -0.556   2.856  24.991  0.00  0.00    +0.032 C 
ATOM     33  C   UNL     1      -1.050   3.503  24.863  0.00  0.00    +0.152 C 
ATOM     34  O   UNL     1      -1.150   3.800  24.100  0.00  0.00    -0.223 OA
ENDROOT
BRANCH  20  21
ATOM     21  N   UNL     1       0.724   1.504  23.851  0.00  0.00    -0.202 NA
ATOM     22  C   UNL     1       0.714   0.685  23.761  0.00  0.00    +0.282 C 
ATOM     23  O   UNL     1       0.308   0.215  24.307  0.00  0.00    -0.267 OA
BRANCH  22  24
ATOM     24  C   UNL     1       1.107   0.333  23.127  0.00  0.00    +0.136 A 
ATOM     25  N   UNL     1       1.916   0.455  23.025  0.00  0.00    -0.239 NA
ATOM     26  C   UNL     1       2.310   0.103  22.390  0.00  0.00    +0.099 A 
ATOM     27  C   UNL     1       1.893  -0.371  21.858  0.00  0.00    +0.021 A 
ATOM     28  C   UNL     1       1.083  -0.492  21.961  0.00  0.00    +0.003 A 
ATOM     29  C   UNL     1       0.691  -0.140  22.595  0.00  0.00    +0.024 A 
ENDBRANCH  22  24
ENDBRANCH  20  21
BRANCH  13  11
ATOM     11  C   UNL     1      -1.937   4.503  25.369  0.00  0.00    +0.081 C 
ATOM     12  C   UNL     1      -1.647   5.171  24.981  0.00  0.00    +0.010 C 
BRANCH  11   9
ATOM      8  N   UNL     1      -3.281   4.041  25.218  0.00  0.00    -0.201 NA
ATOM      9  C   UNL     1      -2.720   4.484  25.629  0.00  0.00    +0.241 C 
ATOM     10  O   UNL     1      -2.942   4.910  26.301  0.00  0.00    -0.273 OA
BRANCH   8   7
ATOM      7  C   UNL     1      -4.063   4.023  25.478  0.00  0.00    +0.141 C 
BRANCH   7   6
ATOM      3  C   UNL     1      -5.499   2.077  24.949  0.00  0.00    +0.139 A 
ATOM      4  C   UNL     1      -5.505   2.400  25.708  0.00  0.00    +0.037 A 
ATOM      5  C   UNL     1      -5.026   3.048  25.884  0.00  0.00    +0.001 A 
ATOM      6  C   UNL     1      -4.542   3.374  25.302  0.00  0.00    -0.000 A 
ATOM     35  C   UNL     1      -4.536   3.052  24.543  0.00  0.00    +0.001 A 
ATOM     36  C   UNL     1      -5.014   2.404  24.365  0.00  0.00    +0.037 A 
BRANCH   3   2
ATOM      1  C   UNL     1      -5.698   0.664  24.898  0.00  0.00    +0.252 C 
ATOM      2  O   UNL     1      -5.977   1.429  24.771  0.00  0.00    -0.471 OA
ENDBRANCH   3   2
ENDBRANCH   7   6
ENDBRANCH   8   7
ENDBRANCH  11   9
ENDBRANCH  13  11
TORSDOF 7
ENDMDL
MODEL 10
REMARK VINA RESULT:      -9.8      1.460      5.002
REMARK  Name = 
REMARK  7 active torsions:
REMARK  status: ('A' for Active; 'I' for Inactive)
REMARK    1  A    between atoms: O_2  and  C_3
REMARK    2  A    between atoms: C_6  and  C_7
REMARK    3  A    between atoms: C_7  and  N_8
REMARK    4  A    between atoms: C_9  and  C_11
REMARK    5  A    between atoms: C_11  and  C_13
REMARK    6  A    between atoms: C_20  and  N_21
REMARK    7  A    between atoms: C_22  and  C_24
REMARK                            x       y       z     vdW  Elec       q    Type
REMARK                         _______ _______ _______ _____ _____    ______ ____
ROOT
ATOM     13  C   UNL     1      -4.689   0.751  24.878  0.00  0.00    +0.039 C 
ATOM     14  C   UNL     1      -5.339   1.020  25.311  0.00  0.00    +0.003 C 
ATOM     15  C   UNL     1      -5.381   1.809  25.545  0.00  0.00    +0.000 C 
ATOM     16  C   UNL     1      -4.775   2.331  25.347  0.00  0.00    +0.002 C 
ATOM     17  C   UNL     1      -5.424   2.598  25.779  0.00  0.00    +0.000 C 
ATOM     18  C   UNL     1      -4.816   3.121  25.581  0.00  0.00    +0.002 C 
ATOM     19  C   UNL     1      -4.210   3.643  25.383  0.00  0.00    +0.022 C 
ATOM     20  C   UNL     1      -3.559   3.375  24.951  0.00  0.00    +0.096 C 
ATOM     30  C   UNL     1      -3.517   2.585  24.717  0.00  0.00    +0.022 C 
ATOM     31  C   UNL     1      -2.867   2.317  24.285  0.00  0.00    +0.002 C 
ATOM     32  C   UNL     1      -4.124   2.062  24.915  0.00  0.00    +0.032 C 
ATOM     33  C   UNL     1      -4.082   1.273  24.681  0.00  0.00    +0.152 C 
ATOM     34  O   UNL     1      -3.432   1.005  24.249  0.00  0.00    -0.223 OA
ENDROOT
BRANCH  20  21
ATOM     21  N   UNL     1      -2.952   3.897  24.753  0.00  0.00    -0.202 NA
ATOM     22  C   UNL     1      -2.476   4.219  25.344  0.00  0.00    +0.282 C 
ATOM     23  O   UNL     1      -2.606   4.019  26.135  0.00  0.00    -0.267 OA
BRANCH  22  24
ATOM     24  C   UNL     1      -1.868   4.742  25.146  0.00  0.00    +0.136 A 
ATOM     25  N   UNL     1      -1.106   4.458  25.012  0.00  0.00    -0.239 NA
ATOM     26  C   UNL     1      -0.499   4.981  24.815  0.00  0.00    +0.099 A 
ATOM     27  C   UNL     1      -0.655   5.788  24.751  0.00  0.00    +0.021 A 
ATOM     28  C   UNL     1      -1.418   6.073  24.886  0.00  0.00    +0.003 A 
ATOM     29  C   UNL     1      -2.025   5.550  25.083  0.00  0.00    +0.024 A 
ENDBRANCH  22  24
ENDBRANCH  20  21
BRANCH  13  11
ATOM     11  C   UNL     1      -4.647  -0.039  24.645  0.00  0.00    +0.081 C 
ATOM     12  C   UNL     1      -5.006  -0.280  23.942  0.00  0.00    +0.010 C 
BRANCH  11   9
ATOM      8  N   UNL     1      -3.556  -0.942  24.834  0.00  0.00    -0.201 NA
ATOM      9  C   UNL     1      -4.247  -0.588  25.112  0.00  0.00    +0.241 C 
ATOM     10  O   UNL     1      -4.539  -0.784  25.860  0.00  0.00    -0.273 OA
BRANCH   8   7
ATOM      7  C   UNL     1      -3.157  -1.491  25.302  0.00  0.00    +0.141 C 
BRANCH   7   6
ATOM      3  C   UNL     1      -0.709  -1.773  25.067  0.00  0.00    +0.139 A 
ATOM      4  C   UNL     1      -1.222  -2.203  24.584  0.00  0.00    +0.037 A 
ATOM      5  C   UNL     1      -2.038  -2.109  24.663  0.00  0.00    +0.001 A 
ATOM      6  C   UNL     1      -2.341  -1.585  25.223  0.00  0.00    -0.000 A 
ATOM     35  C   UNL     1      -1.828  -1.155  25.705  0.00  0.00    +0.001 A 
ATOM     36  C   UNL     1      -1.012  -1.249  25.628  0.00  0.00    +0.037 A 
BRANCH   3   2
ATOM      1  C   UNL     1       0.531  -1.379  24.477  0.00  0.00    +0.252 C 
ATOM      2  O   UNL     1       0.107  -1.866  24.989  0.00  0.00    -0.471 OA
ENDBRANCH   3   2
ENDBRANCH   7   6
ENDBRANCH   8   7
ENDBRANCH  11   9
ENDBRANCH  13  11
TORSDOF 7
ENDMDL
