REMARK  Name = 
REMARK  7 active torsions:
REMARK  status: ('A' for Active; 'I' for Inactive)
REMARK    1  A    between atoms: O_2  and  C_3
REMARK    2  A    between atoms: C_6  and  C_9
REMARK    3  A    between atoms: N_11  and  C_12
REMARK    4  A    between atoms: C_12  and  C_13
REMARK    5  A    between atoms: C_15  and  C_16
REMARK    6  A    between atoms: C_16  and  C_17
REMARK    7  A    between atoms: N_19  and  C_20
REMARK                            x       y       z     vdW  Elec       q    Type
REMARK                         _______ _______ _______ _____ _____    ______ ____
ROOT
ATOM     13  C   UNL     1       1.458   5.267   0.000  0.00  0.00    +0.170 C 
ATOM     14  O   UNL     1       2.010   5.880   0.000  0.00  0.00    -0.351 OA
ATOM     15  C   UNL     1       2.764   5.544   0.000  0.00  0.00    +0.157 C 
ATOM     23  C   UNL     1       2.678   4.724   0.000  0.00  0.00    +0.212 C 
ATOM     24  O   UNL     1       3.291   4.172   0.000  0.00  0.00    -0.218 OA
ATOM     25  C   UNL     1       1.871   4.552   0.000  0.00  0.00    +0.213 C 
ATOM     26  O   UNL     1       1.535   3.799   0.000  0.00  0.00    -0.218 OA
ENDROOT
BRANCH  13  12
ATOM     12  C   UNL     1       0.637   5.353   0.000  0.00  0.00    +0.148 C 
BRANCH  12  11
ATOM      9  C   UNL     1      -0.668   4.772   0.000  0.00  0.00    +0.265 C 
ATOM     10  O   UNL     1      -1.003   5.526   0.000  0.00  0.00    -0.268 OA
ATOM     11  N   UNL     1       0.153   4.686   0.000  0.00  0.00    -0.199 NA
BRANCH   9   6
ATOM      3  C   UNL     1      -2.123   2.770   0.000  0.00  0.00    +0.139 A 
ATOM      4  C   UNL     1      -2.458   3.523   0.000  0.00  0.00    +0.037 A 
ATOM      5  C   UNL     1      -1.973   4.191   0.000  0.00  0.00    +0.008 A 
ATOM      6  C   UNL     1      -1.153   4.104   0.000  0.00  0.00    +0.055 A 
ATOM      7  C   UNL     1      -0.817   3.351   0.000  0.00  0.00    +0.008 A 
ATOM      8  C   UNL     1      -1.302   2.683   0.000  0.00  0.00    +0.037 A 
BRANCH   3   2
ATOM      1  C   UNL     1      -2.272   1.349   0.000  0.00  0.00    +0.252 C 
ATOM      2  O   UNL     1      -2.608   2.102   0.000  0.00  0.00    -0.471 OA
ENDBRANCH   3   2
ENDBRANCH   9   6
ENDBRANCH  12  11
ENDBRANCH  13  12
BRANCH  15  16
ATOM     16  C   UNL     1       3.478   5.957   0.000  0.00  0.00    +0.119 C 
BRANCH  16  17
ATOM     17  C   UNL     1       4.193   5.544   0.000  0.00  0.00    +0.244 C 
ATOM     18  O   UNL     1       4.193   4.719   0.000  0.00  0.00    -0.273 OA
ATOM     19  N   UNL     1       4.907   5.957   0.000  0.00  0.00    -0.207 NA
BRANCH  19  20
ATOM     20  C   UNL     1       5.622   5.544   0.000  0.00  0.00    +0.095 C 
ATOM     21  C   UNL     1       6.336   5.957   0.000  0.00  0.00    +0.023 C 
ATOM     22  C   UNL     1       5.622   4.719   0.000  0.00  0.00    +0.023 C 
ENDBRANCH  19  20
ENDBRANCH  16  17
ENDBRANCH  15  16
TORSDOF 7
