MODEL 1
REMARK VINA RESULT:     -10.8      0.000      0.000
REMARK  Name = 
REMARK  6 active torsions:
REMARK  status: ('A' for Active; 'I' for Inactive)
REMARK    1  A    between atoms: C_2  and  C_4
REMARK    2  A    between atoms: C_8  and  N_9
REMARK    3  A    between atoms: C_10  and  O_12
REMARK    4  A    between atoms: O_12  and  C_13
REMARK    5  A    between atoms: C_17  and  N_21
REMARK    6  A    between atoms: C_24  and  C_28
REMARK                            x       y       z     vdW  Elec       q    Type
REMARK                         _______ _______ _______ _____ _____    ______ ____
ROOT
ATOM     13  C   UNL     1       0.559   0.468  23.458  0.00  0.00    +0.229 C 
ATOM     14  C   UNL     1       0.504   1.290  23.414  0.00  0.00    +0.188 C 
ATOM     15  O   UNL     1      -0.177   1.523  23.816  0.00  0.00    -0.348 OA
ATOM     16  C   UNL     1      -0.544   0.845  24.109  0.00  0.00    +0.168 C 
ATOM     17  C   UNL     1      -1.193   0.570  24.539  0.00  0.00    +0.155 C 
ATOM     18  C   UNL     1      -1.138  -0.252  24.583  0.00  0.00    +0.166 C 
ATOM     19  O   UNL     1      -0.456  -0.485  24.181  0.00  0.00    -0.348 OA
ATOM     20  C   UNL     1      -0.089   0.193  23.888  0.00  0.00    +0.186 C 
ENDROOT
BRANCH  17  21
ATOM     21  N   UNL     1      -1.790   1.035  24.866  0.00  0.00    -0.200 NA
ATOM     22  C   UNL     1      -2.569   0.946  24.610  0.00  0.00    +0.237 A 
ATOM     23  N   UNL     1      -3.167   1.411  24.937  0.00  0.00    -0.212 NA
ATOM     24  C   UNL     1      -3.946   1.322  24.681  0.00  0.00    +0.086 A 
ATOM     25  C   UNL     1      -4.127   0.768  24.097  0.00  0.00    +0.040 A 
ATOM     26  C   UNL     1      -3.530   0.303  23.770  0.00  0.00    +0.103 A 
ATOM     27  N   UNL     1      -2.751   0.392  24.026  0.00  0.00    -0.211 NA
BRANCH  24  28
ATOM     28  C   UNL     1      -4.543   1.787  25.008  0.00  0.00    +0.021 A 
ATOM     29  C   UNL     1      -4.482   2.609  24.991  0.00  0.00    +0.042 A 
ATOM     30  C   UNL     1      -5.080   3.075  25.319  0.00  0.00    +0.176 A 
ATOM     31  C   UNL     1      -5.738   2.717  25.663  0.00  0.00    +0.176 A 
ATOM     32  O   UNL     1      -6.236   3.313  25.940  0.00  0.00    -0.435 OA
ATOM     33  C   UNL     1      -5.886   4.039  25.767  0.00  0.00    +0.429 C 
ATOM     34  O   UNL     1      -5.171   3.891  25.383  0.00  0.00    -0.435 OA
ATOM     35  C   UNL     1      -5.800   1.894  25.680  0.00  0.00    +0.040 A 
ATOM     36  C   UNL     1      -5.202   1.429  25.353  0.00  0.00    +0.005 A 
ENDBRANCH  24  28
ENDBRANCH  17  21
BRANCH  13  12
ATOM     12  O   UNL     1       1.156   0.003  23.131  0.00  0.00    -0.432 OA
BRANCH  12  10
ATOM      9  N   UNL     1       2.537  -0.205  22.829  0.00  0.00    -0.142 NA
ATOM     10  C   UNL     1       1.941   0.256  23.164  0.00  0.00    +0.425 C 
ATOM     11  O   UNL     1       2.128   0.970  23.532  0.00  0.00    -0.224 OA
BRANCH   9   8
ATOM      4  C   UNL     1       4.643  -0.082  23.392  0.00  0.00    +0.036 A 
ATOM      5  C   UNL     1       4.892   0.554  22.929  0.00  0.00    +0.003 A 
ATOM      6  C   UNL     1       4.355   0.937  22.432  0.00  0.00    +0.001 A 
ATOM      7  C   UNL     1       3.570   0.684  22.399  0.00  0.00    +0.017 A 
ATOM      8  C   UNL     1       3.321   0.048  22.862  0.00  0.00    +0.077 A 
ATOM     37  C   UNL     1       3.858  -0.335  23.358  0.00  0.00    +0.020 A 
BRANCH   4   2
ATOM      1  C   UNL     1       5.793  -0.040  24.240  0.00  0.00    +0.077 C 
ATOM      2  C   UNL     1       5.180  -0.465  23.888  0.00  0.00    +0.174 C 
ATOM      3  O   UNL     1       5.102  -1.274  24.032  0.00  0.00    -0.291 OA
ENDBRANCH   4   2
ENDBRANCH   9   8
ENDBRANCH  12  10
ENDBRANCH  13  12
TORSDOF 6
ENDMDL
MODEL 2
REMARK VINA RESULT:     -10.2      1.312      8.061
REMARK  Name = 
REMARK  6 active torsions:
REMARK  status: ('A' for Active; 'I' for Inactive)
REMARK    1  A    between atoms: C_2  and  C_4
REMARK    2  A    between atoms: C_8  and  N_9
REMARK    3  A    between atoms: C_10  and  O_12
REMARK    4  A    between atoms: O_12  and  C_13
REMARK    5  A    between atoms: C_17  and  N_21
REMARK    6  A    between atoms: C_24  and  C_28
REMARK                            x       y       z     vdW  Elec       q    Type
REMARK                         _______ _______ _______ _____ _____    ______ ____
ROOT
ATOM     13  C   UNL     1      -1.840   1.777  23.665  0.00  0.00    +0.229 C 
ATOM     14  C   UNL     1      -1.409   2.459  23.838  0.00  0.00    +0.188 C 
ATOM     15  O   UNL     1      -0.614   2.247  23.908  0.00  0.00    -0.348 OA
ATOM     16  C   UNL     1      -0.555   1.435  23.779  0.00  0.00    +0.168 C 
ATOM     17  C   UNL     1      -0.026   0.802  23.742  0.00  0.00    +0.155 C 
ATOM     18  C   UNL     1      -0.458   0.120  23.569  0.00  0.00    +0.166 C 
ATOM     19  O   UNL     1      -1.252   0.332  23.499  0.00  0.00    -0.348 OA
ATOM     20  C   UNL     1      -1.312   1.144  23.628  0.00  0.00    +0.186 C 
ENDROOT
BRANCH  17  21
ATOM     21  N   UNL     1       0.789   0.843  23.858  0.00  0.00    -0.200 NA
ATOM     22  C   UNL     1       1.301   0.500  23.311  0.00  0.00    +0.237 A 
ATOM     23  N   UNL     1       2.118   0.542  23.426  0.00  0.00    -0.212 NA
ATOM     24  C   UNL     1       2.630   0.198  22.879  0.00  0.00    +0.086 A 
ATOM     25  C   UNL     1       2.326  -0.187  22.215  0.00  0.00    +0.040 A 
ATOM     26  C   UNL     1       1.511  -0.229  22.099  0.00  0.00    +0.103 A 
ATOM     27  N   UNL     1       0.999   0.115  22.647  0.00  0.00    -0.211 NA
BRANCH  24  28
ATOM     28  C   UNL     1       3.445   0.240  22.995  0.00  0.00    +0.021 A 
ATOM     29  C   UNL     1       3.835  -0.358  23.407  0.00  0.00    +0.042 A 
ATOM     30  C   UNL     1       4.650  -0.317  23.523  0.00  0.00    +0.176 A 
ATOM     31  C   UNL     1       5.077   0.324  23.227  0.00  0.00    +0.176 A 
ATOM     32  O   UNL     1       5.870   0.216  23.425  0.00  0.00    -0.435 OA
ATOM     33  C   UNL     1       5.934  -0.491  23.844  0.00  0.00    +0.429 C 
ATOM     34  O   UNL     1       5.180  -0.820  23.904  0.00  0.00    -0.435 OA
ATOM     35  C   UNL     1       4.687   0.923  22.814  0.00  0.00    +0.040 A 
ATOM     36  C   UNL     1       3.872   0.881  22.698  0.00  0.00    +0.005 A 
ENDBRANCH  24  28
ENDBRANCH  17  21
BRANCH  13  12
ATOM     12  O   UNL     1      -2.655   1.735  23.549  0.00  0.00    -0.432 OA
BRANCH  12  10
ATOM      9  N   UNL     1      -3.860   2.421  23.896  0.00  0.00    -0.142 NA
ATOM     10  C   UNL     1      -3.169   2.031  24.123  0.00  0.00    +0.425 C 
ATOM     11  O   UNL     1      -2.992   1.936  24.923  0.00  0.00    -0.224 OA
BRANCH   9   8
ATOM      4  C   UNL     1      -5.528   2.557  25.298  0.00  0.00    +0.036 A 
ATOM      5  C   UNL     1      -5.402   3.307  25.619  0.00  0.00    +0.003 A 
ATOM      6  C   UNL     1      -4.761   3.761  25.365  0.00  0.00    +0.001 A 
ATOM      7  C   UNL     1      -4.248   3.466  24.791  0.00  0.00    +0.017 A 
ATOM      8  C   UNL     1      -4.374   2.716  24.470  0.00  0.00    +0.077 A 
ATOM     37  C   UNL     1      -5.014   2.262  24.724  0.00  0.00    +0.020 A 
BRANCH   4   2
ATOM      1  C   UNL     1      -6.294   1.980  26.359  0.00  0.00    +0.077 C 
ATOM      2  C   UNL     1      -6.168   2.102  25.552  0.00  0.00    +0.174 C 
ATOM      3  O   UNL     1      -6.683   1.770  25.000  0.00  0.00    -0.291 OA
ENDBRANCH   4   2
ENDBRANCH   9   8
ENDBRANCH  12  10
ENDBRANCH  13  12
TORSDOF 6
ENDMDL
MODEL 3
REMARK VINA RESULT:      -8.8      1.827      7.695
REMARK  Name = 
REMARK  6 active torsions:
REMARK  status: ('A' for Active; 'I' for Inactive)
REMARK    1  A    between atoms: C_2  and  C_4
REMARK    2  A    between atoms: C_8  and  N_9
REMARK    3  A    between atoms: C_10  and  O_12
REMARK    4  A    between atoms: O_12  and  C_13
REMARK    5  A    between atoms: C_17  and  N_21
REMARK    6  A    between atoms: C_24  and  C_28
REMARK                            x       y       z     vdW  Elec       q    Type
REMARK                         _______ _______ _______ _____ _____    ______ ____
ROOT
ATOM     13  C   UNL     1      -1.768   3.912  25.622  0.00  0.00    +0.229 C 
ATOM     14  C   UNL     1      -1.436   4.353  25.009  0.00  0.00    +0.188 C 
ATOM     15  O   UNL     1      -0.763   3.958  24.744  0.00  0.00    -0.348 OA
ATOM     16  C   UNL     1      -0.678   3.271  25.193  0.00  0.00    +0.168 C 
ATOM     17  C   UNL     1      -0.208   2.602  25.307  0.00  0.00    +0.155 C 
ATOM     18  C   UNL     1      -0.540   2.160  25.920  0.00  0.00    +0.166 C 
ATOM     19  O   UNL     1      -1.213   2.556  26.185  0.00  0.00    -0.348 OA
ATOM     20  C   UNL     1      -1.299   3.242  25.736  0.00  0.00    +0.186 C 
ENDROOT
BRANCH  17  21
ATOM     21  N   UNL     1       0.472   2.409  24.882  0.00  0.00    -0.200 NA
ATOM     22  C   UNL     1       0.498   1.714  24.438  0.00  0.00    +0.237 A 
ATOM     23  N   UNL     1       1.178   1.521  24.013  0.00  0.00    -0.212 NA
ATOM     24  C   UNL     1       1.204   0.826  23.569  0.00  0.00    +0.086 A 
ATOM     25  C   UNL     1       0.549   0.324  23.551  0.00  0.00    +0.040 A 
ATOM     26  C   UNL     1      -0.131   0.517  23.975  0.00  0.00    +0.103 A 
ATOM     27  N   UNL     1      -0.157   1.212  24.419  0.00  0.00    -0.211 NA
BRANCH  24  28
ATOM     28  C   UNL     1       1.884   0.633  23.145  0.00  0.00    +0.021 A 
ATOM     29  C   UNL     1       2.616   0.928  23.383  0.00  0.00    +0.042 A 
ATOM     30  C   UNL     1       3.297   0.735  22.958  0.00  0.00    +0.176 A 
ATOM     31  C   UNL     1       3.245   0.247  22.296  0.00  0.00    +0.176 A 
ATOM     32  O   UNL     1       4.004   0.152  21.988  0.00  0.00    -0.435 OA
ATOM     33  C   UNL     1       4.526   0.582  22.460  0.00  0.00    +0.429 C 
ATOM     34  O   UNL     1       4.088   0.942  23.060  0.00  0.00    -0.435 OA
ATOM     35  C   UNL     1       2.512  -0.049  22.057  0.00  0.00    +0.040 A 
ATOM     36  C   UNL     1       1.832   0.144  22.482  0.00  0.00    +0.005 A 
ENDBRANCH  24  28
ENDBRANCH  17  21
BRANCH  13  12
ATOM     12  O   UNL     1      -2.448   4.104  26.046  0.00  0.00    -0.432 OA
BRANCH  12  10
ATOM      9  N   UNL     1      -3.756   3.542  26.161  0.00  0.00    -0.142 NA
ATOM     10  C   UNL     1      -3.192   3.955  25.723  0.00  0.00    +0.425 C 
ATOM     11  O   UNL     1      -3.371   4.218  24.963  0.00  0.00    -0.224 OA
BRANCH   9   8
ATOM      4  C   UNL     1      -5.437   2.484  25.256  0.00  0.00    +0.036 A 
ATOM      5  C   UNL     1      -5.989   3.093  25.191  0.00  0.00    +0.003 A 
ATOM      6  C   UNL     1      -5.796   3.854  25.449  0.00  0.00    +0.001 A 
ATOM      7  C   UNL     1      -5.052   4.003  25.772  0.00  0.00    +0.017 A 
ATOM      8  C   UNL     1      -4.500   3.393  25.838  0.00  0.00    +0.077 A 
ATOM     37  C   UNL     1      -4.693   2.633  25.579  0.00  0.00    +0.020 A 
BRANCH   4   2
ATOM      1  C   UNL     1      -5.066   1.123  25.026  0.00  0.00    +0.077 C 
ATOM      2  C   UNL     1      -5.630   1.724  24.998  0.00  0.00    +0.174 C 
ATOM      3  O   UNL     1      -6.387   1.566  24.711  0.00  0.00    -0.291 OA
ENDBRANCH   4   2
ENDBRANCH   9   8
ENDBRANCH  12  10
ENDBRANCH  13  12
TORSDOF 6
ENDMDL
MODEL 4
REMARK VINA RESULT:      -8.7      1.508      7.579
REMARK  Name = 
REMARK  6 active torsions:
REMARK  status: ('A' for Active; 'I' for Inactive)
REMARK    1  A    between atoms: C_2  and  C_4
REMARK    2  A    between atoms: C_8  and  N_9
REMARK    3  A    between atoms: C_10  and  O_12
REMARK    4  A    between atoms: O_12  and  C_13
REMARK    5  A    between atoms: C_17  and  N_21
REMARK    6  A    between atoms: C_24  and  C_28
REMARK                            x       y       z     vdW  Elec       q    Type
REMARK                         _______ _______ _______ _____ _____    ______ ____
ROOT
ATOM     13  C   UNL     1      -3.156  -0.815  24.839  0.00  0.00    +0.229 C 
ATOM     14  C   UNL     1      -3.069  -1.117  24.076  0.00  0.00    +0.188 C 
ATOM     15  O   UNL     1      -2.265  -1.110  23.889  0.00  0.00    -0.348 OA
ATOM     16  C   UNL     1      -1.856  -0.802  24.536  0.00  0.00    +0.168 C 
ATOM     17  C   UNL     1      -1.105  -0.608  24.819  0.00  0.00    +0.155 C 
ATOM     18  C   UNL     1      -1.193  -0.305  25.582  0.00  0.00    +0.166 C 
ATOM     19  O   UNL     1      -1.996  -0.313  25.769  0.00  0.00    -0.348 OA
ATOM     20  C   UNL     1      -2.406  -0.620  25.123  0.00  0.00    +0.186 C 
ENDROOT
BRANCH  17  21
ATOM     21  N   UNL     1      -0.395  -0.700  24.412  0.00  0.00    -0.200 NA
ATOM     22  C   UNL     1       0.021  -0.036  24.153  0.00  0.00    +0.237 A 
ATOM     23  N   UNL     1       0.733  -0.128  23.745  0.00  0.00    -0.212 NA
ATOM     24  C   UNL     1       1.149   0.536  23.487  0.00  0.00    +0.086 A 
ATOM     25  C   UNL     1       0.853   1.292  23.635  0.00  0.00    +0.040 A 
ATOM     26  C   UNL     1       0.142   1.384  24.042  0.00  0.00    +0.103 A 
ATOM     27  N   UNL     1      -0.274   0.720  24.301  0.00  0.00    -0.211 NA
BRANCH  24  28
ATOM     28  C   UNL     1       1.860   0.444  23.079  0.00  0.00    +0.021 A 
ATOM     29  C   UNL     1       2.552   0.779  23.377  0.00  0.00    +0.042 A 
ATOM     30  C   UNL     1       3.264   0.687  22.970  0.00  0.00    +0.176 A 
ATOM     31  C   UNL     1       3.283   0.260  22.264  0.00  0.00    +0.176 A 
ATOM     32  O   UNL     1       4.059   0.261  21.986  0.00  0.00    -0.435 OA
ATOM     33  C   UNL     1       4.520   0.689  22.520  0.00  0.00    +0.429 C 
ATOM     34  O   UNL     1       4.028   0.952  23.127  0.00  0.00    -0.435 OA
ATOM     35  C   UNL     1       2.590  -0.075  21.966  0.00  0.00    +0.040 A 
ATOM     36  C   UNL     1       1.879   0.017  22.374  0.00  0.00    +0.005 A 
ENDBRANCH  24  28
ENDBRANCH  17  21
BRANCH  13  12
ATOM     12  O   UNL     1      -3.867  -0.723  25.246  0.00  0.00    -0.432 OA
BRANCH  12  10
ATOM      9  N   UNL     1      -4.523   0.496  25.602  0.00  0.00    -0.142 NA
ATOM     10  C   UNL     1      -4.375  -0.102  25.053  0.00  0.00    +0.425 C 
ATOM     11  O   UNL     1      -4.735  -0.080  24.311  0.00  0.00    -0.224 OA
BRANCH   9   8
ATOM      4  C   UNL     1      -5.240   2.497  25.108  0.00  0.00    +0.036 A 
ATOM      5  C   UNL     1      -6.049   2.358  25.023  0.00  0.00    +0.003 A 
ATOM      6  C   UNL     1      -6.349   1.596  25.131  0.00  0.00    +0.001 A 
ATOM      7  C   UNL     1      -5.841   0.976  25.324  0.00  0.00    +0.017 A 
ATOM      8  C   UNL     1      -5.031   1.116  25.409  0.00  0.00    +0.077 A 
ATOM     37  C   UNL     1      -4.732   1.877  25.301  0.00  0.00    +0.020 A 
BRANCH   4   2
ATOM      1  C   UNL     1      -5.109   3.851  25.549  0.00  0.00    +0.077 C 
ATOM      2  C   UNL     1      -4.940   3.259  25.000  0.00  0.00    +0.174 C 
ATOM      3  O   UNL     1      -4.471   3.427  24.343  0.00  0.00    -0.291 OA
ENDBRANCH   4   2
ENDBRANCH   9   8
ENDBRANCH  12  10
ENDBRANCH  13  12
TORSDOF 6
ENDMDL
MODEL 5
REMARK VINA RESULT:      -8.5      1.984      7.463
REMARK  Name = 
REMARK  6 active torsions:
REMARK  status: ('A' for Active; 'I' for Inactive)
REMARK    1  A    between atoms: C_2  and  C_4
REMARK    2  A    between atoms: C_8  and  N_9
REMARK    3  A    between atoms: C_10  and  O_12
REMARK    4  A    between atoms: O_12  and  C_13
REMARK    5  A    between atoms: C_17  and  N_21
REMARK    6  A    between atoms: C_24  and  C_28
REMARK                            x       y       z     vdW  Elec       q    Type
REMARK                         _______ _______ _______ _____ _____    ______ ____
ROOT
ATOM     13  C   UNL     1      -1.578   1.332  24.926  0.00  0.00    +0.229 C 
ATOM     14  C   UNL     1      -1.131   1.084  25.574  0.00  0.00    +0.188 C 
ATOM     15  O   UNL     1      -0.334   1.123  25.364  0.00  0.00    -0.348 OA
ATOM     16  C   UNL     1      -0.289   1.395  24.587  0.00  0.00    +0.168 C 
ATOM     17  C   UNL     1       0.234   1.587  23.977  0.00  0.00    +0.155 C 
ATOM     18  C   UNL     1      -0.213   1.835  23.329  0.00  0.00    +0.166 C 
ATOM     19  O   UNL     1      -1.010   1.796  23.538  0.00  0.00    -0.348 OA
ATOM     20  C   UNL     1      -1.057   1.524  24.315  0.00  0.00    +0.186 C 
ENDROOT
BRANCH  17  21
ATOM     21  N   UNL     1       1.056   1.540  24.010  0.00  0.00    -0.200 NA
ATOM     22  C   UNL     1       1.459   1.014  23.518  0.00  0.00    +0.237 A 
ATOM     23  N   UNL     1       2.282   0.966  23.551  0.00  0.00    -0.212 NA
ATOM     24  C   UNL     1       2.685   0.441  23.059  0.00  0.00    +0.086 A 
ATOM     25  C   UNL     1       2.264  -0.038  22.534  0.00  0.00    +0.040 A 
ATOM     26  C   UNL     1       1.442   0.010  22.502  0.00  0.00    +0.103 A 
ATOM     27  N   UNL     1       1.039   0.535  22.993  0.00  0.00    -0.211 NA
BRANCH  24  28
ATOM     28  C   UNL     1       3.507   0.393  23.092  0.00  0.00    +0.021 A 
ATOM     29  C   UNL     1       3.869  -0.206  23.527  0.00  0.00    +0.042 A 
ATOM     30  C   UNL     1       4.692  -0.254  23.560  0.00  0.00    +0.176 A 
ATOM     31  C   UNL     1       5.153   0.299  23.157  0.00  0.00    +0.176 A 
ATOM     32  O   UNL     1       5.946   0.115  23.290  0.00  0.00    -0.435 OA
ATOM     33  C   UNL     1       5.975  -0.552  23.775  0.00  0.00    +0.429 C 
ATOM     34  O   UNL     1       5.200  -0.779  23.941  0.00  0.00    -0.435 OA
ATOM     35  C   UNL     1       4.791   0.899  22.721  0.00  0.00    +0.040 A 
ATOM     36  C   UNL     1       3.969   0.946  22.689  0.00  0.00    +0.005 A 
ENDBRANCH  24  28
ENDBRANCH  17  21
BRANCH  13  12
ATOM     12  O   UNL     1      -2.401   1.379  24.893  0.00  0.00    -0.432 OA
BRANCH  12  10
ATOM      9  N   UNL     1      -3.062   0.310  24.213  0.00  0.00    -0.142 NA
ATOM     10  C   UNL     1      -2.854   0.691  24.916  0.00  0.00    +0.425 C 
ATOM     11  O   UNL     1      -3.100   0.383  25.640  0.00  0.00    -0.224 OA
BRANCH   9   8
ATOM      4  C   UNL     1      -3.601  -1.803  24.303  0.00  0.00    +0.036 A 
ATOM      5  C   UNL     1      -4.424  -1.756  24.282  0.00  0.00    +0.003 A 
ATOM      6  C   UNL     1      -4.793  -1.019  24.237  0.00  0.00    +0.001 A 
ATOM      7  C   UNL     1      -4.340  -0.331  24.214  0.00  0.00    +0.017 A 
ATOM      8  C   UNL     1      -3.516  -0.378  24.236  0.00  0.00    +0.077 A 
ATOM     37  C   UNL     1      -3.147  -1.115  24.280  0.00  0.00    +0.020 A 
BRANCH   4   2
ATOM      1  C   UNL     1      -3.665  -3.207  24.566  0.00  0.00    +0.077 C 
ATOM      2  C   UNL     1      -3.231  -2.540  24.347  0.00  0.00    +0.174 C 
ATOM      3  O   UNL     1      -2.428  -2.609  24.173  0.00  0.00    -0.291 OA
ENDBRANCH   4   2
ENDBRANCH   9   8
ENDBRANCH  12  10
ENDBRANCH  13  12
TORSDOF 6
ENDMDL
MODEL 6
REMARK VINA RESULT:      -7.5     14.325     17.891
REMARK  Name = 
REMARK  6 active torsions:
REMARK  status: ('A' for Active; 'I' for Inactive)
REMARK    1  A    between atoms: C_2  and  C_4
REMARK    2  A    between atoms: C_8  and  N_9
REMARK    3  A    between atoms: C_10  and  O_12
REMARK    4  A    between atoms: O_12  and  C_13
REMARK    5  A    between atoms: C_17  and  N_21
REMARK    6  A    between atoms: C_24  and  C_28
REMARK                            x       y       z     vdW  Elec       q    Type
REMARK                         _______ _______ _______ _____ _____    ______ ____
ROOT
ATOM     13  C   UNL     1      11.060  -7.657  31.996  0.00  0.00    +0.229 C 
ATOM     14  C   UNL     1      10.930  -7.088  32.580  0.00  0.00    +0.188 C 
ATOM     15  O   UNL     1      11.419  -6.443  32.422  0.00  0.00    -0.348 OA
ATOM     16  C   UNL     1      11.852  -6.613  31.741  0.00  0.00    +0.168 C 
ATOM     17  C   UNL     1      12.422  -6.318  31.222  0.00  0.00    +0.155 C 
ATOM     18  C   UNL     1      12.553  -6.887  30.638  0.00  0.00    +0.166 C 
ATOM     19  O   UNL     1      12.064  -7.532  30.796  0.00  0.00    -0.348 OA
ATOM     20  C   UNL     1      11.631  -7.363  31.477  0.00  0.00    +0.186 C 
ENDROOT
BRANCH  17  21
ATOM     21  N   UNL     1      12.795  -5.585  31.277  0.00  0.00    -0.200 NA
ATOM     22  C   UNL     1      13.619  -5.543  31.300  0.00  0.00    +0.237 A 
ATOM     23  N   UNL     1      13.993  -4.809  31.355  0.00  0.00    -0.212 NA
ATOM     24  C   UNL     1      14.817  -4.766  31.377  0.00  0.00    +0.086 A 
ATOM     25  C   UNL     1      15.266  -5.457  31.344  0.00  0.00    +0.040 A 
ATOM     26  C   UNL     1      14.893  -6.190  31.289  0.00  0.00    +0.103 A 
ATOM     27  N   UNL     1      14.069  -6.233  31.267  0.00  0.00    -0.211 NA
BRANCH  24  28
ATOM     28  C   UNL     1      15.190  -4.033  31.433  0.00  0.00    +0.021 A 
ATOM     29  C   UNL     1      15.564  -3.710  30.773  0.00  0.00    +0.042 A 
ATOM     30  C   UNL     1      15.937  -2.976  30.828  0.00  0.00    +0.176 A 
ATOM     31  C   UNL     1      15.937  -2.566  31.544  0.00  0.00    +0.176 A 
ATOM     32  O   UNL     1      16.347  -1.859  31.433  0.00  0.00    -0.435 OA
ATOM     33  C   UNL     1      16.601  -1.832  30.649  0.00  0.00    +0.429 C 
ATOM     34  O   UNL     1      16.348  -2.522  30.276  0.00  0.00    -0.435 OA
ATOM     35  C   UNL     1      15.563  -2.889  32.205  0.00  0.00    +0.040 A 
ATOM     36  C   UNL     1      15.189  -3.623  32.148  0.00  0.00    +0.005 A 
ENDBRANCH  24  28
ENDBRANCH  17  21
BRANCH  13  12
ATOM     12  O   UNL     1      10.687  -8.390  31.941  0.00  0.00    -0.432 OA
BRANCH  12  10
ATOM      9  N   UNL     1       9.373  -8.900  31.705  0.00  0.00    -0.142 NA
ATOM     10  C   UNL     1       9.899  -8.470  32.173  0.00  0.00    +0.425 C 
ATOM     11  O   UNL     1       9.639  -8.121  32.873  0.00  0.00    -0.224 OA
BRANCH   9   8
ATOM      4  C   UNL     1       7.214  -8.599  31.815  0.00  0.00    +0.036 A 
ATOM      5  C   UNL     1       7.010  -9.140  32.402  0.00  0.00    +0.003 A 
ATOM      6  C   UNL     1       7.594  -9.603  32.758  0.00  0.00    +0.001 A 
ATOM      7  C   UNL     1       8.382  -9.522  32.525  0.00  0.00    +0.017 A 
ATOM      8  C   UNL     1       8.586  -8.980  31.937  0.00  0.00    +0.077 A 
ATOM     37  C   UNL     1       8.001  -8.518  31.582  0.00  0.00    +0.020 A 
BRANCH   4   2
ATOM      1  C   UNL     1       6.133  -7.669  31.924  0.00  0.00    +0.077 C 
ATOM      2  C   UNL     1       6.629  -8.137  31.459  0.00  0.00    +0.174 C 
ATOM      3  O   UNL     1       6.542  -8.143  30.639  0.00  0.00    -0.291 OA
ENDBRANCH   4   2
ENDBRANCH   9   8
ENDBRANCH  12  10
ENDBRANCH  13  12
TORSDOF 6
ENDMDL
