MODEL 1
REMARK VINA RESULT:     -10.2      0.000      0.000
REMARK  Name = 
REMARK  3 active torsions:
REMARK  status: ('A' for Active; 'I' for Inactive)
REMARK    1  A    between atoms: O_2  and  C_3
REMARK    2  A    between atoms: C_8  and  C_10
REMARK    3  A    between atoms: N_13  and  C_15
REMARK                            x       y       z     vdW  Elec       q    Type
REMARK                         _______ _______ _______ _____ _____    ______ ____
ROOT
ATOM      3  C   UNL     1      -3.711  -1.444  24.947  0.00  0.00    +0.140 A 
ATOM      4  C   UNL     1      -3.408  -0.787  25.342  0.00  0.00    +0.058 A 
ATOM      5  C   UNL     1      -3.461  -0.038  25.000  0.00  0.00    +0.103 A 
ATOM      6  C   UNL     1      -3.818   0.053  24.262  0.00  0.00    +0.100 A 
ATOM      7  N   UNL     1      -3.792   0.853  24.063  0.00  0.00    -0.229 NA
ATOM      8  C   UNL     1      -3.418   1.256  24.678  0.00  0.00    +0.140 A 
ATOM      9  N   UNL     1      -3.214   0.705  25.257  0.00  0.00    -0.229 NA
ATOM     19  C   UNL     1      -4.122  -0.605  23.866  0.00  0.00    +0.024 A 
ATOM     20  C   UNL     1      -4.068  -1.353  24.209  0.00  0.00    +0.039 A 
ENDROOT
BRANCH   8  10
ATOM     10  C   UNL     1      -3.274   2.068  24.709  0.00  0.00    +0.076 C 
ATOM     11  C   UNL     1      -3.822   2.664  24.554  0.00  0.00    +0.026 C 
ATOM     12  C   UNL     1      -3.444   3.391  24.649  0.00  0.00    +0.073 C 
ATOM     13  N   UNL     1      -2.661   3.244  24.863  0.00  0.00    -0.274 NA
ATOM     14  C   UNL     1      -2.556   2.426  24.900  0.00  0.00    +0.080 C 
BRANCH  13  15
ATOM     15  C   UNL     1      -2.084   3.813  25.014  0.00  0.00    +0.058 C 
ATOM     16  C   UNL     1      -1.272   3.872  24.879  0.00  0.00    +0.016 C 
ATOM     17  C   UNL     1      -1.267   4.619  25.228  0.00  0.00    +0.003 C 
ATOM     18  C   UNL     1      -2.079   4.561  25.363  0.00  0.00    +0.016 C 
ENDBRANCH  13  15
ENDBRANCH   8  10
BRANCH   3   2
ATOM      1  C   UNL     1      -3.361  -2.826  24.852  0.00  0.00    +0.252 C 
ATOM      2  O   UNL     1      -3.658  -2.192  25.289  0.00  0.00    -0.471 OA
ENDBRANCH   3   2
TORSDOF 3
ENDMDL
MODEL 2
REMARK VINA RESULT:     -10.1      1.806      4.796
REMARK  Name = 
REMARK  3 active torsions:
REMARK  status: ('A' for Active; 'I' for Inactive)
REMARK    1  A    between atoms: O_2  and  C_3
REMARK    2  A    between atoms: C_8  and  C_10
REMARK    3  A    between atoms: N_13  and  C_15
REMARK                            x       y       z     vdW  Elec       q    Type
REMARK                         _______ _______ _______ _____ _____    ______ ____
ROOT
ATOM      3  C   UNL     1      -1.951   3.991  25.326  0.00  0.00    +0.140 A 
ATOM      4  C   UNL     1      -2.684   3.635  25.204  0.00  0.00    +0.058 A 
ATOM      5  C   UNL     1      -2.735   2.817  25.107  0.00  0.00    +0.103 A 
ATOM      6  C   UNL     1      -2.051   2.356  25.132  0.00  0.00    +0.100 A 
ATOM      7  N   UNL     1      -2.270   1.569  25.019  0.00  0.00    -0.229 NA
ATOM      8  C   UNL     1      -3.088   1.543  24.925  0.00  0.00    +0.140 A 
ATOM      9  N   UNL     1      -3.375   2.314  24.979  0.00  0.00    -0.229 NA
ATOM     19  C   UNL     1      -1.316   2.713  25.254  0.00  0.00    +0.024 A 
ATOM     20  C   UNL     1      -1.267   3.530  25.351  0.00  0.00    +0.039 A 
ENDROOT
BRANCH   8  10
ATOM     10  C   UNL     1      -3.541   0.865  24.799  0.00  0.00    +0.076 C 
ATOM     11  C   UNL     1      -4.364   0.832  24.751  0.00  0.00    +0.026 C 
ATOM     12  C   UNL     1      -4.582   0.048  24.620  0.00  0.00    +0.073 C 
ATOM     13  N   UNL     1      -3.894  -0.406  24.588  0.00  0.00    -0.274 NA
ATOM     14  C   UNL     1      -3.250   0.099  24.698  0.00  0.00    +0.080 C 
BRANCH  13  15
ATOM     15  C   UNL     1      -3.855  -1.221  24.466  0.00  0.00    +0.058 C 
ATOM     16  C   UNL     1      -3.504  -1.853  24.863  0.00  0.00    +0.016 C 
ATOM     17  C   UNL     1      -3.799  -2.373  24.295  0.00  0.00    +0.003 C 
ATOM     18  C   UNL     1      -4.150  -1.741  23.898  0.00  0.00    +0.016 C 
ENDBRANCH  13  15
ENDBRANCH   8  10
BRANCH   3   2
ATOM      1  C   UNL     1      -1.288   5.230  25.067  0.00  0.00    +0.252 C 
ATOM      2  O   UNL     1      -1.901   4.808  25.423  0.00  0.00    -0.471 OA
ENDBRANCH   3   2
TORSDOF 3
ENDMDL
MODEL 3
REMARK VINA RESULT:      -9.6      2.193      4.537
REMARK  Name = 
REMARK  3 active torsions:
REMARK  status: ('A' for Active; 'I' for Inactive)
REMARK    1  A    between atoms: O_2  and  C_3
REMARK    2  A    between atoms: C_8  and  C_10
REMARK    3  A    between atoms: N_13  and  C_15
REMARK                            x       y       z     vdW  Elec       q    Type
REMARK                         _______ _______ _______ _____ _____    ______ ____
ROOT
ATOM      3  C   UNL     1      -5.226   2.730  25.111  0.00  0.00    +0.140 A 
ATOM      4  C   UNL     1      -5.257   1.934  25.323  0.00  0.00    +0.058 A 
ATOM      5  C   UNL     1      -4.748   1.391  24.967  0.00  0.00    +0.103 A 
ATOM      6  C   UNL     1      -4.207   1.645  24.398  0.00  0.00    +0.100 A 
ATOM      7  N   UNL     1      -3.778   0.989  24.143  0.00  0.00    -0.229 NA
ATOM      8  C   UNL     1      -4.052   0.330  24.554  0.00  0.00    +0.140 A 
ATOM      9  N   UNL     1      -4.652   0.578  25.063  0.00  0.00    -0.229 NA
ATOM     19  C   UNL     1      -4.176   2.443  24.185  0.00  0.00    +0.024 A 
ATOM     20  C   UNL     1      -4.685   2.984  24.542  0.00  0.00    +0.039 A 
ENDROOT
BRANCH   8  10
ATOM     10  C   UNL     1      -3.776  -0.443  24.471  0.00  0.00    +0.076 C 
ATOM     11  C   UNL     1      -4.224  -1.096  24.237  0.00  0.00    +0.026 C 
ATOM     12  C   UNL     1      -3.729  -1.756  24.229  0.00  0.00    +0.073 C 
ATOM     13  N   UNL     1      -2.975  -1.511  24.458  0.00  0.00    -0.274 NA
ATOM     14  C   UNL     1      -3.005  -0.700  24.607  0.00  0.00    +0.080 C 
BRANCH  13  15
ATOM     15  C   UNL     1      -2.309  -1.992  24.525  0.00  0.00    +0.058 C 
ATOM     16  C   UNL     1      -1.530  -1.879  24.773  0.00  0.00    +0.016 C 
ATOM     17  C   UNL     1      -1.365  -2.673  24.620  0.00  0.00    +0.003 C 
ATOM     18  C   UNL     1      -2.144  -2.787  24.372  0.00  0.00    +0.016 C 
ENDBRANCH  13  15
ENDBRANCH   8  10
BRANCH   3   2
ATOM      1  C   UNL     1      -5.465   4.028  25.658  0.00  0.00    +0.252 C 
ATOM      2  O   UNL     1      -5.735   3.272  25.467  0.00  0.00    -0.471 OA
ENDBRANCH   3   2
TORSDOF 3
ENDMDL
MODEL 4
REMARK VINA RESULT:      -7.6     16.505     18.589
REMARK  Name = 
REMARK  3 active torsions:
REMARK  status: ('A' for Active; 'I' for Inactive)
REMARK    1  A    between atoms: O_2  and  C_3
REMARK    2  A    between atoms: C_8  and  C_10
REMARK    3  A    between atoms: N_13  and  C_15
REMARK                            x       y       z     vdW  Elec       q    Type
REMARK                         _______ _______ _______ _____ _____    ______ ____
ROOT
ATOM      3  C   UNL     1      11.159   7.692  21.470  0.00  0.00    +0.140 A 
ATOM      4  C   UNL     1      11.787   8.047  21.071  0.00  0.00    +0.058 A 
ATOM      5  C   UNL     1      12.391   7.583  20.753  0.00  0.00    +0.103 A 
ATOM      6  C   UNL     1      12.366   6.763  20.836  0.00  0.00    +0.100 A 
ATOM      7  N   UNL     1      13.034   6.450  20.468  0.00  0.00    -0.229 NA
ATOM      8  C   UNL     1      13.472   7.076  20.158  0.00  0.00    +0.140 A 
ATOM      9  N   UNL     1      13.074   7.776  20.335  0.00  0.00    -0.229 NA
ATOM     19  C   UNL     1      11.738   6.406  21.235  0.00  0.00    +0.024 A 
ATOM     20  C   UNL     1      11.135   6.871  21.552  0.00  0.00    +0.039 A 
ENDROOT
BRANCH   8  10
ATOM     10  C   UNL     1      14.183   7.014  19.745  0.00  0.00    +0.076 C 
ATOM     11  C   UNL     1      14.311   7.241  18.962  0.00  0.00    +0.026 C 
ATOM     12  C   UNL     1      15.098   7.081  18.774  0.00  0.00    +0.073 C 
ATOM     13  N   UNL     1      15.457   6.754  19.441  0.00  0.00    -0.274 NA
ATOM     14  C   UNL     1      14.892   6.712  20.041  0.00  0.00    +0.080 C 
BRANCH  13  15
ATOM     15  C   UNL     1      16.243   6.511  19.499  0.00  0.00    +0.058 C 
ATOM     16  C   UNL     1      16.741   6.033  19.046  0.00  0.00    +0.016 C 
ATOM     17  C   UNL     1      17.355   6.167  19.580  0.00  0.00    +0.003 C 
ATOM     18  C   UNL     1      16.858   6.645  20.032  0.00  0.00    +0.016 C 
ENDBRANCH  13  15
ENDBRANCH   8  10
BRANCH   3   2
ATOM      1  C   UNL     1      10.616   8.442  22.558  0.00  0.00    +0.252 C 
ATOM      2  O   UNL     1      10.556   8.156  21.787  0.00  0.00    -0.471 OA
ENDBRANCH   3   2
TORSDOF 3
ENDMDL
MODEL 5
REMARK VINA RESULT:      -7.5     16.404     18.507
REMARK  Name = 
REMARK  3 active torsions:
REMARK  status: ('A' for Active; 'I' for Inactive)
REMARK    1  A    between atoms: O_2  and  C_3
REMARK    2  A    between atoms: C_8  and  C_10
REMARK    3  A    between atoms: N_13  and  C_15
REMARK                            x       y       z     vdW  Elec       q    Type
REMARK                         _______ _______ _______ _____ _____    ______ ____
ROOT
ATOM      3  C   UNL     1      16.071   6.527  19.694  0.00  0.00    +0.140 A 
ATOM      4  C   UNL     1      15.591   6.493  20.363  0.00  0.00    +0.058 A 
ATOM      5  C   UNL     1      14.793   6.697  20.311  0.00  0.00    +0.103 A 
ATOM      6  C   UNL     1      14.476   6.936  19.587  0.00  0.00    +0.100 A 
ATOM      7  N   UNL     1      13.677   7.103  19.702  0.00  0.00    -0.229 NA
ATOM      8  C   UNL     1      13.500   6.968  20.496  0.00  0.00    +0.140 A 
ATOM      9  N   UNL     1      14.190   6.717  20.872  0.00  0.00    -0.229 NA
ATOM     19  C   UNL     1      14.957   6.970  18.917  0.00  0.00    +0.024 A 
ATOM     20  C   UNL     1      15.754   6.765  18.971  0.00  0.00    +0.039 A 
ENDROOT
BRANCH   8  10
ATOM     10  C   UNL     1      12.762   7.066  20.852  0.00  0.00    +0.076 C 
ATOM     11  C   UNL     1      12.187   6.482  20.946  0.00  0.00    +0.026 C 
ATOM     12  C   UNL     1      11.539   6.820  21.329  0.00  0.00    +0.073 C 
ATOM     13  N   UNL     1      11.713   7.613  21.471  0.00  0.00    -0.274 NA
ATOM     14  C   UNL     1      12.469   7.765  21.176  0.00  0.00    +0.080 C 
BRANCH  13  15
ATOM     15  C   UNL     1      11.219   8.159  21.843  0.00  0.00    +0.058 C 
ATOM     16  C   UNL     1      10.678   8.127  22.464  0.00  0.00    +0.016 C 
ATOM     17  C   UNL     1      10.520   8.932  22.368  0.00  0.00    +0.003 C 
ATOM     18  C   UNL     1      11.062   8.964  21.747  0.00  0.00    +0.016 C 
ENDBRANCH  13  15
ENDBRANCH   8  10
BRANCH   3   2
ATOM      1  C   UNL     1      17.233   5.916  19.128  0.00  0.00    +0.252 C 
ATOM      2  O   UNL     1      16.868   6.323  19.747  0.00  0.00    -0.471 OA
ENDBRANCH   3   2
TORSDOF 3
ENDMDL
MODEL 6
REMARK VINA RESULT:      -7.2     17.970     19.224
REMARK  Name = 
REMARK  3 active torsions:
REMARK  status: ('A' for Active; 'I' for Inactive)
REMARK    1  A    between atoms: O_2  and  C_3
REMARK    2  A    between atoms: C_8  and  C_10
REMARK    3  A    between atoms: N_13  and  C_15
REMARK                            x       y       z     vdW  Elec       q    Type
REMARK                         _______ _______ _______ _____ _____    ______ ____
ROOT
ATOM      3  C   UNL     1      15.968   6.497  19.568  0.00  0.00    +0.140 A 
ATOM      4  C   UNL     1      15.558   6.868  18.957  0.00  0.00    +0.058 A 
ATOM      5  C   UNL     1      14.774   7.101  19.067  0.00  0.00    +0.103 A 
ATOM      6  C   UNL     1      14.401   6.962  19.789  0.00  0.00    +0.100 A 
ATOM      7  N   UNL     1      13.631   7.251  19.738  0.00  0.00    -0.229 NA
ATOM      8  C   UNL     1      13.527   7.569  18.984  0.00  0.00    +0.140 A 
ATOM      9  N   UNL     1      14.234   7.476  18.570  0.00  0.00    -0.229 NA
ATOM     19  C   UNL     1      14.812   6.590  20.402  0.00  0.00    +0.024 A 
ATOM     20  C   UNL     1      15.595   6.358  20.290  0.00  0.00    +0.039 A 
ENDROOT
BRANCH   8  10
ATOM     10  C   UNL     1      12.838   7.918  18.695  0.00  0.00    +0.076 C 
ATOM     11  C   UNL     1      12.213   8.207  19.149  0.00  0.00    +0.026 C 
ATOM     12  C   UNL     1      11.641   8.507  18.637  0.00  0.00    +0.073 C 
ATOM     13  N   UNL     1      11.912   8.404  17.864  0.00  0.00    -0.274 NA
ATOM     14  C   UNL     1      12.652   8.039  17.901  0.00  0.00    +0.080 C 
BRANCH  13  15
ATOM     15  C   UNL     1      11.514   8.625  17.177  0.00  0.00    +0.058 C 
ATOM     16  C   UNL     1      11.708   9.067  16.508  0.00  0.00    +0.016 C 
ATOM     17  C   UNL     1      10.952   8.938  16.204  0.00  0.00    +0.003 C 
ATOM     18  C   UNL     1      10.758   8.496  16.873  0.00  0.00    +0.016 C 
ENDBRANCH  13  15
ENDBRANCH   8  10
BRANCH   3   2
ATOM      1  C   UNL     1      17.326   6.467  20.014  0.00  0.00    +0.252 C 
ATOM      2  O   UNL     1      16.751   6.264  19.457  0.00  0.00    -0.471 OA
ENDBRANCH   3   2
TORSDOF 3
ENDMDL
MODEL 7
REMARK VINA RESULT:      -6.8     16.209     17.833
REMARK  Name = 
REMARK  3 active torsions:
REMARK  status: ('A' for Active; 'I' for Inactive)
REMARK    1  A    between atoms: O_2  and  C_3
REMARK    2  A    between atoms: C_8  and  C_10
REMARK    3  A    between atoms: N_13  and  C_15
REMARK                            x       y       z     vdW  Elec       q    Type
REMARK                         _______ _______ _______ _____ _____    ______ ____
ROOT
ATOM      3  C   UNL     1      10.811   8.306  21.764  0.00  0.00    +0.140 A 
ATOM      4  C   UNL     1      10.841   8.791  21.098  0.00  0.00    +0.058 A 
ATOM      5  C   UNL     1      11.166   8.507  20.395  0.00  0.00    +0.103 A 
ATOM      6  C   UNL     1      11.459   7.736  20.358  0.00  0.00    +0.100 A 
ATOM      7  N   UNL     1      11.745   7.608  19.596  0.00  0.00    -0.229 NA
ATOM      8  C   UNL     1      11.628   8.299  19.160  0.00  0.00    +0.140 A 
ATOM      9  N   UNL     1      11.270   8.853  19.654  0.00  0.00    -0.229 NA
ATOM     19  C   UNL     1      11.429   7.251  21.025  0.00  0.00    +0.024 A 
ATOM     20  C   UNL     1      11.104   7.536  21.728  0.00  0.00    +0.039 A 
ENDROOT
BRANCH   8  10
ATOM     10  C   UNL     1      11.833   8.414  18.369  0.00  0.00    +0.076 C 
ATOM     11  C   UNL     1      11.322   8.367  17.724  0.00  0.00    +0.026 C 
ATOM     12  C   UNL     1      11.757   8.521  17.040  0.00  0.00    +0.073 C 
ATOM     13  N   UNL     1      12.539   8.664  17.264  0.00  0.00    -0.274 NA
ATOM     14  C   UNL     1      12.585   8.598  18.085  0.00  0.00    +0.080 C 
BRANCH  13  15
ATOM     15  C   UNL     1      13.164   8.841  16.756  0.00  0.00    +0.058 C 
ATOM     16  C   UNL     1      13.986   8.857  16.826  0.00  0.00    +0.016 C 
ATOM     17  C   UNL     1      14.048   9.092  16.037  0.00  0.00    +0.003 C 
ATOM     18  C   UNL     1      13.226   9.076  15.967  0.00  0.00    +0.016 C 
ENDBRANCH  13  15
ENDBRANCH   8  10
BRANCH   3   2
ATOM      1  C   UNL     1      10.959   9.005  23.002  0.00  0.00    +0.252 C 
ATOM      2  O   UNL     1      10.487   8.591  22.467  0.00  0.00    -0.471 OA
ENDBRANCH   3   2
TORSDOF 3
ENDMDL
MODEL 8
REMARK VINA RESULT:      -6.6     16.044     18.260
REMARK  Name = 
REMARK  3 active torsions:
REMARK  status: ('A' for Active; 'I' for Inactive)
REMARK    1  A    between atoms: O_2  and  C_3
REMARK    2  A    between atoms: C_8  and  C_10
REMARK    3  A    between atoms: N_13  and  C_15
REMARK                            x       y       z     vdW  Elec       q    Type
REMARK                         _______ _______ _______ _____ _____    ______ ____
ROOT
ATOM      3  C   UNL     1      13.471   8.554  16.791  0.00  0.00    +0.140 A 
ATOM      4  C   UNL     1      12.847   8.621  17.326  0.00  0.00    +0.058 A 
ATOM      5  C   UNL     1      12.851   8.178  18.022  0.00  0.00    +0.103 A 
ATOM      6  C   UNL     1      13.479   7.669  18.183  0.00  0.00    +0.100 A 
ATOM      7  N   UNL     1      13.333   7.305  18.909  0.00  0.00    -0.229 NA
ATOM      8  C   UNL     1      12.614   7.590  19.196  0.00  0.00    +0.140 A 
ATOM      9  N   UNL     1      12.317   8.129  18.648  0.00  0.00    -0.229 NA
ATOM     19  C   UNL     1      14.104   7.602  17.648  0.00  0.00    +0.024 A 
ATOM     20  C   UNL     1      14.100   8.045  16.952  0.00  0.00    +0.039 A 
ENDROOT
BRANCH   8  10
ATOM     10  C   UNL     1      12.256   7.373  19.907  0.00  0.00    +0.076 C 
ATOM     11  C   UNL     1      12.295   6.630  20.263  0.00  0.00    +0.026 C 
ATOM     12  C   UNL     1      11.859   6.657  20.962  0.00  0.00    +0.073 C 
ATOM     13  N   UNL     1      11.550   7.419  21.039  0.00  0.00    -0.274 NA
ATOM     14  C   UNL     1      11.796   7.860  20.387  0.00  0.00    +0.080 C 
BRANCH  13  15
ATOM     15  C   UNL     1      11.079   7.691  21.659  0.00  0.00    +0.058 C 
ATOM     16  C   UNL     1      11.057   8.376  22.118  0.00  0.00    +0.016 C 
ATOM     17  C   UNL     1      10.412   8.076  22.536  0.00  0.00    +0.003 C 
ATOM     18  C   UNL     1      10.434   7.390  22.077  0.00  0.00    +0.016 C 
ENDBRANCH  13  15
ENDBRANCH   8  10
BRANCH   3   2
ATOM      1  C   UNL     1      14.057   8.881  15.529  0.00  0.00    +0.252 C 
ATOM      2  O   UNL     1      13.468   8.996  16.095  0.00  0.00    -0.471 OA
ENDBRANCH   3   2
TORSDOF 3
ENDMDL
