MODEL 1
REMARK VINA RESULT:      -9.3      0.000      0.000
REMARK  Name = 
REMARK  3 active torsions:
REMARK  status: ('A' for Active; 'I' for Inactive)
REMARK    1  A    between atoms: N_3  and  C_4
REMARK    2  A    between atoms: C_8  and  N_12
REMARK    3  A    between atoms: C_15  and  C_19
REMARK                            x       y       z     vdW  Elec       q    Type
REMARK                         _______ _______ _______ _____ _____    ______ ____
ROOT
ATOM      4  C   UNL     1       0.284   0.651  23.922  0.00  0.00    +0.156 C 
ATOM      5  C   UNL     1      -0.149  -0.050  23.929  0.00  0.00    +0.166 C 
ATOM      6  O   UNL     1      -0.894   0.114  24.243  0.00  0.00    -0.350 OA
ATOM      7  C   UNL     1      -0.921   0.916  24.430  0.00  0.00    +0.166 C 
ATOM      8  C   UNL     1      -1.397   1.515  24.739  0.00  0.00    +0.154 C 
ATOM      9  C   UNL     1      -0.964   2.217  24.732  0.00  0.00    +0.166 C 
ATOM     10  O   UNL     1      -0.219   2.052  24.418  0.00  0.00    -0.350 OA
ATOM     11  C   UNL     1      -0.192   1.248  24.231  0.00  0.00    +0.166 C 
ENDROOT
BRANCH   4   3
ATOM      1  O   UNL     1       0.832  -0.269  22.666  0.00  0.00    -0.251 OA
ATOM      2  C   UNL     1       1.333   0.279  23.025  0.00  0.00    +0.323 C 
ATOM      3  N   UNL     1       1.059   0.739  23.653  0.00  0.00    -0.185 NA
ATOM     24  N   UNL     1       2.108   0.367  22.755  0.00  0.00    -0.258 N 
ATOM     25  C   UNL     1       2.381  -0.092  22.127  0.00  0.00    +0.127 C 
ATOM     26  C   UNL     1       3.156  -0.004  21.858  0.00  0.00    +0.164 C 
ATOM     27  O   UNL     1       3.657   0.544  22.217  0.00  0.00    -0.350 OA
ATOM     28  C   UNL     1       3.384   1.004  22.845  0.00  0.00    +0.164 C 
ATOM     29  C   UNL     1       2.609   0.916  23.114  0.00  0.00    +0.127 C 
ENDBRANCH   4   3
BRANCH   8  12
ATOM     12  N   UNL     1      -2.172   1.427  25.008  0.00  0.00    -0.200 NA
ATOM     13  C   UNL     1      -2.770   1.913  24.712  0.00  0.00    +0.237 A 
ATOM     14  N   UNL     1      -3.545   1.825  24.981  0.00  0.00    -0.209 NA
ATOM     15  C   UNL     1      -4.142   2.311  24.685  0.00  0.00    +0.120 A 
ATOM     16  C   UNL     1      -3.965   2.885  24.120  0.00  0.00    +0.043 A 
ATOM     17  C   UNL     1      -3.190   2.973  23.851  0.00  0.00    +0.104 A 
ATOM     18  N   UNL     1      -2.593   2.487  24.147  0.00  0.00    -0.211 NA
BRANCH  15  19
ATOM     19  C   UNL     1      -4.917   2.223  24.954  0.00  0.00    +0.163 A 
ATOM     20  C   UNL     1      -5.261   2.631  25.584  0.00  0.00    +0.042 A 
ATOM     21  C   UNL     1      -6.040   2.372  25.660  0.00  0.00    +0.044 A 
ATOM     22  C   UNL     1      -6.178   1.804  25.078  0.00  0.00    +0.180 A 
ATOM     23  O   UNL     1      -5.483   1.712  24.642  0.00  0.00    -0.449 OA
ENDBRANCH  15  19
ENDBRANCH   8  12
TORSDOF 3
ENDMDL
MODEL 2
REMARK VINA RESULT:      -8.9      0.972      6.512
REMARK  Name = 
REMARK  3 active torsions:
REMARK  status: ('A' for Active; 'I' for Inactive)
REMARK    1  A    between atoms: N_3  and  C_4
REMARK    2  A    between atoms: C_8  and  N_12
REMARK    3  A    between atoms: C_15  and  C_19
REMARK                            x       y       z     vdW  Elec       q    Type
REMARK                         _______ _______ _______ _____ _____    ______ ____
ROOT
ATOM      4  C   UNL     1      -2.430   2.152  24.441  0.00  0.00    +0.156 C 
ATOM      5  C   UNL     1      -2.115   2.796  24.033  0.00  0.00    +0.166 C 
ATOM      6  O   UNL     1      -1.304   2.670  23.946  0.00  0.00    -0.350 OA
ATOM      7  C   UNL     1      -1.118   1.949  24.298  0.00  0.00    +0.166 C 
ATOM      8  C   UNL     1      -0.503   1.424  24.462  0.00  0.00    +0.154 C 
ATOM      9  C   UNL     1      -0.818   0.780  24.870  0.00  0.00    +0.166 C 
ATOM     10  O   UNL     1      -1.628   0.906  24.958  0.00  0.00    -0.350 OA
ATOM     11  C   UNL     1      -1.814   1.628  24.604  0.00  0.00    +0.166 C 
ENDROOT
BRANCH   4   3
ATOM      1  O   UNL     1      -3.295   3.419  25.049  0.00  0.00    -0.251 OA
ATOM      2  C   UNL     1      -3.654   2.683  24.952  0.00  0.00    +0.323 C 
ATOM      3  N   UNL     1      -3.222   2.049  24.648  0.00  0.00    -0.185 NA
ATOM     24  N   UNL     1      -4.446   2.580  25.160  0.00  0.00    -0.258 N 
ATOM     25  C   UNL     1      -4.878   3.214  25.464  0.00  0.00    +0.127 C 
ATOM     26  C   UNL     1      -5.670   3.111  25.671  0.00  0.00    +0.164 C 
ATOM     27  O   UNL     1      -6.030   2.375  25.574  0.00  0.00    -0.350 OA
ATOM     28  C   UNL     1      -5.598   1.742  25.270  0.00  0.00    +0.164 C 
ATOM     29  C   UNL     1      -4.806   1.844  25.063  0.00  0.00    +0.127 C 
ENDBRANCH   4   3
BRANCH   8  12
ATOM     12  N   UNL     1       0.289   1.526  24.255  0.00  0.00    -0.200 NA
ATOM     13  C   UNL     1       0.667   0.968  23.779  0.00  0.00    +0.237 A 
ATOM     14  N   UNL     1       1.458   1.070  23.572  0.00  0.00    -0.209 NA
ATOM     15  C   UNL     1       1.836   0.511  23.097  0.00  0.00    +0.120 A 
ATOM     16  C   UNL     1       1.422  -0.150  22.828  0.00  0.00    +0.043 A 
ATOM     17  C   UNL     1       0.629  -0.252  23.036  0.00  0.00    +0.104 A 
ATOM     18  N   UNL     1       0.253   0.307  23.511  0.00  0.00    -0.211 NA
BRANCH  15  19
ATOM     19  C   UNL     1       2.628   0.613  22.889  0.00  0.00    +0.163 A 
ATOM     20  C   UNL     1       3.047   0.163  22.339  0.00  0.00    +0.042 A 
ATOM     21  C   UNL     1       3.818   0.455  22.305  0.00  0.00    +0.044 A 
ATOM     22  C   UNL     1       3.875   1.085  22.834  0.00  0.00    +0.180 A 
ATOM     23  O   UNL     1       3.139   1.183  23.195  0.00  0.00    -0.449 OA
ENDBRANCH  15  19
ENDBRANCH   8  12
TORSDOF 3
ENDMDL
MODEL 3
REMARK VINA RESULT:      -7.1      1.825      2.567
REMARK  Name = 
REMARK  3 active torsions:
REMARK  status: ('A' for Active; 'I' for Inactive)
REMARK    1  A    between atoms: N_3  and  C_4
REMARK    2  A    between atoms: C_8  and  N_12
REMARK    3  A    between atoms: C_15  and  C_19
REMARK                            x       y       z     vdW  Elec       q    Type
REMARK                         _______ _______ _______ _____ _____    ______ ____
ROOT
ATOM      4  C   UNL     1       2.043   0.331  22.986  0.00  0.00    +0.156 C 
ATOM      5  C   UNL     1       1.670  -0.210  22.488  0.00  0.00    +0.166 C 
ATOM      6  O   UNL     1       0.856  -0.142  22.601  0.00  0.00    -0.350 OA
ATOM      7  C   UNL     1       0.725   0.440  23.170  0.00  0.00    +0.166 C 
ATOM      8  C   UNL     1       0.142   0.843  23.592  0.00  0.00    +0.154 C 
ATOM      9  C   UNL     1       0.515   1.384  24.091  0.00  0.00    +0.166 C 
ATOM     10  O   UNL     1       1.329   1.316  23.977  0.00  0.00    -0.350 OA
ATOM     11  C   UNL     1       1.459   0.733  23.408  0.00  0.00    +0.166 C 
ENDROOT
BRANCH   4   3
ATOM      1  O   UNL     1       3.035  -0.940  23.341  0.00  0.00    -0.251 OA
ATOM      2  C   UNL     1       3.353  -0.187  23.229  0.00  0.00    +0.323 C 
ATOM      3  N   UNL     1       2.857   0.448  23.052  0.00  0.00    -0.185 NA
ATOM     24  N   UNL     1       4.167  -0.069  23.294  0.00  0.00    -0.258 N 
ATOM     25  C   UNL     1       4.663  -0.704  23.472  0.00  0.00    +0.127 C 
ATOM     26  C   UNL     1       5.476  -0.586  23.537  0.00  0.00    +0.164 C 
ATOM     27  O   UNL     1       5.795   0.167  23.425  0.00  0.00    -0.350 OA
ATOM     28  C   UNL     1       5.299   0.802  23.248  0.00  0.00    +0.164 C 
ATOM     29  C   UNL     1       4.485   0.684  23.183  0.00  0.00    +0.127 C 
ENDBRANCH   4   3
BRANCH   8  12
ATOM     12  N   UNL     1      -0.672   0.726  23.526  0.00  0.00    -0.200 NA
ATOM     13  C   UNL     1      -1.106   0.468  24.179  0.00  0.00    +0.237 A 
ATOM     14  N   UNL     1      -1.919   0.350  24.114  0.00  0.00    -0.209 NA
ATOM     15  C   UNL     1      -2.353   0.092  24.767  0.00  0.00    +0.120 A 
ATOM     16  C   UNL     1      -1.972  -0.048  25.485  0.00  0.00    +0.043 A 
ATOM     17  C   UNL     1      -1.158   0.070  25.551  0.00  0.00    +0.104 A 
ATOM     18  N   UNL     1      -0.725   0.328  24.898  0.00  0.00    -0.211 NA
BRANCH  15  19
ATOM     19  C   UNL     1      -3.166  -0.026  24.702  0.00  0.00    +0.163 A 
ATOM     20  C   UNL     1      -3.541  -0.741  24.530  0.00  0.00    +0.042 A 
ATOM     21  C   UNL     1      -4.354  -0.607  24.519  0.00  0.00    +0.044 A 
ATOM     22  C   UNL     1      -4.483   0.191  24.683  0.00  0.00    +0.180 A 
ATOM     23  O   UNL     1      -3.749   0.550  24.796  0.00  0.00    -0.449 OA
ENDBRANCH  15  19
ENDBRANCH   8  12
TORSDOF 3
ENDMDL
MODEL 4
REMARK VINA RESULT:      -6.5     15.361     16.043
REMARK  Name = 
REMARK  3 active torsions:
REMARK  status: ('A' for Active; 'I' for Inactive)
REMARK    1  A    between atoms: N_3  and  C_4
REMARK    2  A    between atoms: C_8  and  N_12
REMARK    3  A    between atoms: C_15  and  C_19
REMARK                            x       y       z     vdW  Elec       q    Type
REMARK                         _______ _______ _______ _____ _____    ______ ____
ROOT
ATOM      4  C   UNL     1      -5.820  -9.575  12.390  0.00  0.00    +0.156 C 
ATOM      5  C   UNL     1      -6.550  -9.232  12.218  0.00  0.00    +0.166 C 
ATOM      6  O   UNL     1      -7.052  -9.369  12.858  0.00  0.00    -0.350 OA
ATOM      7  C   UNL     1      -6.634  -9.796  13.425  0.00  0.00    +0.166 C 
ATOM      8  C   UNL     1      -6.684 -10.145  14.171  0.00  0.00    +0.154 C 
ATOM      9  C   UNL     1      -5.954 -10.489  14.343  0.00  0.00    +0.166 C 
ATOM     10  O   UNL     1      -5.452 -10.352  13.703  0.00  0.00    -0.350 OA
ATOM     11  C   UNL     1      -5.872  -9.924  13.136  0.00  0.00    +0.166 C 
ENDROOT
BRANCH   4   3
ATOM      1  O   UNL     1      -5.882  -8.831  10.919  0.00  0.00    -0.251 OA
ATOM      2  C   UNL     1      -5.186  -9.198  11.166  0.00  0.00    +0.323 C 
ATOM      3  N   UNL     1      -5.155  -9.571  11.902  0.00  0.00    -0.185 NA
ATOM     24  N   UNL     1      -4.521  -9.194  10.678  0.00  0.00    -0.258 N 
ATOM     25  C   UNL     1      -4.552  -8.821   9.942  0.00  0.00    +0.127 C 
ATOM     26  C   UNL     1      -3.887  -8.817   9.454  0.00  0.00    +0.164 C 
ATOM     27  O   UNL     1      -3.191  -9.184   9.701  0.00  0.00    -0.350 OA
ATOM     28  C   UNL     1      -3.160  -9.557  10.437  0.00  0.00    +0.164 C 
ATOM     29  C   UNL     1      -3.825  -9.561  10.925  0.00  0.00    +0.127 C 
ENDBRANCH   4   3
BRANCH   8  12
ATOM     12  N   UNL     1      -7.349 -10.150  14.659  0.00  0.00    -0.200 NA
ATOM     13  C   UNL     1      -7.280  -9.938  15.454  0.00  0.00    +0.237 A 
ATOM     14  N   UNL     1      -7.944  -9.942  15.942  0.00  0.00    -0.209 NA
ATOM     15  C   UNL     1      -7.875  -9.730  16.736  0.00  0.00    +0.120 A 
ATOM     16  C   UNL     1      -7.140  -9.513  17.042  0.00  0.00    +0.043 A 
ATOM     17  C   UNL     1      -6.475  -9.508  16.553  0.00  0.00    +0.104 A 
ATOM     18  N   UNL     1      -6.545  -9.721  15.759  0.00  0.00    -0.211 NA
BRANCH  15  19
ATOM     19  C   UNL     1      -8.539  -9.734  17.224  0.00  0.00    +0.163 A 
ATOM     20  C   UNL     1      -8.729 -10.315  17.780  0.00  0.00    +0.042 A 
ATOM     21  C   UNL     1      -9.438 -10.099  18.142  0.00  0.00    +0.044 A 
ATOM     22  C   UNL     1      -9.686  -9.386  17.811  0.00  0.00    +0.180 A 
ATOM     23  O   UNL     1      -9.131  -9.161  17.243  0.00  0.00    -0.449 OA
ENDBRANCH  15  19
ENDBRANCH   8  12
TORSDOF 3
ENDMDL
MODEL 5
REMARK VINA RESULT:      -6.4     15.413     16.223
REMARK  Name = 
REMARK  3 active torsions:
REMARK  status: ('A' for Active; 'I' for Inactive)
REMARK    1  A    between atoms: N_3  and  C_4
REMARK    2  A    between atoms: C_8  and  N_12
REMARK    3  A    between atoms: C_15  and  C_19
REMARK                            x       y       z     vdW  Elec       q    Type
REMARK                         _______ _______ _______ _____ _____    ______ ____
ROOT
ATOM      4  C   UNL     1      -6.345  -9.621  12.695  0.00  0.00    +0.156 C 
ATOM      5  C   UNL     1      -5.543  -9.653  12.885  0.00  0.00    +0.166 C 
ATOM      6  O   UNL     1      -5.476  -9.916  13.664  0.00  0.00    -0.350 OA
ATOM      7  C   UNL     1      -6.236 -10.047  13.955  0.00  0.00    +0.166 C 
ATOM      8  C   UNL     1      -6.666 -10.291  14.616  0.00  0.00    +0.154 C 
ATOM      9  C   UNL     1      -7.467 -10.259  14.426  0.00  0.00    +0.166 C 
ATOM     10  O   UNL     1      -7.534  -9.996  13.648  0.00  0.00    -0.350 OA
ATOM     11  C   UNL     1      -6.773  -9.865  13.356  0.00  0.00    +0.166 C 
ENDROOT
BRANCH   4   3
ATOM      1  O   UNL     1      -5.359  -9.014  11.519  0.00  0.00    -0.251 OA
ATOM      2  C   UNL     1      -6.170  -9.083  11.383  0.00  0.00    +0.323 C 
ATOM      3  N   UNL     1      -6.663  -9.387  11.971  0.00  0.00    -0.185 NA
ATOM     24  N   UNL     1      -6.488  -8.849  10.658  0.00  0.00    -0.258 N 
ATOM     25  C   UNL     1      -5.995  -8.546  10.070  0.00  0.00    +0.127 C 
ATOM     26  C   UNL     1      -6.313  -8.311   9.346  0.00  0.00    +0.164 C 
ATOM     27  O   UNL     1      -7.124  -8.380   9.209  0.00  0.00    -0.350 OA
ATOM     28  C   UNL     1      -7.617  -8.684   9.797  0.00  0.00    +0.164 C 
ATOM     29  C   UNL     1      -7.299  -8.918  10.522  0.00  0.00    +0.127 C 
ENDBRANCH   4   3
BRANCH   8  12
ATOM     12  N   UNL     1      -6.348 -10.525  15.341  0.00  0.00    -0.200 NA
ATOM     13  C   UNL     1      -6.654 -10.221  16.044  0.00  0.00    +0.237 A 
ATOM     14  N   UNL     1      -6.337 -10.455  16.768  0.00  0.00    -0.209 NA
ATOM     15  C   UNL     1      -6.643 -10.151  17.471  0.00  0.00    +0.120 A 
ATOM     16  C   UNL     1      -7.268  -9.612  17.450  0.00  0.00    +0.043 A 
ATOM     17  C   UNL     1      -7.586  -9.378  16.725  0.00  0.00    +0.104 A 
ATOM     18  N   UNL     1      -7.279  -9.683  16.022  0.00  0.00    -0.211 NA
BRANCH  15  19
ATOM     19  C   UNL     1      -6.326 -10.385  18.195  0.00  0.00    +0.163 A 
ATOM     20  C   UNL     1      -6.751 -10.525  18.889  0.00  0.00    +0.042 A 
ATOM     21  C   UNL     1      -6.216 -10.747  19.475  0.00  0.00    +0.044 A 
ATOM     22  C   UNL     1      -5.460 -10.744  19.145  0.00  0.00    +0.180 A 
ATOM     23  O   UNL     1      -5.528 -10.520  18.354  0.00  0.00    -0.449 OA
ENDBRANCH  15  19
ENDBRANCH   8  12
TORSDOF 3
ENDMDL
MODEL 6
REMARK VINA RESULT:      -6.3     14.759     16.596
REMARK  Name = 
REMARK  3 active torsions:
REMARK  status: ('A' for Active; 'I' for Inactive)
REMARK    1  A    between atoms: N_3  and  C_4
REMARK    2  A    between atoms: C_8  and  N_12
REMARK    3  A    between atoms: C_15  and  C_19
REMARK                            x       y       z     vdW  Elec       q    Type
REMARK                         _______ _______ _______ _____ _____    ______ ____
ROOT
ATOM      4  C   UNL     1      -7.108  -9.838  16.400  0.00  0.00    +0.156 C 
ATOM      5  C   UNL     1      -6.429  -9.607  16.808  0.00  0.00    +0.166 C 
ATOM      6  O   UNL     1      -5.775  -9.803  16.345  0.00  0.00    -0.350 OA
ATOM      7  C   UNL     1      -6.049 -10.155  15.652  0.00  0.00    +0.166 C 
ATOM      8  C   UNL     1      -5.816 -10.494  14.937  0.00  0.00    +0.154 C 
ATOM      9  C   UNL     1      -6.495 -10.725  14.529  0.00  0.00    +0.166 C 
ATOM     10  O   UNL     1      -7.148 -10.529  14.993  0.00  0.00    -0.350 OA
ATOM     11  C   UNL     1      -6.873 -10.177  15.686  0.00  0.00    +0.166 C 
ENDROOT
BRANCH   4   3
ATOM      1  O   UNL     1      -7.533 -10.333  17.916  0.00  0.00    -0.251 OA
ATOM      2  C   UNL     1      -8.097  -9.994  17.420  0.00  0.00    +0.323 C 
ATOM      3  N   UNL     1      -7.885  -9.746  16.662  0.00  0.00    -0.185 NA
ATOM     24  N   UNL     1      -8.875  -9.902  17.681  0.00  0.00    -0.258 N 
ATOM     25  C   UNL     1      -9.087 -10.150  18.439  0.00  0.00    +0.127 C 
ATOM     26  C   UNL     1      -9.864 -10.058  18.700  0.00  0.00    +0.164 C 
ATOM     27  O   UNL     1     -10.429  -9.719  18.204  0.00  0.00    -0.350 OA
ATOM     28  C   UNL     1     -10.217  -9.471  17.446  0.00  0.00    +0.164 C 
ATOM     29  C   UNL     1      -9.439  -9.563  17.185  0.00  0.00    +0.127 C 
ENDBRANCH   4   3
BRANCH   8  12
ATOM     12  N   UNL     1      -5.038 -10.586  14.675  0.00  0.00    -0.200 NA
ATOM     13  C   UNL     1      -4.847 -10.433  13.887  0.00  0.00    +0.237 A 
ATOM     14  N   UNL     1      -4.071 -10.524  13.626  0.00  0.00    -0.209 NA
ATOM     15  C   UNL     1      -3.879 -10.371  12.838  0.00  0.00    +0.120 A 
ATOM     16  C   UNL     1      -4.465 -10.127  12.312  0.00  0.00    +0.043 A 
ATOM     17  C   UNL     1      -5.243 -10.035  12.573  0.00  0.00    +0.104 A 
ATOM     18  N   UNL     1      -5.433 -10.188  13.361  0.00  0.00    -0.211 NA
BRANCH  15  19
ATOM     19  C   UNL     1      -3.103 -10.463  12.576  0.00  0.00    +0.163 A 
ATOM     20  C   UNL     1      -2.869 -10.781  11.851  0.00  0.00    +0.042 A 
ATOM     21  C   UNL     1      -2.045 -10.767  11.821  0.00  0.00    +0.044 A 
ATOM     22  C   UNL     1      -1.769 -10.441  12.526  0.00  0.00    +0.180 A 
ATOM     23  O   UNL     1      -2.423 -10.253  12.993  0.00  0.00    -0.449 OA
ENDBRANCH  15  19
ENDBRANCH   8  12
TORSDOF 3
ENDMDL
MODEL 7
REMARK VINA RESULT:      -6.1     15.814     16.865
REMARK  Name = 
REMARK  3 active torsions:
REMARK  status: ('A' for Active; 'I' for Inactive)
REMARK    1  A    between atoms: N_3  and  C_4
REMARK    2  A    between atoms: C_8  and  N_12
REMARK    3  A    between atoms: C_15  and  C_19
REMARK                            x       y       z     vdW  Elec       q    Type
REMARK                         _______ _______ _______ _____ _____    ______ ____
ROOT
ATOM      4  C   UNL     1      -6.041 -10.067  14.627  0.00  0.00    +0.156 C 
ATOM      5  C   UNL     1      -6.850  -9.914  14.587  0.00  0.00    +0.166 C 
ATOM      6  O   UNL     1      -7.048  -9.799  13.794  0.00  0.00    -0.350 OA
ATOM      7  C   UNL     1      -6.361  -9.881  13.345  0.00  0.00    +0.166 C 
ATOM      8  C   UNL     1      -6.058  -9.861  12.578  0.00  0.00    +0.154 C 
ATOM      9  C   UNL     1      -5.249 -10.015  12.619  0.00  0.00    +0.166 C 
ATOM     10  O   UNL     1      -5.051 -10.130  13.412  0.00  0.00    -0.350 OA
ATOM     11  C   UNL     1      -5.739 -10.047  13.861  0.00  0.00    +0.166 C 
ENDROOT
BRANCH   4   3
ATOM      1  O   UNL     1      -6.806 -10.112  16.089  0.00  0.00    -0.251 OA
ATOM      2  C   UNL     1      -5.992 -10.238  16.046  0.00  0.00    +0.323 C 
ATOM      3  N   UNL     1      -5.609 -10.215  15.315  0.00  0.00    -0.185 NA
ATOM     24  N   UNL     1      -5.561 -10.386  16.734  0.00  0.00    -0.258 N 
ATOM     25  C   UNL     1      -5.944 -10.408  17.464  0.00  0.00    +0.127 C 
ATOM     26  C   UNL     1      -5.512 -10.556  18.151  0.00  0.00    +0.164 C 
ATOM     27  O   UNL     1      -4.698 -10.681  18.108  0.00  0.00    -0.350 OA
ATOM     28  C   UNL     1      -4.315 -10.659  17.378  0.00  0.00    +0.164 C 
ATOM     29  C   UNL     1      -4.747 -10.511  16.690  0.00  0.00    +0.127 C 
ENDBRANCH   4   3
BRANCH   8  12
ATOM     12  N   UNL     1      -6.489  -9.713  11.891  0.00  0.00    -0.200 NA
ATOM     13  C   UNL     1      -6.155  -9.270  11.280  0.00  0.00    +0.237 A 
ATOM     14  N   UNL     1      -6.585  -9.122  10.593  0.00  0.00    -0.209 NA
ATOM     15  C   UNL     1      -6.250  -8.679   9.983  0.00  0.00    +0.120 A 
ATOM     16  C   UNL     1      -5.484  -8.384  10.061  0.00  0.00    +0.043 A 
ATOM     17  C   UNL     1      -5.053  -8.532  10.748  0.00  0.00    +0.104 A 
ATOM     18  N   UNL     1      -5.388  -8.975  11.358  0.00  0.00    -0.211 NA
BRANCH  15  19
ATOM     19  C   UNL     1      -6.681  -8.531   9.296  0.00  0.00    +0.163 A 
ATOM     20  C   UNL     1      -7.011  -7.807   9.076  0.00  0.00    +0.042 A 
ATOM     21  C   UNL     1      -7.392  -7.909   8.352  0.00  0.00    +0.044 A 
ATOM     22  C   UNL     1      -7.298  -8.696   8.124  0.00  0.00    +0.180 A 
ATOM     23  O   UNL     1      -6.858  -9.080   8.707  0.00  0.00    -0.449 OA
ENDBRANCH  15  19
ENDBRANCH   8  12
TORSDOF 3
ENDMDL
MODEL 8
REMARK VINA RESULT:      -6.1      3.118      5.033
REMARK  Name = 
REMARK  3 active torsions:
REMARK  status: ('A' for Active; 'I' for Inactive)
REMARK    1  A    between atoms: N_3  and  C_4
REMARK    2  A    between atoms: C_8  and  N_12
REMARK    3  A    between atoms: C_15  and  C_19
REMARK                            x       y       z     vdW  Elec       q    Type
REMARK                         _______ _______ _______ _____ _____    ______ ____
ROOT
ATOM      4  C   UNL     1      -3.934   0.042  24.377  0.00  0.00    +0.156 C 
ATOM      5  C   UNL     1      -4.275   0.441  25.013  0.00  0.00    +0.166 C 
ATOM      6  O   UNL     1      -4.046   1.232  24.968  0.00  0.00    -0.350 OA
ATOM      7  C   UNL     1      -3.565   1.322  24.305  0.00  0.00    +0.166 C 
ATOM      8  C   UNL     1      -3.126   1.866  23.867  0.00  0.00    +0.154 C 
ATOM      9  C   UNL     1      -2.786   1.467  23.230  0.00  0.00    +0.166 C 
ATOM     10  O   UNL     1      -3.014   0.676  23.275  0.00  0.00    -0.350 OA
ATOM     11  C   UNL     1      -3.496   0.586  23.939  0.00  0.00    +0.166 C 
ENDROOT
BRANCH   4   3
ATOM      1  O   UNL     1      -3.251  -1.086  25.369  0.00  0.00    -0.251 OA
ATOM      2  C   UNL     1      -3.676  -1.325  24.704  0.00  0.00    +0.323 C 
ATOM      3  N   UNL     1      -4.018  -0.762  24.208  0.00  0.00    -0.185 NA
ATOM     24  N   UNL     1      -3.760  -2.129  24.535  0.00  0.00    -0.258 N 
ATOM     25  C   UNL     1      -3.418  -2.692  25.031  0.00  0.00    +0.127 C 
ATOM     26  C   UNL     1      -3.502  -3.495  24.862  0.00  0.00    +0.164 C 
ATOM     27  O   UNL     1      -3.928  -3.735  24.197  0.00  0.00    -0.350 OA
ATOM     28  C   UNL     1      -4.270  -3.171  23.701  0.00  0.00    +0.164 C 
ATOM     29  C   UNL     1      -4.186  -2.368  23.870  0.00  0.00    +0.127 C 
ENDBRANCH   4   3
BRANCH   8  12
ATOM     12  N   UNL     1      -3.042   2.670  24.036  0.00  0.00    -0.200 NA
ATOM     13  C   UNL     1      -2.314   2.965  24.288  0.00  0.00    +0.237 A 
ATOM     14  N   UNL     1      -2.231   3.767  24.457  0.00  0.00    -0.209 NA
ATOM     15  C   UNL     1      -1.503   4.062  24.710  0.00  0.00    +0.120 A 
ATOM     16  C   UNL     1      -0.858   3.554  24.793  0.00  0.00    +0.043 A 
ATOM     17  C   UNL     1      -0.942   2.750  24.624  0.00  0.00    +0.104 A 
ATOM     18  N   UNL     1      -1.670   2.456  24.372  0.00  0.00    -0.211 NA
BRANCH  15  19
ATOM     19  C   UNL     1      -1.419   4.865  24.878  0.00  0.00    +0.163 A 
ATOM     20  C   UNL     1      -0.778   5.341  24.667  0.00  0.00    +0.042 A 
ATOM     21  C   UNL     1      -0.924   6.103  24.946  0.00  0.00    +0.044 A 
ATOM     22  C   UNL     1      -1.654   6.099  25.330  0.00  0.00    +0.180 A 
ATOM     23  O   UNL     1      -1.959   5.334  25.288  0.00  0.00    -0.449 OA
ENDBRANCH  15  19
ENDBRANCH   8  12
TORSDOF 3
ENDMDL
MODEL 9
REMARK VINA RESULT:      -5.9      3.099      4.639
REMARK  Name = 
REMARK  3 active torsions:
REMARK  status: ('A' for Active; 'I' for Inactive)
REMARK    1  A    between atoms: N_3  and  C_4
REMARK    2  A    between atoms: C_8  and  N_12
REMARK    3  A    between atoms: C_15  and  C_19
REMARK                            x       y       z     vdW  Elec       q    Type
REMARK                         _______ _______ _______ _____ _____    ______ ____
ROOT
ATOM      4  C   UNL     1      -1.085   2.463  25.068  0.00  0.00    +0.156 C 
ATOM      5  C   UNL     1      -1.017   2.061  25.784  0.00  0.00    +0.166 C 
ATOM      6  O   UNL     1      -1.202   1.268  25.649  0.00  0.00    -0.350 OA
ATOM      7  C   UNL     1      -1.385   1.181  24.850  0.00  0.00    +0.166 C 
ATOM      8  C   UNL     1      -1.613   0.638  24.272  0.00  0.00    +0.154 C 
ATOM      9  C   UNL     1      -1.681   1.041  23.556  0.00  0.00    +0.166 C 
ATOM     10  O   UNL     1      -1.495   1.833  23.691  0.00  0.00    -0.350 OA
ATOM     11  C   UNL     1      -1.312   1.920  24.491  0.00  0.00    +0.166 C 
ENDROOT
BRANCH   4   3
ATOM      1  O   UNL     1      -2.184   3.573  25.602  0.00  0.00    -0.251 OA
ATOM      2  C   UNL     1      -1.499   3.823  25.216  0.00  0.00    +0.323 C 
ATOM      3  N   UNL     1      -0.949   3.269  24.949  0.00  0.00    -0.185 NA
ATOM     24  N   UNL     1      -1.363   4.629  25.098  0.00  0.00    -0.258 N 
ATOM     25  C   UNL     1      -1.913   5.183  25.365  0.00  0.00    +0.127 C 
ATOM     26  C   UNL     1      -1.777   5.988  25.246  0.00  0.00    +0.164 C 
ATOM     27  O   UNL     1      -1.092   6.239  24.861  0.00  0.00    -0.350 OA
ATOM     28  C   UNL     1      -0.542   5.684  24.594  0.00  0.00    +0.164 C 
ATOM     29  C   UNL     1      -0.678   4.879  24.713  0.00  0.00    +0.127 C 
ENDBRANCH   4   3
BRANCH   8  12
ATOM     12  N   UNL     1      -1.748  -0.167  24.391  0.00  0.00    -0.200 NA
ATOM     13  C   UNL     1      -2.511  -0.473  24.314  0.00  0.00    +0.237 A 
ATOM     14  N   UNL     1      -2.647  -1.278  24.432  0.00  0.00    -0.209 NA
ATOM     15  C   UNL     1      -3.409  -1.584  24.356  0.00  0.00    +0.120 A 
ATOM     16  C   UNL     1      -4.036  -1.084  24.161  0.00  0.00    +0.043 A 
ATOM     17  C   UNL     1      -3.900  -0.278  24.043  0.00  0.00    +0.104 A 
ATOM     18  N   UNL     1      -3.138   0.027  24.119  0.00  0.00    -0.211 NA
BRANCH  15  19
ATOM     19  C   UNL     1      -3.545  -2.388  24.474  0.00  0.00    +0.163 A 
ATOM     20  C   UNL     1      -3.891  -2.906  23.933  0.00  0.00    +0.042 A 
ATOM     21  C   UNL     1      -3.918  -3.655  24.279  0.00  0.00    +0.044 A 
ATOM     22  C   UNL     1      -3.590  -3.599  25.033  0.00  0.00    +0.180 A 
ATOM     23  O   UNL     1      -3.359  -2.817  25.154  0.00  0.00    -0.449 OA
ENDBRANCH  15  19
ENDBRANCH   8  12
TORSDOF 3
ENDMDL
