MODEL 1
REMARK VINA RESULT:     -12.4      0.000      0.000
REMARK  Name = 
REMARK  8 active torsions:
REMARK  status: ('A' for Active; 'I' for Inactive)
REMARK    1  A    between atoms: C_2  and  C_4
REMARK    2  A    between atoms: C_7  and  N_8
REMARK    3  A    between atoms: N_11  and  C_12
REMARK    4  A    between atoms: C_14  and  C_21
REMARK    5  A    between atoms: N_23  and  C_24
REMARK    6  A    between atoms: C_24  and  C_25
REMARK    7  A    between atoms: C_24  and  C_32
REMARK    8  A    between atoms: C_25  and  C_26
REMARK                            x       y       z     vdW  Elec       q    Type
REMARK                         _______ _______ _______ _____ _____    ______ ____
ROOT
ATOM     12  C   UNL     1      -4.766   1.908  24.806  0.00  0.00    +0.133 C 
ATOM     13  C   UNL     1      -4.013   2.098  24.530  0.00  0.00    +0.064 C 
ATOM     14  C   UNL     1      -3.690   2.841  24.688  0.00  0.00    +0.200 C 
ATOM     15  O   UNL     1      -3.072   2.505  24.256  0.00  0.00    -0.216 OA
ATOM     16  C   UNL     1      -4.122   3.394  25.124  0.00  0.00    +0.075 C 
ATOM     17  C   UNL     1      -4.876   3.204  25.400  0.00  0.00    +0.187 C 
ATOM     18  O   UNL     1      -5.307   3.756  25.835  0.00  0.00    -0.220 OA
ATOM     19  C   UNL     1      -5.198   2.461  25.241  0.00  0.00    +0.202 C 
ATOM     20  O   UNL     1      -5.951   2.271  25.517  0.00  0.00    -0.219 OA
ENDROOT
BRANCH  12  11
ATOM      8  N   UNL     1      -4.929  -0.248  24.509  0.00  0.00    -0.161 NA
ATOM      9  C   UNL     1      -4.607   0.495  24.667  0.00  0.00    +0.344 C 
ATOM     10  O   UNL     1      -3.806   0.567  24.845  0.00  0.00    -0.249 OA
ATOM     11  N   UNL     1      -5.089   1.165  24.648  0.00  0.00    -0.186 NA
BRANCH   8   7
ATOM      4  C   UNL     1      -3.487  -2.258  24.568  0.00  0.00    +0.035 A 
ATOM      5  C   UNL     1      -3.566  -1.787  25.240  0.00  0.00    +0.004 A 
ATOM      6  C   UNL     1      -4.046  -1.117  25.221  0.00  0.00    +0.017 A 
ATOM      7  C   UNL     1      -4.449  -0.918  24.528  0.00  0.00    +0.075 A 
ATOM     35  C   UNL     1      -4.370  -1.389  23.856  0.00  0.00    +0.017 A 
ATOM     36  C   UNL     1      -3.890  -2.059  23.875  0.00  0.00    +0.004 A 
BRANCH   4   2
ATOM      1  C   UNL     1      -2.187  -2.851  24.541  0.00  0.00    +0.077 C 
ATOM      2  C   UNL     1      -3.006  -2.929  24.587  0.00  0.00    +0.173 C 
ATOM      3  O   UNL     1      -3.346  -3.677  24.652  0.00  0.00    -0.291 OA
ENDBRANCH   4   2
ENDBRANCH   8   7
ENDBRANCH  12  11
BRANCH  14  21
ATOM     21  C   UNL     1      -3.153   3.467  24.697  0.00  0.00    +0.269 C 
ATOM     22  O   UNL     1      -3.297   4.139  24.242  0.00  0.00    -0.271 OA
ATOM     23  N   UNL     1      -2.473   3.421  25.161  0.00  0.00    -0.195 NA
BRANCH  23  24
ATOM     24  C   UNL     1      -1.936   4.047  25.170  0.00  0.00    +0.179 C 
BRANCH  24  32
ATOM     32  C   UNL     1      -2.109   4.732  25.597  0.00  0.00    +0.281 C 
ATOM     33  N   UNL     1      -1.988   5.472  25.254  0.00  0.00    -0.086 NA
ATOM     34  O   UNL     1      -2.402   4.676  26.366  0.00  0.00    -0.270 OA
ENDBRANCH  24  32
BRANCH  24  25
ATOM     25  C   UNL     1      -1.227   3.988  24.754  0.00  0.00    +0.057 C 
BRANCH  25  26
ATOM     26  C   UNL     1      -0.675   3.410  24.958  0.00  0.00    -0.020 A 
ATOM     27  C   UNL     1      -0.308   2.964  24.369  0.00  0.00    -0.004 A 
ATOM     28  C   UNL     1       0.244   2.386  24.574  0.00  0.00    -0.000 A 
ATOM     29  C   UNL     1       0.429   2.253  25.367  0.00  0.00    -0.000 A 
ATOM     30  C   UNL     1       0.062   2.700  25.956  0.00  0.00    -0.000 A 
ATOM     31  C   UNL     1      -0.490   3.278  25.751  0.00  0.00    -0.004 A 
ENDBRANCH  25  26
ENDBRANCH  24  25
ENDBRANCH  23  24
ENDBRANCH  14  21
TORSDOF 8
ENDMDL
MODEL 2
REMARK VINA RESULT:     -11.8      2.082      5.602
REMARK  Name = 
REMARK  8 active torsions:
REMARK  status: ('A' for Active; 'I' for Inactive)
REMARK    1  A    between atoms: C_2  and  C_4
REMARK    2  A    between atoms: C_7  and  N_8
REMARK    3  A    between atoms: N_11  and  C_12
REMARK    4  A    between atoms: C_14  and  C_21
REMARK    5  A    between atoms: N_23  and  C_24
REMARK    6  A    between atoms: C_24  and  C_25
REMARK    7  A    between atoms: C_24  and  C_32
REMARK    8  A    between atoms: C_25  and  C_26
REMARK                            x       y       z     vdW  Elec       q    Type
REMARK                         _______ _______ _______ _____ _____    ______ ____
ROOT
ATOM     12  C   UNL     1      -1.095   2.042  24.109  0.00  0.00    +0.133 C 
ATOM     13  C   UNL     1      -1.447   1.297  24.070  0.00  0.00    +0.064 C 
ATOM     14  C   UNL     1      -0.995   0.619  24.198  0.00  0.00    +0.200 C 
ATOM     15  O   UNL     1      -1.732   0.275  24.059  0.00  0.00    -0.216 OA
ATOM     16  C   UNL     1      -0.189   0.687  24.365  0.00  0.00    +0.075 C 
ATOM     17  C   UNL     1       0.163   1.431  24.404  0.00  0.00    +0.187 C 
ATOM     18  O   UNL     1       0.968   1.499  24.571  0.00  0.00    -0.220 OA
ATOM     19  C   UNL     1      -0.290   2.109  24.276  0.00  0.00    +0.202 C 
ATOM     20  O   UNL     1       0.062   2.854  24.315  0.00  0.00    -0.219 OA
ENDROOT
BRANCH  12  11
ATOM      8  N   UNL     1      -2.741   3.472  24.212  0.00  0.00    -0.161 NA
ATOM      9  C   UNL     1      -2.288   2.795  24.340  0.00  0.00    +0.344 C 
ATOM     10  O   UNL     1      -2.573   2.193  24.825  0.00  0.00    -0.249 OA
ATOM     11  N   UNL     1      -1.548   2.720  23.981  0.00  0.00    -0.186 NA
BRANCH   8   7
ATOM      4  C   UNL     1      -4.959   3.697  25.286  0.00  0.00    +0.035 A 
ATOM      5  C   UNL     1      -4.900   3.392  24.522  0.00  0.00    +0.004 A 
ATOM      6  C   UNL     1      -4.161   3.317  24.164  0.00  0.00    +0.017 A 
ATOM      7  C   UNL     1      -3.480   3.547  24.570  0.00  0.00    +0.075 A 
ATOM     35  C   UNL     1      -3.539   3.852  25.334  0.00  0.00    +0.017 A 
ATOM     36  C   UNL     1      -4.278   3.927  25.693  0.00  0.00    +0.004 A 
BRANCH   4   2
ATOM      1  C   UNL     1      -6.098   3.102  25.912  0.00  0.00    +0.077 C 
ATOM      2  C   UNL     1      -5.698   3.772  25.645  0.00  0.00    +0.173 C 
ATOM      3  O   UNL     1      -6.037   4.518  25.737  0.00  0.00    -0.291 OA
ENDBRANCH   4   2
ENDBRANCH   8   7
ENDBRANCH  12  11
BRANCH  14  21
ATOM     21  C   UNL     1      -0.798  -0.178  24.278  0.00  0.00    +0.269 C 
ATOM     22  O   UNL     1      -0.174  -0.494  23.842  0.00  0.00    -0.271 OA
ATOM     23  N   UNL     1      -1.225  -0.659  24.794  0.00  0.00    -0.195 NA
BRANCH  23  24
ATOM     24  C   UNL     1      -1.029  -1.456  24.875  0.00  0.00    +0.179 C 
BRANCH  24  32
ATOM     32  C   UNL     1      -0.476  -1.689  25.442  0.00  0.00    +0.281 C 
ATOM     33  N   UNL     1       0.121  -2.221  25.241  0.00  0.00    -0.086 NA
ATOM     34  O   UNL     1      -0.521  -1.389  26.209  0.00  0.00    -0.270 OA
ENDBRANCH  24  32
BRANCH  24  25
ATOM     25  C   UNL     1      -1.384  -2.019  24.389  0.00  0.00    +0.057 C 
BRANCH  25  26
ATOM     26  C   UNL     1      -2.157  -2.267  24.541  0.00  0.00    -0.020 A 
ATOM     27  C   UNL     1      -2.464  -2.214  25.305  0.00  0.00    -0.004 A 
ATOM     28  C   UNL     1      -3.236  -2.462  25.457  0.00  0.00    -0.000 A 
ATOM     29  C   UNL     1      -3.701  -2.764  24.845  0.00  0.00    -0.000 A 
ATOM     30  C   UNL     1      -3.393  -2.817  24.082  0.00  0.00    -0.000 A 
ATOM     31  C   UNL     1      -2.620  -2.569  23.929  0.00  0.00    -0.004 A 
ENDBRANCH  25  26
ENDBRANCH  24  25
ENDBRANCH  23  24
ENDBRANCH  14  21
TORSDOF 8
ENDMDL
MODEL 3
REMARK VINA RESULT:     -11.6      3.597      5.752
REMARK  Name = 
REMARK  8 active torsions:
REMARK  status: ('A' for Active; 'I' for Inactive)
REMARK    1  A    between atoms: C_2  and  C_4
REMARK    2  A    between atoms: C_7  and  N_8
REMARK    3  A    between atoms: N_11  and  C_12
REMARK    4  A    between atoms: C_14  and  C_21
REMARK    5  A    between atoms: N_23  and  C_24
REMARK    6  A    between atoms: C_24  and  C_25
REMARK    7  A    between atoms: C_24  and  C_32
REMARK    8  A    between atoms: C_25  and  C_26
REMARK                            x       y       z     vdW  Elec       q    Type
REMARK                         _______ _______ _______ _____ _____    ______ ____
ROOT
ATOM     12  C   UNL     1       0.222   0.390  23.551  0.00  0.00    +0.133 C 
ATOM     13  C   UNL     1       0.121   1.171  23.796  0.00  0.00    +0.064 C 
ATOM     14  C   UNL     1      -0.442   1.355  24.371  0.00  0.00    +0.200 C 
ATOM     15  O   UNL     1      -0.138   2.107  24.223  0.00  0.00    -0.216 OA
ATOM     16  C   UNL     1      -0.905   0.755  24.700  0.00  0.00    +0.075 C 
ATOM     17  C   UNL     1      -0.804  -0.026  24.455  0.00  0.00    +0.187 C 
ATOM     18  O   UNL     1      -1.266  -0.625  24.784  0.00  0.00    -0.220 OA
ATOM     19  C   UNL     1      -0.240  -0.208  23.880  0.00  0.00    +0.202 C 
ATOM     20  O   UNL     1      -0.140  -0.989  23.635  0.00  0.00    -0.219 OA
ENDROOT
BRANCH  12  11
ATOM      8  N   UNL     1       2.153   0.059  22.588  0.00  0.00    -0.161 NA
ATOM      9  C   UNL     1       1.589   0.241  23.162  0.00  0.00    +0.344 C 
ATOM     10  O   UNL     1       1.828   0.457  23.920  0.00  0.00    -0.249 OA
ATOM     11  N   UNL     1       0.786   0.208  22.976  0.00  0.00    -0.186 NA
BRANCH   8   7
ATOM      4  C   UNL     1       4.562   0.160  23.143  0.00  0.00    +0.035 A 
ATOM      5  C   UNL     1       4.190   0.812  22.799  0.00  0.00    +0.004 A 
ATOM      6  C   UNL     1       3.387   0.778  22.614  0.00  0.00    +0.017 A 
ATOM      7  C   UNL     1       2.955   0.093  22.773  0.00  0.00    +0.075 A 
ATOM     35  C   UNL     1       3.327  -0.559  23.116  0.00  0.00    +0.017 A 
ATOM     36  C   UNL     1       4.130  -0.525  23.301  0.00  0.00    +0.004 A 
BRANCH   4   2
ATOM      1  C   UNL     1       5.610   0.500  24.054  0.00  0.00    +0.077 C 
ATOM      2  C   UNL     1       5.366   0.194  23.328  0.00  0.00    +0.173 C 
ATOM      3  O   UNL     1       5.925  -0.079  22.787  0.00  0.00    -0.291 OA
ENDBRANCH   4   2
ENDBRANCH   8   7
ENDBRANCH  12  11
BRANCH  14  21
ATOM     21  C   UNL     1      -0.900   1.798  24.894  0.00  0.00    +0.269 C 
ATOM     22  O   UNL     1      -0.844   1.666  25.706  0.00  0.00    -0.271 OA
ATOM     23  N   UNL     1      -1.414   2.375  24.605  0.00  0.00    -0.195 NA
BRANCH  23  24
ATOM     24  C   UNL     1      -1.872   2.819  25.127  0.00  0.00    +0.179 C 
BRANCH  24  32
ATOM     32  C   UNL     1      -1.593   3.545  25.405  0.00  0.00    +0.281 C 
ATOM     33  N   UNL     1      -1.571   3.695  26.216  0.00  0.00    -0.086 NA
ATOM     34  O   UNL     1      -1.338   4.120  24.871  0.00  0.00    -0.270 OA
ENDBRANCH  24  32
BRANCH  24  25
ATOM     25  C   UNL     1      -2.607   2.539  25.372  0.00  0.00    +0.057 C 
BRANCH  25  26
ATOM     26  C   UNL     1      -3.292   2.776  24.977  0.00  0.00    -0.020 A 
ATOM     27  C   UNL     1      -3.426   2.532  24.201  0.00  0.00    -0.004 A 
ATOM     28  C   UNL     1      -4.110   2.769  23.807  0.00  0.00    -0.000 A 
ATOM     29  C   UNL     1      -4.661   3.250  24.188  0.00  0.00    -0.000 A 
ATOM     30  C   UNL     1      -4.527   3.494  24.965  0.00  0.00    -0.000 A 
ATOM     31  C   UNL     1      -3.842   3.257  25.360  0.00  0.00    -0.004 A 
ENDBRANCH  25  26
ENDBRANCH  24  25
ENDBRANCH  23  24
ENDBRANCH  14  21
TORSDOF 8
ENDMDL
MODEL 4
REMARK VINA RESULT:     -11.6      1.858      3.491
REMARK  Name = 
REMARK  8 active torsions:
REMARK  status: ('A' for Active; 'I' for Inactive)
REMARK    1  A    between atoms: C_2  and  C_4
REMARK    2  A    between atoms: C_7  and  N_8
REMARK    3  A    between atoms: N_11  and  C_12
REMARK    4  A    between atoms: C_14  and  C_21
REMARK    5  A    between atoms: N_23  and  C_24
REMARK    6  A    between atoms: C_24  and  C_25
REMARK    7  A    between atoms: C_24  and  C_32
REMARK    8  A    between atoms: C_25  and  C_26
REMARK                            x       y       z     vdW  Elec       q    Type
REMARK                         _______ _______ _______ _____ _____    ______ ____
ROOT
ATOM     12  C   UNL     1      -0.347   0.838  25.059  0.00  0.00    +0.133 C 
ATOM     13  C   UNL     1      -0.859   1.317  25.494  0.00  0.00    +0.064 C 
ATOM     14  C   UNL     1      -0.839   2.137  25.397  0.00  0.00    +0.200 C 
ATOM     15  O   UNL     1      -1.436   2.074  25.963  0.00  0.00    -0.216 OA
ATOM     16  C   UNL     1      -0.306   2.476  24.865  0.00  0.00    +0.075 C 
ATOM     17  C   UNL     1       0.206   1.996  24.431  0.00  0.00    +0.187 C 
ATOM     18  O   UNL     1       0.738   2.335  23.900  0.00  0.00    -0.220 OA
ATOM     19  C   UNL     1       0.185   1.177  24.528  0.00  0.00    +0.202 C 
ATOM     20  O   UNL     1       0.697   0.697  24.094  0.00  0.00    -0.219 OA
ENDROOT
BRANCH  12  11
ATOM      8  N   UNL     1      -1.072  -1.221  25.060  0.00  0.00    -0.161 NA
ATOM      9  C   UNL     1      -1.051  -0.403  24.963  0.00  0.00    +0.344 C 
ATOM     10  O   UNL     1      -1.712  -0.004  24.673  0.00  0.00    -0.249 OA
ATOM     11  N   UNL     1      -0.368   0.018  25.157  0.00  0.00    -0.186 NA
BRANCH   8   7
ATOM      4  C   UNL     1      -3.120  -2.484  24.479  0.00  0.00    +0.035 A 
ATOM      5  C   UNL     1      -2.435  -2.580  24.030  0.00  0.00    +0.004 A 
ATOM      6  C   UNL     1      -1.752  -2.159  24.224  0.00  0.00    +0.017 A 
ATOM      7  C   UNL     1      -1.755  -1.642  24.867  0.00  0.00    +0.075 A 
ATOM     35  C   UNL     1      -2.440  -1.546  25.316  0.00  0.00    +0.017 A 
ATOM     36  C   UNL     1      -3.122  -1.966  25.123  0.00  0.00    +0.004 A 
BRANCH   4   2
ATOM      1  C   UNL     1      -4.387  -2.553  23.821  0.00  0.00    +0.077 C 
ATOM      2  C   UNL     1      -3.803  -2.905  24.286  0.00  0.00    +0.173 C 
ATOM      3  O   UNL     1      -3.902  -3.677  24.558  0.00  0.00    -0.291 OA
ENDBRANCH   4   2
ENDBRANCH   8   7
ENDBRANCH  12  11
BRANCH  14  21
ATOM     21  C   UNL     1      -1.025   2.934  25.496  0.00  0.00    +0.269 C 
ATOM     22  O   UNL     1      -0.545   3.415  25.963  0.00  0.00    -0.271 OA
ATOM     23  N   UNL     1      -1.693   3.250  25.129  0.00  0.00    -0.195 NA
BRANCH  23  24
ATOM     24  C   UNL     1      -1.880   4.047  25.228  0.00  0.00    +0.179 C 
BRANCH  24  32
ATOM     32  C   UNL     1      -1.460   4.624  24.812  0.00  0.00    +0.281 C 
ATOM     33  N   UNL     1      -1.127   5.261  25.216  0.00  0.00    -0.086 NA
ATOM     34  O   UNL     1      -1.375   4.562  23.994  0.00  0.00    -0.270 OA
ENDBRANCH  24  32
BRANCH  24  25
ATOM     25  C   UNL     1      -2.486   4.268  25.741  0.00  0.00    +0.057 C 
BRANCH  25  26
ATOM     26  C   UNL     1      -3.268   4.069  25.567  0.00  0.00    -0.020 A 
ATOM     27  C   UNL     1      -3.540   4.106  24.789  0.00  0.00    -0.004 A 
ATOM     28  C   UNL     1      -4.321   3.908  24.615  0.00  0.00    -0.000 A 
ATOM     29  C   UNL     1      -4.831   3.671  25.219  0.00  0.00    -0.000 A 
ATOM     30  C   UNL     1      -4.560   3.634  25.997  0.00  0.00    -0.000 A 
ATOM     31  C   UNL     1      -3.777   3.833  26.171  0.00  0.00    -0.004 A 
ENDBRANCH  25  26
ENDBRANCH  24  25
ENDBRANCH  23  24
ENDBRANCH  14  21
TORSDOF 8
ENDMDL
