MODEL 1
REMARK VINA RESULT:     -10.9      0.000      0.000
REMARK  Name = 
REMARK  4 active torsions:
REMARK  status: ('A' for Active; 'I' for Inactive)
REMARK    1  A    between atoms: C_2  and  C_3
REMARK    2  A    between atoms: C_10  and  C_12
REMARK    3  A    between atoms: N_15  and  C_16
REMARK    4  A    between atoms: C_16  and  C_17
REMARK                            x       y       z     vdW  Elec       q    Type
REMARK                         _______ _______ _______ _____ _____    ______ ____
ROOT
ATOM     12  C   UNL     1      -4.435   1.328  24.829  0.00  0.00    +0.076 C 
ATOM     13  C   UNL     1      -5.176   1.648  24.999  0.00  0.00    +0.026 C 
ATOM     14  C   UNL     1      -5.131   2.466  24.898  0.00  0.00    +0.073 C 
ATOM     15  N   UNL     1      -4.361   2.651  24.665  0.00  0.00    -0.267 NA
ATOM     23  C   UNL     1      -3.932   1.947  24.622  0.00  0.00    +0.080 C 
ENDROOT
BRANCH  12  10
ATOM      3  C   UNL     1      -3.731  -2.140  24.584  0.00  0.00    +0.070 A 
ATOM      4  C   UNL     1      -4.062  -1.502  24.180  0.00  0.00    +0.031 A 
ATOM      5  C   UNL     1      -4.080  -0.755  24.530  0.00  0.00    +0.101 A 
ATOM      6  C   UNL     1      -3.766  -0.647  25.285  0.00  0.00    +0.100 A 
ATOM      7  C   UNL     1      -3.435  -1.285  25.690  0.00  0.00    +0.021 A 
ATOM      8  C   UNL     1      -3.417  -2.031  25.339  0.00  0.00    +0.012 A 
ATOM      9  N   UNL     1      -3.861   0.146  25.489  0.00  0.00    -0.229 NA
ATOM     10  C   UNL     1      -4.233   0.529  24.860  0.00  0.00    +0.140 A 
ATOM     11  N   UNL     1      -4.369  -0.029  24.268  0.00  0.00    -0.229 NA
BRANCH   3   2
ATOM      1  N   UNL     1      -3.696  -3.633  23.883  0.00  0.00    -0.191 NA
ATOM      2  C   UNL     1      -3.713  -2.886  24.233  0.00  0.00    +0.100 C 
ENDBRANCH   3   2
ENDBRANCH  12  10
BRANCH  15  16
ATOM     16  C   UNL     1      -4.072   3.406  24.503  0.00  0.00    +0.119 C 
BRANCH  16  17
ATOM     17  C   UNL     1      -3.434   3.705  24.933  0.00  0.00    +0.075 A 
ATOM     18  N   UNL     1      -2.676   3.701  24.604  0.00  0.00    -0.247 NA
ATOM     19  C   UNL     1      -2.040   4.000  25.034  0.00  0.00    +0.098 A 
ATOM     20  C   UNL     1      -2.158   4.303  25.792  0.00  0.00    +0.021 A 
ATOM     21  C   UNL     1      -2.916   4.307  26.120  0.00  0.00    +0.003 A 
ATOM     22  C   UNL     1      -3.554   4.008  25.691  0.00  0.00    +0.016 A 
ENDBRANCH  16  17
ENDBRANCH  15  16
TORSDOF 4
ENDMDL
MODEL 2
REMARK VINA RESULT:     -10.7      1.038      5.131
REMARK  Name = 
REMARK  4 active torsions:
REMARK  status: ('A' for Active; 'I' for Inactive)
REMARK    1  A    between atoms: C_2  and  C_3
REMARK    2  A    between atoms: C_10  and  C_12
REMARK    3  A    between atoms: N_15  and  C_16
REMARK    4  A    between atoms: C_16  and  C_17
REMARK                            x       y       z     vdW  Elec       q    Type
REMARK                         _______ _______ _______ _____ _____    ______ ____
ROOT
ATOM     12  C   UNL     1      -3.776   1.191  24.707  0.00  0.00    +0.076 C 
ATOM     13  C   UNL     1      -4.499   0.914  24.992  0.00  0.00    +0.026 C 
ATOM     14  C   UNL     1      -4.624   0.159  24.683  0.00  0.00    +0.073 C 
ATOM     15  N   UNL     1      -3.978  -0.030  24.206  0.00  0.00    -0.267 NA
ATOM     23  C   UNL     1      -3.454   0.608  24.221  0.00  0.00    +0.080 C 
ENDROOT
BRANCH  12  10
ATOM      3  C   UNL     1      -2.005   4.226  25.188  0.00  0.00    +0.070 A 
ATOM      4  C   UNL     1      -1.983   3.503  24.793  0.00  0.00    +0.031 A 
ATOM      5  C   UNL     1      -2.594   2.959  24.892  0.00  0.00    +0.101 A 
ATOM      6  C   UNL     1      -3.229   3.138  25.389  0.00  0.00    +0.100 A 
ATOM      7  C   UNL     1      -3.251   3.862  25.785  0.00  0.00    +0.021 A 
ATOM      8  C   UNL     1      -2.639   4.405  25.685  0.00  0.00    +0.012 A 
ATOM      9  N   UNL     1      -3.748   2.498  25.380  0.00  0.00    -0.229 NA
ATOM     10  C   UNL     1      -3.436   1.923  24.878  0.00  0.00    +0.140 A 
ATOM     11  N   UNL     1      -2.723   2.208  24.577  0.00  0.00    -0.229 NA
BRANCH   3   2
ATOM      1  N   UNL     1      -0.781   5.315  24.988  0.00  0.00    -0.191 NA
ATOM      2  C   UNL     1      -1.393   4.770  25.088  0.00  0.00    +0.100 C 
ENDBRANCH   3   2
ENDBRANCH  12  10
BRANCH  15  16
ATOM     16  C   UNL     1      -3.873  -0.733  23.788  0.00  0.00    +0.119 C 
BRANCH  16  17
ATOM     17  C   UNL     1      -3.505  -1.378  24.149  0.00  0.00    +0.075 A 
ATOM     18  N   UNL     1      -2.682  -1.398  24.218  0.00  0.00    -0.247 NA
ATOM     19  C   UNL     1      -2.316  -2.043  24.578  0.00  0.00    +0.098 A 
ATOM     20  C   UNL     1      -2.769  -2.667  24.870  0.00  0.00    +0.021 A 
ATOM     21  C   UNL     1      -3.591  -2.646  24.801  0.00  0.00    +0.003 A 
ATOM     22  C   UNL     1      -3.959  -2.002  24.440  0.00  0.00    +0.016 A 
ENDBRANCH  16  17
ENDBRANCH  15  16
TORSDOF 4
ENDMDL
MODEL 3
REMARK VINA RESULT:     -10.7      1.968      5.516
REMARK  Name = 
REMARK  4 active torsions:
REMARK  status: ('A' for Active; 'I' for Inactive)
REMARK    1  A    between atoms: C_2  and  C_3
REMARK    2  A    between atoms: C_10  and  C_12
REMARK    3  A    between atoms: N_15  and  C_16
REMARK    4  A    between atoms: C_16  and  C_17
REMARK                            x       y       z     vdW  Elec       q    Type
REMARK                         _______ _______ _______ _____ _____    ______ ____
ROOT
ATOM     12  C   UNL     1      -1.647   0.225  25.460  0.00  0.00    +0.076 C 
ATOM     13  C   UNL     1      -1.164  -0.428  25.316  0.00  0.00    +0.026 C 
ATOM     14  C   UNL     1      -1.626  -1.108  25.386  0.00  0.00    +0.073 C 
ATOM     15  N   UNL     1      -2.395  -0.875  25.574  0.00  0.00    -0.267 NA
ATOM     23  C   UNL     1      -2.407  -0.051  25.619  0.00  0.00    +0.080 C 
ENDROOT
BRANCH  12  10
ATOM      3  C   UNL     1      -1.016   3.711  25.286  0.00  0.00    +0.070 A 
ATOM      4  C   UNL     1      -1.600   3.139  25.179  0.00  0.00    +0.031 A 
ATOM      5  C   UNL     1      -1.426   2.342  25.308  0.00  0.00    +0.101 A 
ATOM      6  C   UNL     1      -0.668   2.119  25.545  0.00  0.00    +0.100 A 
ATOM      7  C   UNL     1      -0.083   2.692  25.652  0.00  0.00    +0.021 A 
ATOM      8  C   UNL     1      -0.258   3.488  25.522  0.00  0.00    +0.012 A 
ATOM      9  N   UNL     1      -0.658   1.299  25.630  0.00  0.00    -0.229 NA
ATOM     10  C   UNL     1      -1.410   1.015  25.447  0.00  0.00    +0.140 A 
ATOM     11  N   UNL     1      -1.884   1.660  25.248  0.00  0.00    -0.229 NA
BRANCH   3   2
ATOM      1  N   UNL     1      -1.364   5.303  25.027  0.00  0.00    -0.191 NA
ATOM      2  C   UNL     1      -1.190   4.506  25.156  0.00  0.00    +0.100 C 
ENDBRANCH   3   2
ENDBRANCH  12  10
BRANCH  15  16
ATOM     16  C   UNL     1      -3.038  -1.377  25.695  0.00  0.00    +0.119 C 
BRANCH  16  17
ATOM     17  C   UNL     1      -3.437  -1.700  25.048  0.00  0.00    +0.075 A 
ATOM     18  N   UNL     1      -3.952  -1.232  24.605  0.00  0.00    -0.247 NA
ATOM     19  C   UNL     1      -4.350  -1.556  23.959  0.00  0.00    +0.098 A 
ATOM     20  C   UNL     1      -4.235  -2.347  23.757  0.00  0.00    +0.021 A 
ATOM     21  C   UNL     1      -3.720  -2.815  24.201  0.00  0.00    +0.003 A 
ATOM     22  C   UNL     1      -3.321  -2.492  24.847  0.00  0.00    +0.016 A 
ENDBRANCH  16  17
ENDBRANCH  15  16
TORSDOF 4
ENDMDL
MODEL 4
REMARK VINA RESULT:     -10.6      2.126      2.823
REMARK  Name = 
REMARK  4 active torsions:
REMARK  status: ('A' for Active; 'I' for Inactive)
REMARK    1  A    between atoms: C_2  and  C_3
REMARK    2  A    between atoms: C_10  and  C_12
REMARK    3  A    between atoms: N_15  and  C_16
REMARK    4  A    between atoms: C_16  and  C_17
REMARK                            x       y       z     vdW  Elec       q    Type
REMARK                         _______ _______ _______ _____ _____    ______ ____
ROOT
ATOM     12  C   UNL     1      -0.746   0.937  24.904  0.00  0.00    +0.076 C 
ATOM     13  C   UNL     1      -0.181   1.255  24.394  0.00  0.00    +0.026 C 
ATOM     14  C   UNL     1       0.016   2.008  24.667  0.00  0.00    +0.073 C 
ATOM     15  N   UNL     1      -0.428   2.156  25.346  0.00  0.00    -0.267 NA
ATOM     23  C   UNL     1      -0.899   1.494  25.493  0.00  0.00    +0.080 C 
ENDROOT
BRANCH  12  10
ATOM      3  C   UNL     1      -2.612  -2.060  24.560  0.00  0.00    +0.070 A 
ATOM      4  C   UNL     1      -2.675  -1.238  24.559  0.00  0.00    +0.031 A 
ATOM      5  C   UNL     1      -2.004  -0.772  24.676  0.00  0.00    +0.101 A 
ATOM      6  C   UNL     1      -1.270  -1.129  24.793  0.00  0.00    +0.100 A 
ATOM      7  C   UNL     1      -1.206  -1.952  24.794  0.00  0.00    +0.021 A 
ATOM      8  C   UNL     1      -1.877  -2.417  24.677  0.00  0.00    +0.012 A 
ATOM      9  N   UNL     1      -0.709  -0.532  24.893  0.00  0.00    -0.229 NA
ATOM     10  C   UNL     1      -1.097   0.193  24.837  0.00  0.00    +0.140 A 
ATOM     11  N   UNL     1      -1.897   0.045  24.703  0.00  0.00    -0.229 NA
BRANCH   3   2
ATOM      1  N   UNL     1      -3.953  -2.992  24.326  0.00  0.00    -0.191 NA
ATOM      2  C   UNL     1      -3.282  -2.526  24.443  0.00  0.00    +0.100 C 
ENDBRANCH   3   2
ENDBRANCH  12  10
BRANCH  15  16
ATOM     16  C   UNL     1      -0.405   2.844  25.800  0.00  0.00    +0.119 C 
BRANCH  16  17
ATOM     17  C   UNL     1      -0.914   3.471  25.626  0.00  0.00    +0.075 A 
ATOM     18  N   UNL     1      -1.688   3.466  25.915  0.00  0.00    -0.247 NA
ATOM     19  C   UNL     1      -2.195   4.092  25.741  0.00  0.00    +0.098 A 
ATOM     20  C   UNL     1      -1.932   4.722  25.279  0.00  0.00    +0.021 A 
ATOM     21  C   UNL     1      -1.158   4.727  24.990  0.00  0.00    +0.003 A 
ATOM     22  C   UNL     1      -0.649   4.101  25.164  0.00  0.00    +0.016 A 
ENDBRANCH  16  17
ENDBRANCH  15  16
TORSDOF 4
ENDMDL
