MODEL 1
REMARK VINA RESULT:     -10.8      0.000      0.000
REMARK  Name = 
REMARK  5 active torsions:
REMARK  status: ('A' for Active; 'I' for Inactive)
REMARK    1  A    between atoms: O_2  and  C_3
REMARK    2  A    between atoms: C_6  and  C_7
REMARK    3  A    between atoms: C_7  and  N_8
REMARK    4  A    between atoms: C_13  and  O_15
REMARK    5  A    between atoms: O_15  and  C_16
REMARK                            x       y       z     vdW  Elec       q    Type
REMARK                         _______ _______ _______ _____ _____    ______ ____
ROOT
ATOM      8  N   UNL     1      -3.308   1.188  24.154  0.00  0.00    -0.264 NA
ATOM      9  C   UNL     1      -3.254   1.129  23.333  0.00  0.00    +0.105 C 
ATOM     10  C   UNL     1      -2.696   1.466  22.828  0.00  0.00    +0.160 C 
ATOM     11  O   UNL     1      -2.053   1.947  23.020  0.00  0.00    -0.348 OA
ATOM     12  C   UNL     1      -1.811   2.209  23.764  0.00  0.00    +0.187 C 
ATOM     13  C   UNL     1      -2.151   2.054  24.499  0.00  0.00    +0.213 C 
ATOM     14  C   UNL     1      -2.817   1.600  24.673  0.00  0.00    +0.119 C 
ENDROOT
BRANCH   8   7
ATOM      7  C   UNL     1      -3.936   0.782  24.501  0.00  0.00    +0.099 C 
BRANCH   7   6
ATOM      3  C   UNL     1      -3.739  -1.641  24.966  0.00  0.00    +0.139 A 
ATOM      4  C   UNL     1      -3.505  -1.091  25.534  0.00  0.00    +0.037 A 
ATOM      5  C   UNL     1      -3.570  -0.284  25.380  0.00  0.00    +0.000 A 
ATOM      6  C   UNL     1      -3.871  -0.026  24.656  0.00  0.00    -0.006 A 
ATOM     23  C   UNL     1      -4.106  -0.576  24.087  0.00  0.00    +0.000 A 
ATOM     24  C   UNL     1      -4.040  -1.382  24.242  0.00  0.00    +0.037 A 
BRANCH   3   2
ATOM      1  C   UNL     1      -3.321  -2.948  24.566  0.00  0.00    +0.252 C 
ATOM      2  O   UNL     1      -3.674  -2.449  25.120  0.00  0.00    -0.471 OA
ENDBRANCH   3   2
ENDBRANCH   7   6
ENDBRANCH   8   7
BRANCH  13  15
ATOM     15  O   UNL     1      -1.774   2.400  25.147  0.00  0.00    -0.460 OA
BRANCH  15  16
ATOM     16  C   UNL     1      -1.894   3.199  25.315  0.00  0.00    +0.225 A 
ATOM     17  C   UNL     1      -2.535   3.431  25.780  0.00  0.00    +0.058 A 
ATOM     18  C   UNL     1      -2.655   4.230  25.947  0.00  0.00    +0.006 A 
ATOM     19  C   UNL     1      -2.134   4.797  25.650  0.00  0.00    +0.015 A 
ATOM     20  C   UNL     1      -1.493   4.565  25.186  0.00  0.00    +0.062 A 
ATOM     21  C   UNL     1      -0.972   5.131  24.889  0.00  0.00    +0.052 C 
ATOM     22  N   UNL     1      -1.373   3.765  25.018  0.00  0.00    -0.216 NA
ENDBRANCH  15  16
ENDBRANCH  13  15
TORSDOF 5
ENDMDL
MODEL 2
REMARK VINA RESULT:     -10.7      1.447      1.965
REMARK  Name = 
REMARK  5 active torsions:
REMARK  status: ('A' for Active; 'I' for Inactive)
REMARK    1  A    between atoms: O_2  and  C_3
REMARK    2  A    between atoms: C_6  and  C_7
REMARK    3  A    between atoms: C_7  and  N_8
REMARK    4  A    between atoms: C_13  and  O_15
REMARK    5  A    between atoms: O_15  and  C_16
REMARK                            x       y       z     vdW  Elec       q    Type
REMARK                         _______ _______ _______ _____ _____    ______ ____
ROOT
ATOM      8  N   UNL     1      -4.753   1.820  24.739  0.00  0.00    -0.264 NA
ATOM      9  C   UNL     1      -5.293   1.964  25.347  0.00  0.00    +0.105 C 
ATOM     10  C   UNL     1      -5.359   2.631  25.827  0.00  0.00    +0.160 C 
ATOM     11  O   UNL     1      -4.904   3.319  25.820  0.00  0.00    -0.348 OA
ATOM     12  C   UNL     1      -4.268   3.508  25.329  0.00  0.00    +0.187 C 
ATOM     13  C   UNL     1      -3.932   3.058  24.725  0.00  0.00    +0.213 C 
ATOM     14  C   UNL     1      -4.148   2.307  24.463  0.00  0.00    +0.119 C 
ENDROOT
BRANCH   8   7
ATOM      7  C   UNL     1      -4.831   1.092  24.359  0.00  0.00    +0.099 C 
BRANCH   7   6
ATOM      3  C   UNL     1      -3.379  -0.805  25.006  0.00  0.00    +0.139 A 
ATOM      4  C   UNL     1      -3.929  -0.505  25.542  0.00  0.00    +0.037 A 
ATOM      5  C   UNL     1      -4.413   0.127  25.326  0.00  0.00    +0.000 A 
ATOM      6  C   UNL     1      -4.347   0.460  24.574  0.00  0.00    -0.006 A 
ATOM     23  C   UNL     1      -3.795   0.159  24.038  0.00  0.00    +0.000 A 
ATOM     24  C   UNL     1      -3.312  -0.472  24.253  0.00  0.00    +0.037 A 
BRANCH   3   2
ATOM      1  C   UNL     1      -3.080  -2.203  24.974  0.00  0.00    +0.252 C 
ATOM      2  O   UNL     1      -2.895  -1.437  25.222  0.00  0.00    -0.471 OA
ENDBRANCH   3   2
ENDBRANCH   7   6
ENDBRANCH   8   7
BRANCH  13  15
ATOM     15  O   UNL     1      -3.295   3.405  24.331  0.00  0.00    -0.460 OA
BRANCH  15  16
ATOM     16  C   UNL     1      -2.575   3.503  24.720  0.00  0.00    +0.225 A 
ATOM     17  C   UNL     1      -2.405   4.215  25.101  0.00  0.00    +0.058 A 
ATOM     18  C   UNL     1      -1.684   4.312  25.490  0.00  0.00    +0.006 A 
ATOM     19  C   UNL     1      -1.132   3.698  25.498  0.00  0.00    +0.015 A 
ATOM     20  C   UNL     1      -1.302   2.987  25.117  0.00  0.00    +0.062 A 
ATOM     21  C   UNL     1      -0.751   2.373  25.125  0.00  0.00    +0.052 C 
ATOM     22  N   UNL     1      -2.023   2.890  24.728  0.00  0.00    -0.216 NA
ENDBRANCH  15  16
ENDBRANCH  13  15
TORSDOF 5
ENDMDL
MODEL 3
REMARK VINA RESULT:     -10.5      1.550      1.940
REMARK  Name = 
REMARK  5 active torsions:
REMARK  status: ('A' for Active; 'I' for Inactive)
REMARK    1  A    between atoms: O_2  and  C_3
REMARK    2  A    between atoms: C_6  and  C_7
REMARK    3  A    between atoms: C_7  and  N_8
REMARK    4  A    between atoms: C_13  and  O_15
REMARK    5  A    between atoms: O_15  and  C_16
REMARK                            x       y       z     vdW  Elec       q    Type
REMARK                         _______ _______ _______ _____ _____    ______ ____
ROOT
ATOM      8  N   UNL     1      -0.961   0.362  25.270  0.00  0.00    -0.264 NA
ATOM      9  C   UNL     1      -0.640   0.122  24.548  0.00  0.00    +0.105 C 
ATOM     10  C   UNL     1      -0.168   0.552  24.026  0.00  0.00    +0.160 C 
ATOM     11  O   UNL     1       0.100   1.329  24.097  0.00  0.00    -0.348 OA
ATOM     12  C   UNL     1      -0.038   1.867  24.707  0.00  0.00    +0.187 C 
ATOM     13  C   UNL     1      -0.478   1.761  25.397  0.00  0.00    +0.213 C 
ATOM     14  C   UNL     1      -0.888   1.091  25.647  0.00  0.00    +0.119 C 
ENDROOT
BRANCH   8   7
ATOM      7  C   UNL     1      -1.413  -0.203  25.665  0.00  0.00    +0.099 C 
BRANCH   7   6
ATOM      3  C   UNL     1      -3.536  -1.004  24.677  0.00  0.00    +0.139 A 
ATOM      4  C   UNL     1      -3.515  -0.289  25.086  0.00  0.00    +0.037 A 
ATOM      5  C   UNL     1      -2.809  -0.022  25.415  0.00  0.00    +0.000 A 
ATOM      6  C   UNL     1      -2.121  -0.470  25.336  0.00  0.00    -0.006 A 
ATOM     23  C   UNL     1      -2.141  -1.187  24.926  0.00  0.00    +0.000 A 
ATOM     24  C   UNL     1      -2.848  -1.453  24.597  0.00  0.00    +0.037 A 
BRANCH   3   2
ATOM      1  C   UNL     1      -4.249  -1.949  23.875  0.00  0.00    +0.252 C 
ATOM      2  O   UNL     1      -4.244  -1.271  24.347  0.00  0.00    -0.471 OA
ENDBRANCH   3   2
ENDBRANCH   7   6
ENDBRANCH   8   7
BRANCH  13  15
ATOM     15  O   UNL     1      -0.511   2.412  25.903  0.00  0.00    -0.460 OA
BRANCH  15  16
ATOM     16  C   UNL     1      -0.940   3.082  25.685  0.00  0.00    +0.225 A 
ATOM     17  C   UNL     1      -0.571   3.688  25.263  0.00  0.00    +0.058 A 
ATOM     18  C   UNL     1      -1.001   4.358  25.044  0.00  0.00    +0.006 A 
ATOM     19  C   UNL     1      -1.798   4.422  25.249  0.00  0.00    +0.015 A 
ATOM     20  C   UNL     1      -2.166   3.817  25.671  0.00  0.00    +0.062 A 
ATOM     21  C   UNL     1      -2.962   3.882  25.876  0.00  0.00    +0.052 C 
ATOM     22  N   UNL     1      -1.736   3.147  25.889  0.00  0.00    -0.216 NA
ENDBRANCH  15  16
ENDBRANCH  13  15
TORSDOF 5
ENDMDL
MODEL 4
REMARK VINA RESULT:     -10.5      1.621      4.491
REMARK  Name = 
REMARK  5 active torsions:
REMARK  status: ('A' for Active; 'I' for Inactive)
REMARK    1  A    between atoms: O_2  and  C_3
REMARK    2  A    between atoms: C_6  and  C_7
REMARK    3  A    between atoms: C_7  and  N_8
REMARK    4  A    between atoms: C_13  and  O_15
REMARK    5  A    between atoms: O_15  and  C_16
REMARK                            x       y       z     vdW  Elec       q    Type
REMARK                         _______ _______ _______ _____ _____    ______ ____
ROOT
ATOM      8  N   UNL     1      -4.023   3.071  24.874  0.00  0.00    -0.264 NA
ATOM      9  C   UNL     1      -4.565   3.361  25.424  0.00  0.00    +0.105 C 
ATOM     10  C   UNL     1      -5.204   2.971  25.771  0.00  0.00    +0.160 C 
ATOM     11  O   UNL     1      -5.459   2.195  25.654  0.00  0.00    -0.348 OA
ATOM     12  C   UNL     1      -5.136   1.618  25.161  0.00  0.00    +0.187 C 
ATOM     13  C   UNL     1      -4.481   1.673  24.663  0.00  0.00    +0.213 C 
ATOM     14  C   UNL     1      -3.986   2.320  24.536  0.00  0.00    +0.119 C 
ENDROOT
BRANCH   8   7
ATOM      7  C   UNL     1      -3.441   3.603  24.631  0.00  0.00    +0.099 C 
BRANCH   7   6
ATOM      3  C   UNL     1      -1.137   3.408  25.512  0.00  0.00    +0.139 A 
ATOM      4  C   UNL     1      -1.284   3.285  24.710  0.00  0.00    +0.037 A 
ATOM      5  C   UNL     1      -2.051   3.350  24.417  0.00  0.00    +0.000 A 
ATOM      6  C   UNL     1      -2.673   3.538  24.925  0.00  0.00    -0.006 A 
ATOM     23  C   UNL     1      -2.526   3.661  25.728  0.00  0.00    +0.000 A 
ATOM     24  C   UNL     1      -1.759   3.597  26.021  0.00  0.00    +0.037 A 
BRANCH   3   2
ATOM      1  C   UNL     1      -0.093   2.616  26.084  0.00  0.00    +0.252 C 
ATOM      2  O   UNL     1      -0.368   3.343  25.806  0.00  0.00    -0.471 OA
ENDBRANCH   3   2
ENDBRANCH   7   6
ENDBRANCH   8   7
BRANCH  13  15
ATOM     15  O   UNL     1      -4.297   0.991  24.237  0.00  0.00    -0.460 OA
BRANCH  15  16
ATOM     16  C   UNL     1      -3.894   0.372  24.604  0.00  0.00    +0.225 A 
ATOM     17  C   UNL     1      -4.304  -0.160  25.084  0.00  0.00    +0.058 A 
ATOM     18  C   UNL     1      -3.901  -0.779  25.451  0.00  0.00    +0.006 A 
ATOM     19  C   UNL     1      -3.088  -0.867  25.339  0.00  0.00    +0.015 A 
ATOM     20  C   UNL     1      -2.678  -0.336  24.860  0.00  0.00    +0.062 A 
ATOM     21  C   UNL     1      -1.866  -0.423  24.747  0.00  0.00    +0.052 C 
ATOM     22  N   UNL     1      -3.082   0.284  24.492  0.00  0.00    -0.216 NA
ENDBRANCH  15  16
ENDBRANCH  13  15
TORSDOF 5
ENDMDL
MODEL 5
REMARK VINA RESULT:     -10.5      1.669      4.310
REMARK  Name = 
REMARK  5 active torsions:
REMARK  status: ('A' for Active; 'I' for Inactive)
REMARK    1  A    between atoms: O_2  and  C_3
REMARK    2  A    between atoms: C_6  and  C_7
REMARK    3  A    between atoms: C_7  and  N_8
REMARK    4  A    between atoms: C_13  and  O_15
REMARK    5  A    between atoms: O_15  and  C_16
REMARK                            x       y       z     vdW  Elec       q    Type
REMARK                         _______ _______ _______ _____ _____    ______ ____
ROOT
ATOM      8  N   UNL     1      -1.707   2.289  24.769  0.00  0.00    -0.264 NA
ATOM      9  C   UNL     1      -1.215   2.584  25.362  0.00  0.00    +0.105 C 
ATOM     10  C   UNL     1      -0.704   2.170  25.860  0.00  0.00    +0.160 C 
ATOM     11  O   UNL     1      -0.559   1.358  25.888  0.00  0.00    -0.348 OA
ATOM     12  C   UNL     1      -0.889   0.761  25.425  0.00  0.00    +0.187 C 
ATOM     13  C   UNL     1      -1.446   0.827  24.820  0.00  0.00    +0.213 C 
ATOM     14  C   UNL     1      -1.809   1.507  24.528  0.00  0.00    +0.119 C 
ENDROOT
BRANCH   8   7
ATOM      7  C   UNL     1      -2.155   2.851  24.364  0.00  0.00    +0.099 C 
BRANCH   7   6
ATOM      3  C   UNL     1      -4.438   3.408  25.140  0.00  0.00    +0.139 A 
ATOM      4  C   UNL     1      -3.784   3.621  25.594  0.00  0.00    +0.037 A 
ATOM      5  C   UNL     1      -3.024   3.436  25.336  0.00  0.00    +0.000 A 
ATOM      6  C   UNL     1      -2.916   3.036  24.622  0.00  0.00    -0.006 A 
ATOM     23  C   UNL     1      -3.571   2.822  24.167  0.00  0.00    +0.000 A 
ATOM     24  C   UNL     1      -4.331   3.008  24.425  0.00  0.00    +0.037 A 
BRANCH   3   2
ATOM      1  C   UNL     1      -5.674   3.009  25.738  0.00  0.00    +0.252 C 
ATOM      2  O   UNL     1      -5.199   3.593  25.398  0.00  0.00    -0.471 OA
ENDBRANCH   3   2
ENDBRANCH   7   6
ENDBRANCH   8   7
BRANCH  13  15
ATOM     15  O   UNL     1      -1.667   0.119  24.459  0.00  0.00    -0.460 OA
BRANCH  15  16
ATOM     16  C   UNL     1      -2.291  -0.323  24.768  0.00  0.00    +0.225 A 
ATOM     17  C   UNL     1      -2.212  -0.689  25.504  0.00  0.00    +0.058 A 
ATOM     18  C   UNL     1      -2.837  -1.131  25.813  0.00  0.00    +0.006 A 
ATOM     19  C   UNL     1      -3.539  -1.207  25.387  0.00  0.00    +0.015 A 
ATOM     20  C   UNL     1      -3.618  -0.842  24.652  0.00  0.00    +0.062 A 
ATOM     21  C   UNL     1      -4.321  -0.918  24.226  0.00  0.00    +0.052 C 
ATOM     22  N   UNL     1      -2.993  -0.400  24.343  0.00  0.00    -0.216 NA
ENDBRANCH  15  16
ENDBRANCH  13  15
TORSDOF 5
ENDMDL
MODEL 6
REMARK VINA RESULT:     -10.3      1.765      2.889
REMARK  Name = 
REMARK  5 active torsions:
REMARK  status: ('A' for Active; 'I' for Inactive)
REMARK    1  A    between atoms: O_2  and  C_3
REMARK    2  A    between atoms: C_6  and  C_7
REMARK    3  A    between atoms: C_7  and  N_8
REMARK    4  A    between atoms: C_13  and  O_15
REMARK    5  A    between atoms: O_15  and  C_16
REMARK                            x       y       z     vdW  Elec       q    Type
REMARK                         _______ _______ _______ _____ _____    ______ ____
ROOT
ATOM      8  N   UNL     1      -2.857   0.291  24.521  0.00  0.00    -0.264 NA
ATOM      9  C   UNL     1      -2.954  -0.352  25.029  0.00  0.00    +0.105 C 
ATOM     10  C   UNL     1      -2.402  -0.694  25.538  0.00  0.00    +0.160 C 
ATOM     11  O   UNL     1      -1.616  -0.477  25.665  0.00  0.00    -0.348 OA
ATOM     12  C   UNL     1      -1.189   0.136  25.315  0.00  0.00    +0.187 C 
ATOM     13  C   UNL     1      -1.442   0.682  24.751  0.00  0.00    +0.213 C 
ATOM     14  C   UNL     1      -2.184   0.751  24.398  0.00  0.00    +0.119 C 
ENDROOT
BRANCH   8   7
ATOM      7  C   UNL     1      -3.521   0.501  24.080  0.00  0.00    +0.099 C 
BRANCH   7   6
ATOM      3  C   UNL     1      -5.148   2.130  24.988  0.00  0.00    +0.139 A 
ATOM      4  C   UNL     1      -5.126   1.360  25.283  0.00  0.00    +0.037 A 
ATOM      5  C   UNL     1      -4.584   0.818  24.980  0.00  0.00    +0.000 A 
ATOM      6  C   UNL     1      -4.063   1.044  24.383  0.00  0.00    -0.006 A 
ATOM     23  C   UNL     1      -4.085   1.815  24.087  0.00  0.00    +0.000 A 
ATOM     24  C   UNL     1      -4.627   2.357  24.389  0.00  0.00    +0.037 A 
BRANCH   3   2
ATOM      1  C   UNL     1      -5.424   3.365  25.652  0.00  0.00    +0.252 C 
ATOM      2  O   UNL     1      -5.691   2.673  25.291  0.00  0.00    -0.471 OA
ENDBRANCH   3   2
ENDBRANCH   7   6
ENDBRANCH   8   7
BRANCH  13  15
ATOM     15  O   UNL     1      -0.876   1.233  24.508  0.00  0.00    -0.460 OA
BRANCH  15  16
ATOM     16  C   UNL     1      -0.723   1.897  24.971  0.00  0.00    +0.225 A 
ATOM     17  C   UNL     1      -0.264   1.826  25.654  0.00  0.00    +0.058 A 
ATOM     18  C   UNL     1      -0.110   2.491  26.118  0.00  0.00    +0.006 A 
ATOM     19  C   UNL     1      -0.415   3.226  25.900  0.00  0.00    +0.015 A 
ATOM     20  C   UNL     1      -0.874   3.297  25.219  0.00  0.00    +0.062 A 
ATOM     21  C   UNL     1      -1.179   4.032  25.001  0.00  0.00    +0.052 C 
ATOM     22  N   UNL     1      -1.027   2.632  24.754  0.00  0.00    -0.216 NA
ENDBRANCH  15  16
ENDBRANCH  13  15
TORSDOF 5
ENDMDL
MODEL 7
REMARK VINA RESULT:     -10.3      1.683      4.811
REMARK  Name = 
REMARK  5 active torsions:
REMARK  status: ('A' for Active; 'I' for Inactive)
REMARK    1  A    between atoms: O_2  and  C_3
REMARK    2  A    between atoms: C_6  and  C_7
REMARK    3  A    between atoms: C_7  and  N_8
REMARK    4  A    between atoms: C_13  and  O_15
REMARK    5  A    between atoms: O_15  and  C_16
REMARK                            x       y       z     vdW  Elec       q    Type
REMARK                         _______ _______ _______ _____ _____    ______ ____
ROOT
ATOM      8  N   UNL     1      -0.609   1.231  25.337  0.00  0.00    -0.264 NA
ATOM      9  C   UNL     1      -0.130   1.239  24.664  0.00  0.00    +0.105 C 
ATOM     10  C   UNL     1      -0.095   0.688  24.051  0.00  0.00    +0.160 C 
ATOM     11  O   UNL     1      -0.529  -0.007  23.959  0.00  0.00    -0.348 OA
ATOM     12  C   UNL     1      -1.106  -0.323  24.458  0.00  0.00    +0.187 C 
ATOM     13  C   UNL     1      -1.390  -0.021  25.171  0.00  0.00    +0.213 C 
ATOM     14  C   UNL     1      -1.169   0.670  25.562  0.00  0.00    +0.119 C 
ENDROOT
BRANCH   8   7
ATOM      7  C   UNL     1      -0.513   1.869  25.851  0.00  0.00    +0.099 C 
BRANCH   7   6
ATOM      3  C   UNL     1      -1.515   4.065  25.303  0.00  0.00    +0.139 A 
ATOM      4  C   UNL     1      -1.939   3.518  25.752  0.00  0.00    +0.037 A 
ATOM      5  C   UNL     1      -1.605   2.787  25.934  0.00  0.00    +0.000 A 
ATOM      6  C   UNL     1      -0.847   2.601  25.669  0.00  0.00    -0.006 A 
ATOM     23  C   UNL     1      -0.422   3.148  25.219  0.00  0.00    +0.000 A 
ATOM     24  C   UNL     1      -0.756   3.879  25.037  0.00  0.00    +0.037 A 
BRANCH   3   2
ATOM      1  C   UNL     1      -1.365   5.459  25.026  0.00  0.00    +0.252 C 
ATOM      2  O   UNL     1      -1.849   4.797  25.121  0.00  0.00    -0.471 OA
ENDBRANCH   3   2
ENDBRANCH   7   6
ENDBRANCH   8   7
BRANCH  13  15
ATOM     15  O   UNL     1      -1.974  -0.472  25.543  0.00  0.00    -0.460 OA
BRANCH  15  16
ATOM     16  C   UNL     1      -2.710  -0.568  25.184  0.00  0.00    +0.225 A 
ATOM     17  C   UNL     1      -2.879  -1.261  24.769  0.00  0.00    +0.058 A 
ATOM     18  C   UNL     1      -3.616  -1.357  24.410  0.00  0.00    +0.006 A 
ATOM     19  C   UNL     1      -4.184  -0.761  24.466  0.00  0.00    +0.015 A 
ATOM     20  C   UNL     1      -4.015  -0.068  24.881  0.00  0.00    +0.062 A 
ATOM     21  C   UNL     1      -4.582   0.528  24.937  0.00  0.00    +0.052 C 
ATOM     22  N   UNL     1      -3.278   0.028  25.240  0.00  0.00    -0.216 NA
ENDBRANCH  15  16
ENDBRANCH  13  15
TORSDOF 5
ENDMDL
