MODEL 1
REMARK VINA RESULT:     -10.7      0.000      0.000
REMARK  Name = 
REMARK  8 active torsions:
REMARK  status: ('A' for Active; 'I' for Inactive)
REMARK    1  A    between atoms: O_2  and  C_3
REMARK    2  A    between atoms: C_3  and  C_4
REMARK    3  A    between atoms: C_4  and  O_5
REMARK    4  A    between atoms: O_5  and  C_6
REMARK    5  A    between atoms: C_8  and  C_12
REMARK    6  A    between atoms: C_15  and  C_17
REMARK    7  A    between atoms: N_21  and  C_22
REMARK    8  A    between atoms: C_22  and  C_23
REMARK                            x       y       z     vdW  Elec       q    Type
REMARK                         _______ _______ _______ _____ _____    ______ ____
ROOT
ATOM     12  C   UNL     1      -3.113   3.351  24.723  0.00  0.00    +0.204 A 
ATOM     13  N   UNL     1      -3.583   3.533  24.068  0.00  0.00    -0.056 NA
ATOM     14  O   UNL     1      -4.254   3.054  24.094  0.00  0.00    -0.336 OA
ATOM     15  C   UNL     1      -4.199   2.575  24.764  0.00  0.00    +0.251 A 
ATOM     16  N   UNL     1      -3.494   2.759  25.152  0.00  0.00    -0.190 NA
ENDROOT
BRANCH  12   8
ATOM      6  C   UNL     1      -0.986   3.585  25.152  0.00  0.00    +0.225 A 
ATOM      7  C   UNL     1      -1.709   3.236  24.961  0.00  0.00    +0.061 A 
ATOM      8  C   UNL     1      -2.390   3.700  24.913  0.00  0.00    +0.045 A 
ATOM      9  C   UNL     1      -2.349   4.511  25.055  0.00  0.00    +0.024 A 
ATOM     10  C   UNL     1      -1.625   4.859  25.245  0.00  0.00    +0.102 A 
ATOM     11  N   UNL     1      -0.944   4.397  25.294  0.00  0.00    -0.210 NA
BRANCH   6   5
ATOM      5  O   UNL     1      -0.305   3.122  25.200  0.00  0.00    -0.457 OA
BRANCH   5   4
ATOM      4  C   UNL     1      -0.069   2.665  24.555  0.00  0.00    +0.239 C 
BRANCH   4   3
ATOM      3  C   UNL     1       0.441   2.026  24.668  0.00  0.00    +0.189 C 
BRANCH   3   2
ATOM      1  C   UNL     1       0.987   1.079  23.747  0.00  0.00    +0.174 C 
ATOM      2  O   UNL     1       0.992   1.831  24.086  0.00  0.00    -0.347 OA
ENDBRANCH   3   2
ENDBRANCH   4   3
ENDBRANCH   5   4
ENDBRANCH   6   5
ENDBRANCH  12   8
BRANCH  15  17
ATOM     17  C   UNL     1      -4.752   2.012  25.004  0.00  0.00    +0.138 C 
ATOM     18  C   UNL     1      -5.470   2.167  25.381  0.00  0.00    +0.027 C 
ATOM     19  C   UNL     1      -5.846   1.445  25.520  0.00  0.00    +0.019 C 
ATOM     20  C   UNL     1      -5.360   0.845  25.229  0.00  0.00    +0.073 C 
ATOM     21  N   UNL     1      -4.684   1.195  24.910  0.00  0.00    -0.266 NA
BRANCH  21  22
ATOM     22  C   UNL     1      -4.052   0.798  24.560  0.00  0.00    +0.072 C 
BRANCH  22  23
ATOM     23  C   UNL     1      -4.002  -0.023  24.610  0.00  0.00    +0.016 C 
ATOM     24  C   UNL     1      -3.674  -0.377  25.280  0.00  0.00    +0.001 C 
ATOM     25  C   UNL     1      -3.624  -1.198  25.330  0.00  0.00    +0.000 C 
ATOM     26  C   UNL     1      -3.902  -1.667  24.711  0.00  0.00    +0.000 C 
ATOM     27  C   UNL     1      -4.229  -1.315  24.041  0.00  0.00    +0.000 C 
ATOM     28  C   UNL     1      -4.280  -0.493  23.991  0.00  0.00    +0.001 C 
ENDBRANCH  22  23
ENDBRANCH  21  22
ENDBRANCH  15  17
TORSDOF 8
ENDMDL
MODEL 2
REMARK VINA RESULT:     -10.6      1.705      3.633
REMARK  Name = 
REMARK  8 active torsions:
REMARK  status: ('A' for Active; 'I' for Inactive)
REMARK    1  A    between atoms: O_2  and  C_3
REMARK    2  A    between atoms: C_3  and  C_4
REMARK    3  A    between atoms: C_4  and  O_5
REMARK    4  A    between atoms: O_5  and  C_6
REMARK    5  A    between atoms: C_8  and  C_12
REMARK    6  A    between atoms: C_15  and  C_17
REMARK    7  A    between atoms: N_21  and  C_22
REMARK    8  A    between atoms: C_22  and  C_23
REMARK                            x       y       z     vdW  Elec       q    Type
REMARK                         _______ _______ _______ _____ _____    ______ ____
ROOT
ATOM     12  C   UNL     1      -1.033   2.149  25.466  0.00  0.00    +0.204 A 
ATOM     13  N   UNL     1      -0.643   1.807  26.108  0.00  0.00    -0.056 NA
ATOM     14  O   UNL     1      -0.495   1.016  25.925  0.00  0.00    -0.336 OA
ATOM     15  C   UNL     1      -0.793   0.870  25.170  0.00  0.00    +0.251 A 
ATOM     16  N   UNL     1      -1.126   1.570  24.887  0.00  0.00    -0.190 NA
ENDROOT
BRANCH  12   8
ATOM      6  C   UNL     1      -2.305   3.919  25.587  0.00  0.00    +0.225 A 
ATOM      7  C   UNL     1      -2.053   3.135  25.639  0.00  0.00    +0.061 A 
ATOM      8  C   UNL     1      -1.285   2.933  25.414  0.00  0.00    +0.045 A 
ATOM      9  C   UNL     1      -0.770   3.514  25.136  0.00  0.00    +0.024 A 
ATOM     10  C   UNL     1      -1.022   4.298  25.084  0.00  0.00    +0.102 A 
ATOM     11  N   UNL     1      -1.790   4.501  25.309  0.00  0.00    -0.210 NA
BRANCH   6   5
ATOM      5  O   UNL     1      -3.072   4.121  25.812  0.00  0.00    -0.457 OA
BRANCH   5   4
ATOM      4  C   UNL     1      -3.718   3.808  25.406  0.00  0.00    +0.239 C 
BRANCH   4   3
ATOM      3  C   UNL     1      -4.471   3.838  25.743  0.00  0.00    +0.189 C 
BRANCH   3   2
ATOM      1  C   UNL     1      -5.702   3.119  25.641  0.00  0.00    +0.174 C 
ATOM      2  O   UNL     1      -5.129   3.608  25.303  0.00  0.00    -0.347 OA
ENDBRANCH   3   2
ENDBRANCH   4   3
ENDBRANCH   5   4
ENDBRANCH   6   5
ENDBRANCH  12   8
BRANCH  15  17
ATOM     17  C   UNL     1      -0.765   0.150  24.768  0.00  0.00    +0.138 C 
ATOM     18  C   UNL     1      -0.138  -0.122  24.305  0.00  0.00    +0.027 C 
ATOM     19  C   UNL     1      -0.344  -0.865  24.009  0.00  0.00    +0.019 C 
ATOM     20  C   UNL     1      -1.097  -1.052  24.290  0.00  0.00    +0.073 C 
ATOM     21  N   UNL     1      -1.357  -0.424  24.759  0.00  0.00    -0.266 NA
BRANCH  21  22
ATOM     22  C   UNL     1      -2.082  -0.380  25.150  0.00  0.00    +0.072 C 
BRANCH  22  23
ATOM     23  C   UNL     1      -2.700  -0.880  24.932  0.00  0.00    +0.016 C 
ATOM     24  C   UNL     1      -3.247  -0.637  24.364  0.00  0.00    +0.001 C 
ATOM     25  C   UNL     1      -3.865  -1.137  24.146  0.00  0.00    +0.000 C 
ATOM     26  C   UNL     1      -3.937  -1.881  24.495  0.00  0.00    +0.000 C 
ATOM     27  C   UNL     1      -3.390  -2.125  25.062  0.00  0.00    +0.000 C 
ATOM     28  C   UNL     1      -2.771  -1.624  25.280  0.00  0.00    +0.001 C 
ENDBRANCH  22  23
ENDBRANCH  21  22
ENDBRANCH  15  17
TORSDOF 8
ENDMDL
MODEL 3
REMARK VINA RESULT:     -10.4      2.089      4.426
REMARK  Name = 
REMARK  8 active torsions:
REMARK  status: ('A' for Active; 'I' for Inactive)
REMARK    1  A    between atoms: O_2  and  C_3
REMARK    2  A    between atoms: C_3  and  C_4
REMARK    3  A    between atoms: C_4  and  O_5
REMARK    4  A    between atoms: O_5  and  C_6
REMARK    5  A    between atoms: C_8  and  C_12
REMARK    6  A    between atoms: C_15  and  C_17
REMARK    7  A    between atoms: N_21  and  C_22
REMARK    8  A    between atoms: C_22  and  C_23
REMARK                            x       y       z     vdW  Elec       q    Type
REMARK                         _______ _______ _______ _____ _____    ______ ____
ROOT
ATOM     12  C   UNL     1      -0.460   1.558  25.017  0.00  0.00    +0.204 A 
ATOM     13  N   UNL     1      -0.216   1.741  25.784  0.00  0.00    -0.056 NA
ATOM     14  O   UNL     1      -0.481   2.502  25.961  0.00  0.00    -0.336 OA
ATOM     15  C   UNL     1      -0.889   2.789  25.304  0.00  0.00    +0.251 A 
ATOM     16  N   UNL     1      -0.876   2.206  24.720  0.00  0.00    -0.190 NA
ENDROOT
BRANCH  12   8
ATOM      6  C   UNL     1      -0.520  -0.555  24.475  0.00  0.00    +0.225 A 
ATOM      7  C   UNL     1      -0.666   0.152  24.875  0.00  0.00    +0.061 A 
ATOM      8  C   UNL     1      -0.313   0.852  24.617  0.00  0.00    +0.045 A 
ATOM      9  C   UNL     1       0.185   0.845  23.960  0.00  0.00    +0.024 A 
ATOM     10  C   UNL     1       0.331   0.139  23.560  0.00  0.00    +0.102 A 
ATOM     11  N   UNL     1      -0.021  -0.562  23.817  0.00  0.00    -0.210 NA
BRANCH   6   5
ATOM      5  O   UNL     1      -0.872  -1.256  24.732  0.00  0.00    -0.457 OA
BRANCH   5   4
ATOM      4  C   UNL     1      -1.606  -1.483  24.433  0.00  0.00    +0.239 C 
BRANCH   4   3
ATOM      3  C   UNL     1      -1.987  -2.149  24.737  0.00  0.00    +0.189 C 
BRANCH   3   2
ATOM      1  C   UNL     1      -3.329  -2.639  24.711  0.00  0.00    +0.174 C 
ATOM      2  O   UNL     1      -2.616  -2.488  24.325  0.00  0.00    -0.347 OA
ENDBRANCH   3   2
ENDBRANCH   4   3
ENDBRANCH   5   4
ENDBRANCH   6   5
ENDBRANCH  12   8
BRANCH  15  17
ATOM     17  C   UNL     1      -1.247   3.530  25.241  0.00  0.00    +0.138 C 
ATOM     18  C   UNL     1      -0.866   4.239  25.061  0.00  0.00    +0.027 C 
ATOM     19  C   UNL     1      -1.433   4.839  25.055  0.00  0.00    +0.019 C 
ATOM     20  C   UNL     1      -2.164   4.500  25.231  0.00  0.00    +0.073 C 
ATOM     21  N   UNL     1      -2.049   3.691  25.346  0.00  0.00    -0.266 NA
BRANCH  21  22
ATOM     22  C   UNL     1      -2.634   3.141  25.532  0.00  0.00    +0.072 C 
BRANCH  22  23
ATOM     23  C   UNL     1      -3.426   3.314  25.383  0.00  0.00    +0.016 C 
ATOM     24  C   UNL     1      -3.890   3.665  25.969  0.00  0.00    +0.001 C 
ATOM     25  C   UNL     1      -4.682   3.838  25.819  0.00  0.00    +0.000 C 
ATOM     26  C   UNL     1      -5.012   3.660  25.085  0.00  0.00    +0.000 C 
ATOM     27  C   UNL     1      -4.549   3.309  24.499  0.00  0.00    +0.000 C 
ATOM     28  C   UNL     1      -3.756   3.136  24.648  0.00  0.00    +0.001 C 
ENDBRANCH  22  23
ENDBRANCH  21  22
ENDBRANCH  15  17
TORSDOF 8
ENDMDL
MODEL 4
REMARK VINA RESULT:     -10.2      1.835      3.147
REMARK  Name = 
REMARK  8 active torsions:
REMARK  status: ('A' for Active; 'I' for Inactive)
REMARK    1  A    between atoms: O_2  and  C_3
REMARK    2  A    between atoms: C_3  and  C_4
REMARK    3  A    between atoms: C_4  and  O_5
REMARK    4  A    between atoms: O_5  and  C_6
REMARK    5  A    between atoms: C_8  and  C_12
REMARK    6  A    between atoms: C_15  and  C_17
REMARK    7  A    between atoms: N_21  and  C_22
REMARK    8  A    between atoms: C_22  and  C_23
REMARK                            x       y       z     vdW  Elec       q    Type
REMARK                         _______ _______ _______ _____ _____    ______ ____
ROOT
ATOM     12  C   UNL     1      -4.090   1.640  24.458  0.00  0.00    +0.204 A 
ATOM     13  N   UNL     1      -3.932   1.573  23.651  0.00  0.00    -0.056 NA
ATOM     14  O   UNL     1      -3.780   0.778  23.486  0.00  0.00    -0.336 OA
ATOM     15  C   UNL     1      -3.844   0.355  24.192  0.00  0.00    +0.251 A 
ATOM     16  N   UNL     1      -4.035   0.888  24.792  0.00  0.00    -0.190 NA
ENDROOT
BRANCH  12   8
ATOM      6  C   UNL     1      -3.842   3.515  25.549  0.00  0.00    +0.225 A 
ATOM      7  C   UNL     1      -3.662   2.817  25.147  0.00  0.00    +0.061 A 
ATOM      8  C   UNL     1      -4.270   2.338  24.860  0.00  0.00    +0.045 A 
ATOM      9  C   UNL     1      -5.056   2.556  24.975  0.00  0.00    +0.024 A 
ATOM     10  C   UNL     1      -5.237   3.253  25.377  0.00  0.00    +0.102 A 
ATOM     11  N   UNL     1      -4.630   3.733  25.664  0.00  0.00    -0.210 NA
BRANCH   6   5
ATOM      5  O   UNL     1      -3.236   3.994  25.836  0.00  0.00    -0.457 OA
BRANCH   5   4
ATOM      4  C   UNL     1      -2.659   4.283  25.322  0.00  0.00    +0.239 C 
BRANCH   4   3
ATOM      3  C   UNL     1      -1.981   4.644  25.624  0.00  0.00    +0.189 C 
BRANCH   3   2
ATOM      1  C   UNL     1      -0.812   5.031  24.900  0.00  0.00    +0.174 C 
ATOM      2  O   UNL     1      -1.573   5.199  25.170  0.00  0.00    -0.347 OA
ENDBRANCH   3   2
ENDBRANCH   4   3
ENDBRANCH   5   4
ENDBRANCH   6   5
ENDBRANCH  12   8
BRANCH  15  17
ATOM     17  C   UNL     1      -3.735  -0.457  24.281  0.00  0.00    +0.138 C 
ATOM     18  C   UNL     1      -4.326  -1.033  24.240  0.00  0.00    +0.027 C 
ATOM     19  C   UNL     1      -3.973  -1.769  24.361  0.00  0.00    +0.019 C 
ATOM     20  C   UNL     1      -3.165  -1.648  24.478  0.00  0.00    +0.073 C 
ATOM     21  N   UNL     1      -3.018  -0.838  24.428  0.00  0.00    -0.266 NA
BRANCH  21  22
ATOM     22  C   UNL     1      -2.284  -0.472  24.512  0.00  0.00    +0.072 C 
BRANCH  22  23
ATOM     23  C   UNL     1      -1.643  -0.897  24.810  0.00  0.00    +0.016 C 
ATOM     24  C   UNL     1      -1.178  -1.353  24.302  0.00  0.00    +0.001 C 
ATOM     25  C   UNL     1      -0.537  -1.778  24.600  0.00  0.00    +0.000 C 
ATOM     26  C   UNL     1      -0.361  -1.748  25.405  0.00  0.00    +0.000 C 
ATOM     27  C   UNL     1      -0.825  -1.293  25.913  0.00  0.00    +0.000 C 
ATOM     28  C   UNL     1      -1.466  -0.867  25.615  0.00  0.00    +0.001 C 
ENDBRANCH  22  23
ENDBRANCH  21  22
ENDBRANCH  15  17
TORSDOF 8
ENDMDL
MODEL 5
REMARK VINA RESULT:     -10.2      1.709      4.304
REMARK  Name = 
REMARK  8 active torsions:
REMARK  status: ('A' for Active; 'I' for Inactive)
REMARK    1  A    between atoms: O_2  and  C_3
REMARK    2  A    between atoms: C_3  and  C_4
REMARK    3  A    between atoms: C_4  and  O_5
REMARK    4  A    between atoms: O_5  and  C_6
REMARK    5  A    between atoms: C_8  and  C_12
REMARK    6  A    between atoms: C_15  and  C_17
REMARK    7  A    between atoms: N_21  and  C_22
REMARK    8  A    between atoms: C_22  and  C_23
REMARK                            x       y       z     vdW  Elec       q    Type
REMARK                         _______ _______ _______ _____ _____    ______ ____
ROOT
ATOM     12  C   UNL     1      -4.040   0.288  24.755  0.00  0.00    +0.204 A 
ATOM     13  N   UNL     1      -4.540   0.552  25.357  0.00  0.00    -0.056 NA
ATOM     14  O   UNL     1      -4.627   1.368  25.276  0.00  0.00    -0.336 OA
ATOM     15  C   UNL     1      -4.182   1.609  24.625  0.00  0.00    +0.251 A 
ATOM     16  N   UNL     1      -3.819   0.942  24.303  0.00  0.00    -0.190 NA
ENDROOT
BRANCH  12   8
ATOM      6  C   UNL     1      -2.817  -1.520  24.744  0.00  0.00    +0.225 A 
ATOM      7  C   UNL     1      -3.054  -0.740  24.870  0.00  0.00    +0.061 A 
ATOM      8  C   UNL     1      -3.803  -0.492  24.628  0.00  0.00    +0.045 A 
ATOM      9  C   UNL     1      -4.314  -1.023  24.259  0.00  0.00    +0.024 A 
ATOM     10  C   UNL     1      -4.078  -1.803  24.132  0.00  0.00    +0.102 A 
ATOM     11  N   UNL     1      -3.329  -2.052  24.374  0.00  0.00    -0.210 NA
BRANCH   6   5
ATOM      5  O   UNL     1      -2.069  -1.769  24.985  0.00  0.00    -0.457 OA
BRANCH   5   4
ATOM      4  C   UNL     1      -1.408  -1.599  24.522  0.00  0.00    +0.239 C 
BRANCH   4   3
ATOM      3  C   UNL     1      -0.680  -1.451  24.882  0.00  0.00    +0.189 C 
BRANCH   3   2
ATOM      1  C   UNL     1       0.239  -0.643  24.143  0.00  0.00    +0.174 C 
ATOM      2  O   UNL     1       0.001  -1.383  24.421  0.00  0.00    -0.347 OA
ENDBRANCH   3   2
ENDBRANCH   4   3
ENDBRANCH   5   4
ENDBRANCH   6   5
ENDBRANCH  12   8
BRANCH  15  17
ATOM     17  C   UNL     1      -4.112   2.382  24.344  0.00  0.00    +0.138 C 
ATOM     18  C   UNL     1      -4.612   2.747  23.799  0.00  0.00    +0.027 C 
ATOM     19  C   UNL     1      -4.338   3.516  23.677  0.00  0.00    +0.019 C 
ATOM     20  C   UNL     1      -3.669   3.626  24.147  0.00  0.00    +0.073 C 
ATOM     21  N   UNL     1      -3.529   2.925  24.560  0.00  0.00    -0.266 NA
BRANCH  21  22
ATOM     22  C   UNL     1      -2.915   2.791  25.093  0.00  0.00    +0.072 C 
BRANCH  22  23
ATOM     23  C   UNL     1      -2.276   3.312  25.126  0.00  0.00    +0.016 C 
ATOM     24  C   UNL     1      -2.335   4.011  25.560  0.00  0.00    +0.001 C 
ATOM     25  C   UNL     1      -1.696   4.531  25.593  0.00  0.00    +0.000 C 
ATOM     26  C   UNL     1      -0.998   4.353  25.192  0.00  0.00    +0.000 C 
ATOM     27  C   UNL     1      -0.938   3.655  24.757  0.00  0.00    +0.000 C 
ATOM     28  C   UNL     1      -1.578   3.134  24.724  0.00  0.00    +0.001 C 
ENDBRANCH  22  23
ENDBRANCH  21  22
ENDBRANCH  15  17
TORSDOF 8
ENDMDL
