MODEL 1
REMARK VINA RESULT:     -10.9      0.000      0.000
REMARK  Name = 
REMARK  5 active torsions:
REMARK  status: ('A' for Active; 'I' for Inactive)
REMARK    1  A    between atoms: C_2  and  C_13
REMARK    2  A    between atoms: N_3  and  C_4
REMARK    3  A    between atoms: C_4  and  C_5
REMARK    4  A    between atoms: C_8  and  C_11
REMARK    5  A    between atoms: N_21  and  C_22
REMARK                            x       y       z     vdW  Elec       q    Type
REMARK                         _______ _______ _______ _____ _____    ______ ____
ROOT
ATOM     13  C   UNL     1      -3.610   2.052  24.191  0.00  0.00    +0.161 C 
ATOM     14  C   UNL     1      -4.381   2.212  24.435  0.00  0.00    +0.076 C 
ATOM     15  C   UNL     1      -4.535   2.866  24.914  0.00  0.00    +0.078 A 
ATOM     16  C   UNL     1      -3.917   3.360  25.149  0.00  0.00    +0.094 A 
ATOM     17  C   UNL     1      -3.145   3.200  24.904  0.00  0.00    +0.143 C 
ATOM     18  N   UNL     1      -2.992   2.546  24.425  0.00  0.00    -0.250 N 
ATOM     19  C   UNL     1      -2.221   2.387  24.181  0.00  0.00    +0.324 C 
ATOM     20  O   UNL     1      -2.067   1.732  23.701  0.00  0.00    -0.251 OA
ATOM     21  N   UNL     1      -1.603   2.881  24.415  0.00  0.00    -0.190 NA
ATOM     28  N   UNL     1      -4.234   3.960  25.618  0.00  0.00    -0.225 NA
ATOM     29  C   UNL     1      -5.047   3.836  25.674  0.00  0.00    +0.198 A 
ATOM     30  N   UNL     1      -5.233   3.161  25.239  0.00  0.00    -0.227 NA
ENDROOT
BRANCH  21  22
ATOM     22  C   UNL     1      -1.757   3.535  24.893  0.00  0.00    +0.097 C 
ATOM     23  C   UNL     1      -1.892   4.273  24.553  0.00  0.00    +0.022 C 
ATOM     24  C   UNL     1      -2.046   4.927  25.031  0.00  0.00    +0.002 C 
ATOM     25  C   UNL     1      -2.064   4.842  25.852  0.00  0.00    +0.000 C 
ATOM     26  C   UNL     1      -1.928   4.103  26.193  0.00  0.00    +0.002 C 
ATOM     27  C   UNL     1      -1.774   3.450  25.714  0.00  0.00    +0.022 C 
ENDBRANCH  21  22
BRANCH  13   2
ATOM      1  O   UNL     1      -3.225   1.507  22.927  0.00  0.00    -0.272 OA
ATOM      2  C   UNL     1      -3.456   1.399  23.712  0.00  0.00    +0.260 C 
ATOM      3  N   UNL     1      -3.533   0.637  24.018  0.00  0.00    -0.199 NA
BRANCH   3   4
ATOM      4  C   UNL     1      -3.379  -0.018  23.539  0.00  0.00    +0.142 C 
BRANCH   4   5
ATOM      5  C   UNL     1      -3.420  -0.779  23.855  0.00  0.00    -0.001 A 
ATOM      6  C   UNL     1      -2.787  -1.079  24.290  0.00  0.00    -0.002 A 
ATOM      7  C   UNL     1      -2.827  -1.840  24.606  0.00  0.00    +0.010 A 
ATOM      8  C   UNL     1      -3.501  -2.301  24.487  0.00  0.00    +0.068 A 
ATOM      9  C   UNL     1      -4.134  -2.001  24.051  0.00  0.00    +0.010 A 
ATOM     10  C   UNL     1      -4.094  -1.239  23.736  0.00  0.00    -0.002 A 
BRANCH   8  11
ATOM     11  C   UNL     1      -3.541  -3.062  24.803  0.00  0.00    +0.100 C 
ATOM     12  N   UNL     1      -3.582  -3.823  25.119  0.00  0.00    -0.191 NA
ENDBRANCH   8  11
ENDBRANCH   4   5
ENDBRANCH   3   4
ENDBRANCH  13   2
TORSDOF 5
ENDMDL
MODEL 2
REMARK VINA RESULT:     -10.5      0.947      2.127
REMARK  Name = 
REMARK  5 active torsions:
REMARK  status: ('A' for Active; 'I' for Inactive)
REMARK    1  A    between atoms: C_2  and  C_13
REMARK    2  A    between atoms: N_3  and  C_4
REMARK    3  A    between atoms: C_4  and  C_5
REMARK    4  A    between atoms: C_8  and  C_11
REMARK    5  A    between atoms: N_21  and  C_22
REMARK                            x       y       z     vdW  Elec       q    Type
REMARK                         _______ _______ _______ _____ _____    ______ ____
ROOT
ATOM     13  C   UNL     1      -2.478   1.860  24.145  0.00  0.00    +0.161 C 
ATOM     14  C   UNL     1      -1.730   1.567  23.961  0.00  0.00    +0.076 C 
ATOM     15  C   UNL     1      -1.061   2.034  24.087  0.00  0.00    +0.078 A 
ATOM     16  C   UNL     1      -1.142   2.794  24.396  0.00  0.00    +0.094 A 
ATOM     17  C   UNL     1      -1.892   3.088  24.580  0.00  0.00    +0.143 C 
ATOM     18  N   UNL     1      -2.559   2.620  24.454  0.00  0.00    -0.250 N 
ATOM     19  C   UNL     1      -3.308   2.914  24.638  0.00  0.00    +0.324 C 
ATOM     20  O   UNL     1      -3.976   2.446  24.512  0.00  0.00    -0.251 OA
ATOM     21  N   UNL     1      -3.389   3.675  24.947  0.00  0.00    -0.190 NA
ATOM     28  N   UNL     1      -0.390   3.125  24.460  0.00  0.00    -0.225 NA
ATOM     29  C   UNL     1       0.157   2.569  24.191  0.00  0.00    +0.198 A 
ATOM     30  N   UNL     1      -0.259   1.895  23.960  0.00  0.00    -0.227 NA
ENDROOT
BRANCH  21  22
ATOM     22  C   UNL     1      -2.721   4.141  25.073  0.00  0.00    +0.097 C 
ATOM     23  C   UNL     1      -2.317   4.100  25.791  0.00  0.00    +0.022 C 
ATOM     24  C   UNL     1      -1.649   4.567  25.917  0.00  0.00    +0.002 C 
ATOM     25  C   UNL     1      -1.384   5.076  25.324  0.00  0.00    +0.000 C 
ATOM     26  C   UNL     1      -1.788   5.118  24.605  0.00  0.00    +0.002 C 
ATOM     27  C   UNL     1      -2.456   4.650  24.480  0.00  0.00    +0.022 C 
ENDBRANCH  21  22
BRANCH  13   2
ATOM      1  O   UNL     1      -3.747   1.657  23.518  0.00  0.00    -0.272 OA
ATOM      2  C   UNL     1      -3.146   1.393  24.019  0.00  0.00    +0.260 C 
ATOM      3  N   UNL     1      -3.214   0.661  24.394  0.00  0.00    -0.199 NA
BRANCH   3   4
ATOM      4  C   UNL     1      -3.883   0.194  24.268  0.00  0.00    +0.142 C 
BRANCH   4   5
ATOM      5  C   UNL     1      -3.837  -0.625  24.358  0.00  0.00    -0.001 A 
ATOM      6  C   UNL     1      -3.540  -0.947  25.057  0.00  0.00    -0.002 A 
ATOM      7  C   UNL     1      -3.494  -1.766  25.146  0.00  0.00    +0.010 A 
ATOM      8  C   UNL     1      -3.744  -2.263  24.537  0.00  0.00    +0.068 A 
ATOM      9  C   UNL     1      -4.041  -1.940  23.838  0.00  0.00    +0.010 A 
ATOM     10  C   UNL     1      -4.087  -1.121  23.748  0.00  0.00    -0.002 A 
BRANCH   8  11
ATOM     11  C   UNL     1      -3.698  -3.082  24.627  0.00  0.00    +0.100 C 
ATOM     12  N   UNL     1      -3.651  -3.900  24.717  0.00  0.00    -0.191 NA
ENDBRANCH   8  11
ENDBRANCH   4   5
ENDBRANCH   3   4
ENDBRANCH  13   2
TORSDOF 5
ENDMDL
MODEL 3
REMARK VINA RESULT:     -10.3      1.466      5.564
REMARK  Name = 
REMARK  5 active torsions:
REMARK  status: ('A' for Active; 'I' for Inactive)
REMARK    1  A    between atoms: C_2  and  C_13
REMARK    2  A    between atoms: N_3  and  C_4
REMARK    3  A    between atoms: C_4  and  C_5
REMARK    4  A    between atoms: C_8  and  C_11
REMARK    5  A    between atoms: N_21  and  C_22
REMARK                            x       y       z     vdW  Elec       q    Type
REMARK                         _______ _______ _______ _____ _____    ______ ____
ROOT
ATOM     13  C   UNL     1      -2.643   0.464  24.517  0.00  0.00    +0.161 C 
ATOM     14  C   UNL     1      -1.822   0.423  24.451  0.00  0.00    +0.076 C 
ATOM     15  C   UNL     1      -1.442  -0.309  24.471  0.00  0.00    +0.078 A 
ATOM     16  C   UNL     1      -1.884  -1.001  24.557  0.00  0.00    +0.094 A 
ATOM     17  C   UNL     1      -2.706  -0.959  24.624  0.00  0.00    +0.143 C 
ATOM     18  N   UNL     1      -3.085  -0.227  24.604  0.00  0.00    -0.250 N 
ATOM     19  C   UNL     1      -3.906  -0.186  24.670  0.00  0.00    +0.324 C 
ATOM     20  O   UNL     1      -4.286   0.547  24.650  0.00  0.00    -0.251 OA
ATOM     21  N   UNL     1      -4.348  -0.878  24.756  0.00  0.00    -0.190 NA
ATOM     28  N   UNL     1      -1.362  -1.639  24.559  0.00  0.00    -0.225 NA
ATOM     29  C   UNL     1      -0.597  -1.342  24.473  0.00  0.00    +0.198 A 
ATOM     30  N   UNL     1      -0.648  -0.521  24.419  0.00  0.00    -0.227 NA
ENDROOT
BRANCH  21  22
ATOM     22  C   UNL     1      -3.969  -1.609  24.777  0.00  0.00    +0.097 C 
ATOM     23  C   UNL     1      -3.677  -1.903  25.489  0.00  0.00    +0.022 C 
ATOM     24  C   UNL     1      -3.297  -2.635  25.510  0.00  0.00    +0.002 C 
ATOM     25  C   UNL     1      -3.210  -3.074  24.817  0.00  0.00    +0.000 C 
ATOM     26  C   UNL     1      -3.503  -2.780  24.103  0.00  0.00    +0.002 C 
ATOM     27  C   UNL     1      -3.882  -2.048  24.083  0.00  0.00    +0.022 C 
ENDBRANCH  21  22
BRANCH  13   2
ATOM      1  O   UNL     1      -3.682   1.306  24.014  0.00  0.00    -0.272 OA
ATOM      2  C   UNL     1      -3.022   1.196  24.497  0.00  0.00    +0.260 C 
ATOM      3  N   UNL     1      -2.742   1.818  24.960  0.00  0.00    -0.199 NA
BRANCH   3   4
ATOM      4  C   UNL     1      -3.121   2.552  24.940  0.00  0.00    +0.142 C 
BRANCH   4   5
ATOM      5  C   UNL     1      -2.678   3.247  24.972  0.00  0.00    -0.001 A 
ATOM      6  C   UNL     1      -2.010   3.288  25.453  0.00  0.00    -0.002 A 
ATOM      7  C   UNL     1      -1.567   3.983  25.485  0.00  0.00    +0.010 A 
ATOM      8  C   UNL     1      -1.792   4.637  25.036  0.00  0.00    +0.068 A 
ATOM      9  C   UNL     1      -2.461   4.595  24.554  0.00  0.00    +0.010 A 
ATOM     10  C   UNL     1      -2.904   3.900  24.522  0.00  0.00    -0.002 A 
BRANCH   8  11
ATOM     11  C   UNL     1      -1.349   5.332  25.068  0.00  0.00    +0.100 C 
ATOM     12  N   UNL     1      -0.906   6.027  25.100  0.00  0.00    -0.191 NA
ENDBRANCH   8  11
ENDBRANCH   4   5
ENDBRANCH   3   4
ENDBRANCH  13   2
TORSDOF 5
ENDMDL
MODEL 4
REMARK VINA RESULT:     -10.0      1.549      4.837
REMARK  Name = 
REMARK  5 active torsions:
REMARK  status: ('A' for Active; 'I' for Inactive)
REMARK    1  A    between atoms: C_2  and  C_13
REMARK    2  A    between atoms: N_3  and  C_4
REMARK    3  A    between atoms: C_4  and  C_5
REMARK    4  A    between atoms: C_8  and  C_11
REMARK    5  A    between atoms: N_21  and  C_22
REMARK                            x       y       z     vdW  Elec       q    Type
REMARK                         _______ _______ _______ _____ _____    ______ ____
ROOT
ATOM     13  C   UNL     1      -3.068   0.093  24.020  0.00  0.00    +0.161 C 
ATOM     14  C   UNL     1      -3.657  -0.484  24.030  0.00  0.00    +0.076 C 
ATOM     15  C   UNL     1      -3.492  -1.237  24.324  0.00  0.00    +0.078 A 
ATOM     16  C   UNL     1      -2.738  -1.414  24.607  0.00  0.00    +0.094 A 
ATOM     17  C   UNL     1      -2.148  -0.836  24.597  0.00  0.00    +0.143 C 
ATOM     18  N   UNL     1      -2.313  -0.083  24.303  0.00  0.00    -0.250 N 
ATOM     19  C   UNL     1      -1.723   0.493  24.293  0.00  0.00    +0.324 C 
ATOM     20  O   UNL     1      -1.888   1.247  23.999  0.00  0.00    -0.251 OA
ATOM     21  N   UNL     1      -0.969   0.317  24.576  0.00  0.00    -0.190 NA
ATOM     28  N   UNL     1      -2.738  -2.198  24.862  0.00  0.00    -0.225 NA
ATOM     29  C   UNL     1      -3.492  -2.507  24.736  0.00  0.00    +0.198 A 
ATOM     30  N   UNL     1      -3.958  -1.913  24.404  0.00  0.00    -0.227 NA
ENDROOT
BRANCH  21  22
ATOM     22  C   UNL     1      -0.804  -0.436  24.870  0.00  0.00    +0.097 C 
ATOM     23  C   UNL     1      -0.939  -0.607  25.664  0.00  0.00    +0.022 C 
ATOM     24  C   UNL     1      -0.775  -1.360  25.959  0.00  0.00    +0.002 C 
ATOM     25  C   UNL     1      -0.474  -1.942  25.457  0.00  0.00    +0.000 C 
ATOM     26  C   UNL     1      -0.339  -1.771  24.660  0.00  0.00    +0.002 C 
ATOM     27  C   UNL     1      -0.504  -1.018  24.368  0.00  0.00    +0.022 C 
ENDBRANCH  21  22
BRANCH  13   2
ATOM      1  O   UNL     1      -2.931   1.078  22.994  0.00  0.00    -0.272 OA
ATOM      2  C   UNL     1      -3.232   0.845  23.726  0.00  0.00    +0.260 C 
ATOM      3  N   UNL     1      -3.698   1.366  24.165  0.00  0.00    -0.199 NA
BRANCH   3   4
ATOM      4  C   UNL     1      -3.863   2.120  23.871  0.00  0.00    +0.142 C 
BRANCH   4   5
ATOM      5  C   UNL     1      -4.329   2.641  24.310  0.00  0.00    -0.001 A 
ATOM      6  C   UNL     1      -5.048   2.387  24.624  0.00  0.00    -0.002 A 
ATOM      7  C   UNL     1      -5.513   2.908  25.063  0.00  0.00    +0.010 A 
ATOM      8  C   UNL     1      -5.259   3.683  25.188  0.00  0.00    +0.068 A 
ATOM      9  C   UNL     1      -4.539   3.937  24.874  0.00  0.00    +0.010 A 
ATOM     10  C   UNL     1      -4.073   3.416  24.435  0.00  0.00    -0.002 A 
BRANCH   8  11
ATOM     11  C   UNL     1      -5.724   4.204  25.627  0.00  0.00    +0.100 C 
ATOM     12  N   UNL     1      -6.189   4.725  26.066  0.00  0.00    -0.191 NA
ENDBRANCH   8  11
ENDBRANCH   4   5
ENDBRANCH   3   4
ENDBRANCH  13   2
TORSDOF 5
ENDMDL
MODEL 5
REMARK VINA RESULT:      -9.6      1.839      5.361
REMARK  Name = 
REMARK  5 active torsions:
REMARK  status: ('A' for Active; 'I' for Inactive)
REMARK    1  A    between atoms: C_2  and  C_13
REMARK    2  A    between atoms: N_3  and  C_4
REMARK    3  A    between atoms: C_4  and  C_5
REMARK    4  A    between atoms: C_8  and  C_11
REMARK    5  A    between atoms: N_21  and  C_22
REMARK                            x       y       z     vdW  Elec       q    Type
REMARK                         _______ _______ _______ _____ _____    ______ ____
ROOT
ATOM     13  C   UNL     1      -2.235   0.349  24.466  0.00  0.00    +0.161 C 
ATOM     14  C   UNL     1      -2.963   0.692  24.291  0.00  0.00    +0.076 C 
ATOM     15  C   UNL     1      -3.645   0.228  24.269  0.00  0.00    +0.078 A 
ATOM     16  C   UNL     1      -3.596  -0.582  24.422  0.00  0.00    +0.094 A 
ATOM     17  C   UNL     1      -2.867  -0.926  24.597  0.00  0.00    +0.143 C 
ATOM     18  N   UNL     1      -2.186  -0.460  24.619  0.00  0.00    -0.250 N 
ATOM     19  C   UNL     1      -1.457  -0.805  24.794  0.00  0.00    +0.324 C 
ATOM     20  O   UNL     1      -0.776  -0.339  24.816  0.00  0.00    -0.251 OA
ATOM     21  N   UNL     1      -1.409  -1.614  24.947  0.00  0.00    -0.190 NA
ATOM     28  N   UNL     1      -4.355  -0.898  24.361  0.00  0.00    -0.225 NA
ATOM     29  C   UNL     1      -4.873  -0.285  24.171  0.00  0.00    +0.198 A 
ATOM     30  N   UNL     1      -4.433   0.410  24.114  0.00  0.00    -0.227 NA
ENDROOT
BRANCH  21  22
ATOM     22  C   UNL     1      -2.090  -2.079  24.925  0.00  0.00    +0.097 C 
ATOM     23  C   UNL     1      -2.303  -2.466  24.229  0.00  0.00    +0.022 C 
ATOM     24  C   UNL     1      -2.984  -2.931  24.206  0.00  0.00    +0.002 C 
ATOM     25  C   UNL     1      -3.452  -3.009  24.881  0.00  0.00    +0.000 C 
ATOM     26  C   UNL     1      -3.239  -2.622  25.579  0.00  0.00    +0.002 C 
ATOM     27  C   UNL     1      -2.558  -2.157  25.600  0.00  0.00    +0.022 C 
ENDBRANCH  21  22
BRANCH  13   2
ATOM      1  O   UNL     1      -0.861   0.550  24.126  0.00  0.00    -0.272 OA
ATOM      2  C   UNL     1      -1.554   0.814  24.488  0.00  0.00    +0.260 C 
ATOM      3  N   UNL     1      -1.566   1.544  24.872  0.00  0.00    -0.199 NA
BRANCH   3   4
ATOM      4  C   UNL     1      -0.884   2.010  24.894  0.00  0.00    +0.142 C 
BRANCH   4   5
ATOM      5  C   UNL     1      -0.947   2.832  24.925  0.00  0.00    -0.001 A 
ATOM      6  C   UNL     1      -1.355   3.191  25.544  0.00  0.00    -0.002 A 
ATOM      7  C   UNL     1      -1.418   4.013  25.575  0.00  0.00    +0.010 A 
ATOM      8  C   UNL     1      -1.073   4.476  24.986  0.00  0.00    +0.068 A 
ATOM      9  C   UNL     1      -0.664   4.116  24.365  0.00  0.00    +0.010 A 
ATOM     10  C   UNL     1      -0.601   3.294  24.335  0.00  0.00    -0.002 A 
BRANCH   8  11
ATOM     11  C   UNL     1      -1.136   5.298  25.017  0.00  0.00    +0.100 C 
ATOM     12  N   UNL     1      -1.199   6.120  25.048  0.00  0.00    -0.191 NA
ENDBRANCH   8  11
ENDBRANCH   4   5
ENDBRANCH   3   4
ENDBRANCH  13   2
TORSDOF 5
ENDMDL
