MODEL 1
REMARK VINA RESULT:     -11.9      0.000      0.000
REMARK  Name = 
REMARK  6 active torsions:
REMARK  status: ('A' for Active; 'I' for Inactive)
REMARK    1  A    between atoms: C_2  and  N_4
REMARK    2  A    between atoms: C_10  and  C_11
REMARK    3  A    between atoms: C_11  and  C_12
REMARK    4  A    between atoms: C_15  and  C_16
REMARK    5  A    between atoms: C_16  and  C_17
REMARK    6  A    between atoms: C_24  and  C_27
REMARK                            x       y       z     vdW  Elec       q    Type
REMARK                         _______ _______ _______ _____ _____    ______ ____
ROOT
ATOM      4  N   UNL     1      -4.057  -1.609  24.683  0.00  0.00    -0.190 NA
ATOM      5  C   UNL     1      -3.574  -0.944  24.623  0.00  0.00    +0.323 C 
ATOM      6  O   UNL     1      -2.773  -1.030  24.447  0.00  0.00    -0.251 OA
ATOM      7  N   UNL     1      -3.893  -0.191  24.739  0.00  0.00    -0.263 N 
ATOM      8  C   UNL     1      -4.693  -0.105  24.916  0.00  0.00    +0.095 C 
ATOM      9  C   UNL     1      -5.012   0.647  25.032  0.00  0.00    +0.022 C 
ATOM     10  C   UNL     1      -4.528   1.313  24.972  0.00  0.00    +0.015 C 
ATOM     15  C   UNL     1      -3.728   1.227  24.796  0.00  0.00    +0.026 C 
ATOM     31  C   UNL     1      -3.409   0.475  24.679  0.00  0.00    +0.095 C 
ENDROOT
BRANCH   4   2
ATOM      1  C   UNL     1      -3.847  -2.748  23.846  0.00  0.00    +0.023 C 
ATOM      2  C   UNL     1      -3.739  -2.362  24.567  0.00  0.00    +0.097 C 
ATOM      3  C   UNL     1      -3.313  -2.728  25.172  0.00  0.00    +0.023 C 
ENDBRANCH   4   2
BRANCH  10  11
ATOM     11  C   UNL     1      -4.847   2.065  25.088  0.00  0.00    +0.114 C 
BRANCH  11  12
ATOM     12  C   UNL     1      -5.619   2.148  25.367  0.00  0.00    +0.365 C 
ATOM     13  O   UNL     1      -6.253   2.127  24.839  0.00  0.00    -0.246 OA
ATOM     14  O   UNL     1      -5.756   2.252  26.174  0.00  0.00    -0.246 OA
ENDBRANCH  11  12
ENDBRANCH  10  11
BRANCH  15  16
ATOM     16  C   UNL     1      -3.244   1.893  24.735  0.00  0.00    +0.047 C 
BRANCH  16  17
ATOM     17  C   UNL     1      -2.766   1.997  24.072  0.00  0.00    +0.053 C 
ATOM     18  N   UNL     1      -3.078   1.881  23.316  0.00  0.00    -0.274 NA
ATOM     19  C   UNL     1      -2.598   1.985  22.652  0.00  0.00    +0.130 C 
ATOM     20  C   UNL     1      -1.808   2.205  22.744  0.00  0.00    +0.053 C 
ATOM     21  C   UNL     1      -1.497   2.321  23.499  0.00  0.00    -0.019 A 
ATOM     22  C   UNL     1      -1.976   2.217  24.164  0.00  0.00    +0.009 A 
ATOM     23  C   UNL     1      -1.665   2.334  24.918  0.00  0.00    -0.003 A 
ATOM     24  C   UNL     1      -0.876   2.554  25.010  0.00  0.00    -0.023 A 
ATOM     25  C   UNL     1      -0.396   2.658  24.345  0.00  0.00    -0.005 A 
ATOM     26  C   UNL     1      -0.707   2.541  23.590  0.00  0.00    -0.004 A 
BRANCH  24  27
ATOM     27  C   UNL     1      -0.564   2.670  25.765  0.00  0.00    +0.019 C 
ATOM     28  C   UNL     1      -0.253   2.787  26.519  0.00  0.00    +0.004 C 
ATOM     29  C   UNL     1      -0.251   1.907  25.753  0.00  0.00    +0.004 C 
ATOM     30  C   UNL     1      -0.877   3.434  25.775  0.00  0.00    +0.004 C 
ENDBRANCH  24  27
ENDBRANCH  16  17
ENDBRANCH  15  16
TORSDOF 6
ENDMDL
MODEL 2
REMARK VINA RESULT:     -11.2      1.789      3.411
REMARK  Name = 
REMARK  6 active torsions:
REMARK  status: ('A' for Active; 'I' for Inactive)
REMARK    1  A    between atoms: C_2  and  N_4
REMARK    2  A    between atoms: C_10  and  C_11
REMARK    3  A    between atoms: C_11  and  C_12
REMARK    4  A    between atoms: C_15  and  C_16
REMARK    5  A    between atoms: C_16  and  C_17
REMARK    6  A    between atoms: C_24  and  C_27
REMARK                            x       y       z     vdW  Elec       q    Type
REMARK                         _______ _______ _______ _____ _____    ______ ____
ROOT
ATOM      4  N   UNL     1      -1.548  -1.402  25.036  0.00  0.00    -0.190 NA
ATOM      5  C   UNL     1      -1.974  -0.713  24.875  0.00  0.00    +0.323 C 
ATOM      6  O   UNL     1      -2.712  -0.760  24.509  0.00  0.00    -0.251 OA
ATOM      7  N   UNL     1      -1.660   0.022  25.081  0.00  0.00    -0.263 N 
ATOM      8  C   UNL     1      -0.923   0.068  25.446  0.00  0.00    +0.095 C 
ATOM      9  C   UNL     1      -0.609   0.803  25.652  0.00  0.00    +0.022 C 
ATOM     10  C   UNL     1      -1.034   1.491  25.491  0.00  0.00    +0.015 C 
ATOM     15  C   UNL     1      -1.772   1.445  25.126  0.00  0.00    +0.026 C 
ATOM     31  C   UNL     1      -2.085   0.710  24.920  0.00  0.00    +0.095 C 
ENDROOT
BRANCH   4   2
ATOM      1  C   UNL     1      -1.510  -2.582  24.231  0.00  0.00    +0.023 C 
ATOM      2  C   UNL     1      -1.862  -2.137  24.830  0.00  0.00    +0.097 C 
ATOM      3  C   UNL     1      -2.527  -2.427  25.223  0.00  0.00    +0.023 C 
ENDBRANCH   4   2
BRANCH  10  11
ATOM     11  C   UNL     1      -0.721   2.227  25.697  0.00  0.00    +0.114 C 
BRANCH  11  12
ATOM     12  C   UNL     1      -0.005   2.271  26.104  0.00  0.00    +0.365 C 
ATOM     13  O   UNL     1       0.707   2.287  25.686  0.00  0.00    -0.246 OA
ATOM     14  O   UNL     1      -0.001   2.298  26.929  0.00  0.00    -0.246 OA
ENDBRANCH  11  12
ENDBRANCH  10  11
BRANCH  15  16
ATOM     16  C   UNL     1      -2.197   2.134  24.965  0.00  0.00    +0.047 C 
BRANCH  16  17
ATOM     17  C   UNL     1      -2.503   2.264  24.210  0.00  0.00    +0.053 C 
ATOM     18  N   UNL     1      -2.030   2.135  23.546  0.00  0.00    -0.274 NA
ATOM     19  C   UNL     1      -2.336   2.265  22.790  0.00  0.00    +0.130 C 
ATOM     20  C   UNL     1      -3.115   2.523  22.700  0.00  0.00    +0.053 C 
ATOM     21  C   UNL     1      -3.588   2.652  23.364  0.00  0.00    -0.019 A 
ATOM     22  C   UNL     1      -3.281   2.522  24.120  0.00  0.00    +0.009 A 
ATOM     23  C   UNL     1      -3.753   2.651  24.783  0.00  0.00    -0.003 A 
ATOM     24  C   UNL     1      -4.531   2.908  24.693  0.00  0.00    -0.023 A 
ATOM     25  C   UNL     1      -4.837   3.038  23.937  0.00  0.00    -0.005 A 
ATOM     26  C   UNL     1      -4.365   2.910  23.273  0.00  0.00    -0.004 A 
BRANCH  24  27
ATOM     27  C   UNL     1      -5.004   3.037  25.356  0.00  0.00    +0.019 C 
ATOM     28  C   UNL     1      -5.476   3.166  26.020  0.00  0.00    +0.004 C 
ATOM     29  C   UNL     1      -5.348   2.294  25.255  0.00  0.00    +0.004 C 
ATOM     30  C   UNL     1      -4.660   3.781  25.457  0.00  0.00    +0.004 C 
ENDBRANCH  24  27
ENDBRANCH  16  17
ENDBRANCH  15  16
TORSDOF 6
ENDMDL
MODEL 3
REMARK VINA RESULT:     -10.7      2.409      4.556
REMARK  Name = 
REMARK  6 active torsions:
REMARK  status: ('A' for Active; 'I' for Inactive)
REMARK    1  A    between atoms: C_2  and  N_4
REMARK    2  A    between atoms: C_10  and  C_11
REMARK    3  A    between atoms: C_11  and  C_12
REMARK    4  A    between atoms: C_15  and  C_16
REMARK    5  A    between atoms: C_16  and  C_17
REMARK    6  A    between atoms: C_24  and  C_27
REMARK                            x       y       z     vdW  Elec       q    Type
REMARK                         _______ _______ _______ _____ _____    ______ ____
ROOT
ATOM      4  N   UNL     1       1.424   0.530  23.123  0.00  0.00    -0.190 NA
ATOM      5  C   UNL     1       0.658   0.319  23.346  0.00  0.00    +0.323 C 
ATOM      6  O   UNL     1       0.290  -0.331  22.996  0.00  0.00    -0.251 OA
ATOM      7  N   UNL     1       0.261   0.758  23.921  0.00  0.00    -0.263 N 
ATOM      8  C   UNL     1       0.628   1.407  24.271  0.00  0.00    +0.095 C 
ATOM      9  C   UNL     1       0.231   1.847  24.845  0.00  0.00    +0.022 C 
ATOM     10  C   UNL     1      -0.534   1.635  25.068  0.00  0.00    +0.015 C 
ATOM     15  C   UNL     1      -0.902   0.986  24.718  0.00  0.00    +0.026 C 
ATOM     31  C   UNL     1      -0.505   0.547  24.144  0.00  0.00    +0.095 C 
ENDROOT
BRANCH   4   2
ATOM      1  C   UNL     1       2.640  -0.005  22.596  0.00  0.00    +0.023 C 
ATOM      2  C   UNL     1       1.822   0.090  22.548  0.00  0.00    +0.097 C 
ATOM      3  C   UNL     1       1.401  -0.253  21.927  0.00  0.00    +0.023 C 
ENDBRANCH   4   2
BRANCH  10  11
ATOM     11  C   UNL     1      -0.932   2.075  25.643  0.00  0.00    +0.114 C 
BRANCH  11  12
ATOM     12  C   UNL     1      -0.535   2.667  26.058  0.00  0.00    +0.365 C 
ATOM     13  O   UNL     1      -0.111   2.479  26.740  0.00  0.00    -0.246 OA
ATOM     14  O   UNL     1      -0.562   3.447  25.789  0.00  0.00    -0.246 OA
ENDBRANCH  11  12
ENDBRANCH  10  11
BRANCH  15  16
ATOM     16  C   UNL     1      -1.668   0.775  24.942  0.00  0.00    +0.047 C 
BRANCH  16  17
ATOM     17  C   UNL     1      -2.284   0.818  24.395  0.00  0.00    +0.053 C 
ATOM     18  N   UNL     1      -2.334   1.460  23.880  0.00  0.00    -0.274 NA
ATOM     19  C   UNL     1      -2.951   1.503  23.332  0.00  0.00    +0.130 C 
ATOM     20  C   UNL     1      -3.517   0.903  23.301  0.00  0.00    +0.053 C 
ATOM     21  C   UNL     1      -3.466   0.260  23.816  0.00  0.00    -0.019 A 
ATOM     22  C   UNL     1      -2.850   0.217  24.364  0.00  0.00    +0.009 A 
ATOM     23  C   UNL     1      -2.799  -0.425  24.879  0.00  0.00    -0.003 A 
ATOM     24  C   UNL     1      -3.364  -1.024  24.847  0.00  0.00    -0.023 A 
ATOM     25  C   UNL     1      -3.981  -0.981  24.300  0.00  0.00    -0.005 A 
ATOM     26  C   UNL     1      -4.031  -0.340  23.785  0.00  0.00    -0.004 A 
BRANCH  24  27
ATOM     27  C   UNL     1      -3.314  -1.667  25.363  0.00  0.00    +0.019 C 
ATOM     28  C   UNL     1      -3.264  -2.309  25.877  0.00  0.00    +0.004 C 
ATOM     29  C   UNL     1      -3.600  -1.196  25.977  0.00  0.00    +0.004 C 
ATOM     30  C   UNL     1      -3.028  -2.137  24.747  0.00  0.00    +0.004 C 
ENDBRANCH  24  27
ENDBRANCH  16  17
ENDBRANCH  15  16
TORSDOF 6
ENDMDL
MODEL 4
REMARK VINA RESULT:     -10.7      2.349      3.975
REMARK  Name = 
REMARK  6 active torsions:
REMARK  status: ('A' for Active; 'I' for Inactive)
REMARK    1  A    between atoms: C_2  and  N_4
REMARK    2  A    between atoms: C_10  and  C_11
REMARK    3  A    between atoms: C_11  and  C_12
REMARK    4  A    between atoms: C_15  and  C_16
REMARK    5  A    between atoms: C_16  and  C_17
REMARK    6  A    between atoms: C_24  and  C_27
REMARK                            x       y       z     vdW  Elec       q    Type
REMARK                         _______ _______ _______ _____ _____    ______ ____
ROOT
ATOM      4  N   UNL     1       0.944  -0.345  23.096  0.00  0.00    -0.190 NA
ATOM      5  C   UNL     1       0.472   0.258  23.402  0.00  0.00    +0.323 C 
ATOM      6  O   UNL     1       0.621   1.043  23.197  0.00  0.00    -0.251 OA
ATOM      7  N   UNL     1      -0.150   0.076  23.913  0.00  0.00    -0.263 N 
ATOM      8  C   UNL     1      -0.299  -0.708  24.118  0.00  0.00    +0.095 C 
ATOM      9  C   UNL     1      -0.921  -0.891  24.628  0.00  0.00    +0.022 C 
ATOM     10  C   UNL     1      -1.393  -0.288  24.934  0.00  0.00    +0.015 C 
ATOM     15  C   UNL     1      -1.244   0.497  24.729  0.00  0.00    +0.026 C 
ATOM     31  C   UNL     1      -0.623   0.679  24.219  0.00  0.00    +0.095 C 
ENDROOT
BRANCH   4   2
ATOM      1  C   UNL     1       1.483  -0.289  21.774  0.00  0.00    +0.023 C 
ATOM      2  C   UNL     1       1.566  -0.163  22.585  0.00  0.00    +0.097 C 
ATOM      3  C   UNL     1       2.270   0.146  22.885  0.00  0.00    +0.023 C 
ENDBRANCH   4   2
BRANCH  10  11
ATOM     11  C   UNL     1      -2.015  -0.470  25.445  0.00  0.00    +0.114 C 
BRANCH  11  12
ATOM     12  C   UNL     1      -2.401  -1.197  25.383  0.00  0.00    +0.365 C 
ATOM     13  O   UNL     1      -3.056  -1.274  24.886  0.00  0.00    -0.246 OA
ATOM     14  O   UNL     1      -2.132  -1.845  25.817  0.00  0.00    -0.246 OA
ENDBRANCH  11  12
ENDBRANCH  10  11
BRANCH  15  16
ATOM     16  C   UNL     1      -1.717   1.100  25.036  0.00  0.00    +0.047 C 
BRANCH  16  17
ATOM     17  C   UNL     1      -1.368   1.768  25.371  0.00  0.00    +0.053 C 
ATOM     18  N   UNL     1      -0.623   1.711  25.723  0.00  0.00    -0.274 NA
ATOM     19  C   UNL     1      -0.273   2.380  26.058  0.00  0.00    +0.130 C 
ATOM     20  C   UNL     1      -0.669   3.104  26.042  0.00  0.00    +0.053 C 
ATOM     21  C   UNL     1      -1.413   3.161  25.690  0.00  0.00    -0.019 A 
ATOM     22  C   UNL     1      -1.763   2.492  25.354  0.00  0.00    +0.009 A 
ATOM     23  C   UNL     1      -2.507   2.549  25.003  0.00  0.00    -0.003 A 
ATOM     24  C   UNL     1      -2.901   3.272  24.986  0.00  0.00    -0.023 A 
ATOM     25  C   UNL     1      -2.552   3.941  25.322  0.00  0.00    -0.005 A 
ATOM     26  C   UNL     1      -1.808   3.885  25.673  0.00  0.00    -0.004 A 
BRANCH  24  27
ATOM     27  C   UNL     1      -3.646   3.329  24.635  0.00  0.00    +0.019 C 
ATOM     28  C   UNL     1      -4.389   3.386  24.284  0.00  0.00    +0.004 C 
ATOM     29  C   UNL     1      -3.290   3.409  23.895  0.00  0.00    +0.004 C 
ATOM     30  C   UNL     1      -4.001   3.249  25.376  0.00  0.00    +0.004 C 
ENDBRANCH  24  27
ENDBRANCH  16  17
ENDBRANCH  15  16
TORSDOF 6
ENDMDL
MODEL 5
REMARK VINA RESULT:     -10.6      1.650      4.423
REMARK  Name = 
REMARK  6 active torsions:
REMARK  status: ('A' for Active; 'I' for Inactive)
REMARK    1  A    between atoms: C_2  and  N_4
REMARK    2  A    between atoms: C_10  and  C_11
REMARK    3  A    between atoms: C_11  and  C_12
REMARK    4  A    between atoms: C_15  and  C_16
REMARK    5  A    between atoms: C_16  and  C_17
REMARK    6  A    between atoms: C_24  and  C_27
REMARK                            x       y       z     vdW  Elec       q    Type
REMARK                         _______ _______ _______ _____ _____    ______ ____
ROOT
ATOM      4  N   UNL     1      -2.199   4.235  25.120  0.00  0.00    -0.190 NA
ATOM      5  C   UNL     1      -2.122   3.435  24.934  0.00  0.00    +0.323 C 
ATOM      6  O   UNL     1      -1.394   3.137  24.686  0.00  0.00    -0.251 OA
ATOM      7  N   UNL     1      -2.774   2.933  24.997  0.00  0.00    -0.263 N 
ATOM      8  C   UNL     1      -3.501   3.230  25.245  0.00  0.00    +0.095 C 
ATOM      9  C   UNL     1      -4.153   2.729  25.307  0.00  0.00    +0.022 C 
ATOM     10  C   UNL     1      -4.076   1.929  25.121  0.00  0.00    +0.015 C 
ATOM     15  C   UNL     1      -3.348   1.631  24.873  0.00  0.00    +0.026 C 
ATOM     31  C   UNL     1      -2.697   2.133  24.811  0.00  0.00    +0.095 C 
ENDROOT
BRANCH   4   2
ATOM      1  C   UNL     1      -1.659   5.553  25.007  0.00  0.00    +0.023 C 
ATOM      2  C   UNL     1      -1.547   4.738  25.058  0.00  0.00    +0.097 C 
ATOM      3  C   UNL     1      -0.784   4.424  25.047  0.00  0.00    +0.023 C 
ENDBRANCH   4   2
BRANCH  10  11
ATOM     11  C   UNL     1      -4.728   1.426  25.184  0.00  0.00    +0.114 C 
BRANCH  11  12
ATOM     12  C   UNL     1      -5.483   1.741  25.287  0.00  0.00    +0.365 C 
ATOM     13  O   UNL     1      -5.947   1.923  24.629  0.00  0.00    -0.246 OA
ATOM     14  O   UNL     1      -5.774   1.874  26.048  0.00  0.00    -0.246 OA
ENDBRANCH  11  12
ENDBRANCH  10  11
BRANCH  15  16
ATOM     16  C   UNL     1      -3.271   0.830  24.687  0.00  0.00    +0.047 C 
BRANCH  16  17
ATOM     17  C   UNL     1      -2.629   0.400  24.975  0.00  0.00    +0.053 C 
ATOM     18  N   UNL     1      -2.002   0.791  25.342  0.00  0.00    -0.274 NA
ATOM     19  C   UNL     1      -1.359   0.360  25.630  0.00  0.00    +0.130 C 
ATOM     20  C   UNL     1      -1.344  -0.461  25.550  0.00  0.00    +0.053 C 
ATOM     21  C   UNL     1      -1.971  -0.852  25.182  0.00  0.00    -0.019 A 
ATOM     22  C   UNL     1      -2.615  -0.421  24.894  0.00  0.00    +0.009 A 
ATOM     23  C   UNL     1      -3.241  -0.812  24.528  0.00  0.00    -0.003 A 
ATOM     24  C   UNL     1      -3.226  -1.632  24.448  0.00  0.00    -0.023 A 
ATOM     25  C   UNL     1      -2.583  -2.063  24.735  0.00  0.00    -0.005 A 
ATOM     26  C   UNL     1      -1.956  -1.673  25.102  0.00  0.00    -0.004 A 
BRANCH  24  27
ATOM     27  C   UNL     1      -3.853  -2.023  24.080  0.00  0.00    +0.019 C 
ATOM     28  C   UNL     1      -4.479  -2.413  23.713  0.00  0.00    +0.004 C 
ATOM     29  C   UNL     1      -3.875  -2.569  24.699  0.00  0.00    +0.004 C 
ATOM     30  C   UNL     1      -3.830  -1.477  23.462  0.00  0.00    +0.004 C 
ENDBRANCH  24  27
ENDBRANCH  16  17
ENDBRANCH  15  16
TORSDOF 6
ENDMDL
MODEL 6
REMARK VINA RESULT:     -10.5      2.210      5.372
REMARK  Name = 
REMARK  6 active torsions:
REMARK  status: ('A' for Active; 'I' for Inactive)
REMARK    1  A    between atoms: C_2  and  N_4
REMARK    2  A    between atoms: C_10  and  C_11
REMARK    3  A    between atoms: C_11  and  C_12
REMARK    4  A    between atoms: C_15  and  C_16
REMARK    5  A    between atoms: C_16  and  C_17
REMARK    6  A    between atoms: C_24  and  C_27
REMARK                            x       y       z     vdW  Elec       q    Type
REMARK                         _______ _______ _______ _____ _____    ______ ____
ROOT
ATOM      4  N   UNL     1      -0.738   3.321  24.735  0.00  0.00    -0.190 NA
ATOM      5  C   UNL     1      -1.145   2.610  24.824  0.00  0.00    +0.323 C 
ATOM      6  O   UNL     1      -1.866   2.594  25.225  0.00  0.00    -0.251 OA
ATOM      7  N   UNL     1      -0.832   1.913  24.511  0.00  0.00    -0.263 N 
ATOM      8  C   UNL     1      -0.112   1.928  24.111  0.00  0.00    +0.095 C 
ATOM      9  C   UNL     1       0.202   1.232  23.799  0.00  0.00    +0.022 C 
ATOM     10  C   UNL     1      -0.205   0.521  23.888  0.00  0.00    +0.015 C 
ATOM     15  C   UNL     1      -0.925   0.505  24.288  0.00  0.00    +0.026 C 
ATOM     31  C   UNL     1      -1.239   1.201  24.600  0.00  0.00    +0.095 C 
ENDROOT
BRANCH   4   2
ATOM      1  C   UNL     1      -0.947   4.732  24.648  0.00  0.00    +0.023 C 
ATOM      2  C   UNL     1      -1.052   4.018  25.047  0.00  0.00    +0.097 C 
ATOM      3  C   UNL     1      -1.470   4.000  25.758  0.00  0.00    +0.023 C 
ENDBRANCH   4   2
BRANCH  10  11
ATOM     11  C   UNL     1       0.109  -0.176  23.575  0.00  0.00    +0.114 C 
BRANCH  11  12
ATOM     12  C   UNL     1       0.758  -0.145  23.067  0.00  0.00    +0.365 C 
ATOM     13  O   UNL     1       0.641  -0.078  22.253  0.00  0.00    -0.246 OA
ATOM     14  O   UNL     1       1.523  -0.180  23.374  0.00  0.00    -0.246 OA
ENDBRANCH  11  12
ENDBRANCH  10  11
BRANCH  15  16
ATOM     16  C   UNL     1      -1.333  -0.207  24.377  0.00  0.00    +0.047 C 
BRANCH  16  17
ATOM     17  C   UNL     1      -1.525  -0.481  25.131  0.00  0.00    +0.053 C 
ATOM     18  N   UNL     1      -1.015  -0.339  25.764  0.00  0.00    -0.274 NA
ATOM     19  C   UNL     1      -1.207  -0.614  26.518  0.00  0.00    +0.130 C 
ATOM     20  C   UNL     1      -1.909  -1.030  26.639  0.00  0.00    +0.053 C 
ATOM     21  C   UNL     1      -2.419  -1.172  26.007  0.00  0.00    -0.019 A 
ATOM     22  C   UNL     1      -2.227  -0.898  25.252  0.00  0.00    +0.009 A 
ATOM     23  C   UNL     1      -2.737  -1.040  24.619  0.00  0.00    -0.003 A 
ATOM     24  C   UNL     1      -3.438  -1.456  24.740  0.00  0.00    -0.023 A 
ATOM     25  C   UNL     1      -3.630  -1.730  25.495  0.00  0.00    -0.005 A 
ATOM     26  C   UNL     1      -3.121  -1.588  26.128  0.00  0.00    -0.004 A 
BRANCH  24  27
ATOM     27  C   UNL     1      -3.949  -1.598  24.108  0.00  0.00    +0.019 C 
ATOM     28  C   UNL     1      -4.459  -1.740  23.476  0.00  0.00    +0.004 C 
ATOM     29  C   UNL     1      -3.627  -2.352  24.018  0.00  0.00    +0.004 C 
ATOM     30  C   UNL     1      -4.271  -0.843  24.199  0.00  0.00    +0.004 C 
ENDBRANCH  24  27
ENDBRANCH  16  17
ENDBRANCH  15  16
TORSDOF 6
ENDMDL
MODEL 7
REMARK VINA RESULT:     -10.3      1.992      4.216
REMARK  Name = 
REMARK  6 active torsions:
REMARK  status: ('A' for Active; 'I' for Inactive)
REMARK    1  A    between atoms: C_2  and  N_4
REMARK    2  A    between atoms: C_10  and  C_11
REMARK    3  A    between atoms: C_11  and  C_12
REMARK    4  A    between atoms: C_15  and  C_16
REMARK    5  A    between atoms: C_16  and  C_17
REMARK    6  A    between atoms: C_24  and  C_27
REMARK                            x       y       z     vdW  Elec       q    Type
REMARK                         _______ _______ _______ _____ _____    ______ ____
ROOT
ATOM      4  N   UNL     1      -5.139   2.941  25.040  0.00  0.00    -0.190 NA
ATOM      5  C   UNL     1      -4.757   2.211  25.070  0.00  0.00    +0.323 C 
ATOM      6  O   UNL     1      -4.917   1.686  25.686  0.00  0.00    -0.251 OA
ATOM      7  N   UNL     1      -4.215   2.005  24.482  0.00  0.00    -0.263 N 
ATOM      8  C   UNL     1      -4.056   2.529  23.866  0.00  0.00    +0.095 C 
ATOM      9  C   UNL     1      -3.514   2.324  23.279  0.00  0.00    +0.022 C 
ATOM     10  C   UNL     1      -3.133   1.593  23.309  0.00  0.00    +0.015 C 
ATOM     15  C   UNL     1      -3.292   1.069  23.924  0.00  0.00    +0.026 C 
ATOM     31  C   UNL     1      -3.833   1.274  24.512  0.00  0.00    +0.095 C 
ENDROOT
BRANCH   4   2
ATOM      1  C   UNL     1      -6.255   2.605  25.867  0.00  0.00    +0.023 C 
ATOM      2  C   UNL     1      -5.681   3.147  25.628  0.00  0.00    +0.097 C 
ATOM      3  C   UNL     1      -5.648   3.895  25.976  0.00  0.00    +0.023 C 
ENDBRANCH   4   2
BRANCH  10  11
ATOM     11  C   UNL     1      -2.591   1.387  22.721  0.00  0.00    +0.114 C 
BRANCH  11  12
ATOM     12  C   UNL     1      -2.230   1.975  22.268  0.00  0.00    +0.365 C 
ATOM     13  O   UNL     1      -1.572   2.377  22.563  0.00  0.00    -0.246 OA
ATOM     14  O   UNL     1      -2.527   2.160  21.521  0.00  0.00    -0.246 OA
ENDBRANCH  11  12
ENDBRANCH  10  11
BRANCH  15  16
ATOM     16  C   UNL     1      -2.910   0.338  23.953  0.00  0.00    +0.047 C 
BRANCH  16  17
ATOM     17  C   UNL     1      -3.349  -0.354  24.043  0.00  0.00    +0.053 C 
ATOM     18  N   UNL     1      -4.139  -0.375  23.804  0.00  0.00    -0.274 NA
ATOM     19  C   UNL     1      -4.579  -1.068  23.893  0.00  0.00    +0.130 C 
ATOM     20  C   UNL     1      -4.229  -1.739  24.223  0.00  0.00    +0.053 C 
ATOM     21  C   UNL     1      -3.439  -1.718  24.462  0.00  0.00    -0.019 A 
ATOM     22  C   UNL     1      -2.999  -1.025  24.372  0.00  0.00    +0.009 A 
ATOM     23  C   UNL     1      -2.210  -1.004  24.611  0.00  0.00    -0.003 A 
ATOM     24  C   UNL     1      -1.861  -1.674  24.940  0.00  0.00    -0.023 A 
ATOM     25  C   UNL     1      -2.301  -2.368  25.030  0.00  0.00    -0.005 A 
ATOM     26  C   UNL     1      -3.090  -2.389  24.791  0.00  0.00    -0.004 A 
BRANCH  24  27
ATOM     27  C   UNL     1      -1.071  -1.654  25.179  0.00  0.00    +0.019 C 
ATOM     28  C   UNL     1      -0.283  -1.633  25.418  0.00  0.00    +0.004 C 
ATOM     29  C   UNL     1      -1.292  -1.266  25.874  0.00  0.00    +0.004 C 
ATOM     30  C   UNL     1      -0.851  -2.041  24.484  0.00  0.00    +0.004 C 
ENDBRANCH  24  27
ENDBRANCH  16  17
ENDBRANCH  15  16
TORSDOF 6
ENDMDL
