MODEL 1
REMARK VINA RESULT:      -9.0      0.000      0.000
REMARK  Name = 
REMARK  5 active torsions:
REMARK  status: ('A' for Active; 'I' for Inactive)
REMARK    1  A    between atoms: C_3  and  C_4
REMARK    2  A    between atoms: C_4  and  N_5
REMARK    3  A    between atoms: C_6  and  C_8
REMARK    4  A    between atoms: C_13  and  N_14
REMARK    5  A    between atoms: N_14  and  C_15
REMARK                            x       y       z     vdW  Elec       q    Type
REMARK                         _______ _______ _______ _____ _____    ______ ____
ROOT
ATOM      1  O   UNL     1      -4.879   1.435  25.128  0.00  0.00    -0.219 OA
ATOM      2  C   UNL     1      -4.193   1.199  24.733  0.00  0.00    +0.199 C 
ATOM      3  C   UNL     1      -3.579   1.693  24.492  0.00  0.00    +0.169 C 
ATOM     11  O   UNL     1      -3.008   1.226  24.120  0.00  0.00    -0.350 OA
ATOM     12  C   UNL     1      -3.272   0.444  24.132  0.00  0.00    +0.162 C 
ATOM     13  C   UNL     1      -4.004   0.427  24.511  0.00  0.00    +0.135 C 
ENDROOT
BRANCH   3   4
ATOM      4  C   UNL     1      -3.540   2.509  24.602  0.00  0.00    +0.147 C 
BRANCH   4   5
ATOM      5  N   UNL     1      -2.827   2.862  24.822  0.00  0.00    -0.203 NA
ATOM      6  C   UNL     1      -2.768   3.684  24.858  0.00  0.00    +0.241 C 
ATOM      7  O   UNL     1      -3.422   4.153  24.675  0.00  0.00    -0.273 OA
BRANCH   6   8
ATOM      8  C   UNL     1      -2.056   4.037  25.078  0.00  0.00    +0.078 C 
ATOM      9  C   UNL     1      -1.627   4.710  25.285  0.00  0.00    +0.010 C 
ATOM     10  C   UNL     1      -1.252   3.976  25.250  0.00  0.00    +0.010 C 
ENDBRANCH   6   8
ENDBRANCH   4   5
ENDBRANCH   3   4
BRANCH  13  14
ATOM     14  N   UNL     1      -4.466  -0.243  24.645  0.00  0.00    -0.216 NA
BRANCH  14  15
ATOM     15  C   UNL     1      -4.117  -0.990  24.657  0.00  0.00    +0.076 C 
ATOM     16  C   UNL     1      -4.176  -1.483  23.997  0.00  0.00    +0.036 C 
ATOM     17  C   UNL     1      -3.826  -2.230  24.009  0.00  0.00    +0.090 C 
ATOM     18  N   UNL     1      -3.417  -2.485  24.680  0.00  0.00    -0.218 NA
ATOM     19  C   UNL     1      -3.359  -1.991  25.338  0.00  0.00    +0.090 C 
ATOM     20  C   UNL     1      -3.708  -1.244  25.326  0.00  0.00    +0.036 C 
ENDBRANCH  14  15
ENDBRANCH  13  14
TORSDOF 5
ENDMDL
MODEL 2
REMARK VINA RESULT:      -8.6      1.074      4.753
REMARK  Name = 
REMARK  5 active torsions:
REMARK  status: ('A' for Active; 'I' for Inactive)
REMARK    1  A    between atoms: C_3  and  C_4
REMARK    2  A    between atoms: C_4  and  N_5
REMARK    3  A    between atoms: C_6  and  C_8
REMARK    4  A    between atoms: C_13  and  N_14
REMARK    5  A    between atoms: N_14  and  C_15
REMARK                            x       y       z     vdW  Elec       q    Type
REMARK                         _______ _______ _______ _____ _____    ______ ____
ROOT
ATOM      1  O   UNL     1      -4.854   1.721  24.298  0.00  0.00    -0.219 OA
ATOM      2  C   UNL     1      -4.045   1.596  24.405  0.00  0.00    +0.199 C 
ATOM      3  C   UNL     1      -3.667   0.863  24.429  0.00  0.00    +0.169 C 
ATOM     11  O   UNL     1      -2.861   0.996  24.546  0.00  0.00    -0.350 OA
ATOM     12  C   UNL     1      -2.742   1.812  24.595  0.00  0.00    +0.162 C 
ATOM     13  C   UNL     1      -3.473   2.182  24.508  0.00  0.00    +0.135 C 
ENDROOT
BRANCH   3   4
ATOM      4  C   UNL     1      -4.030   0.127  24.349  0.00  0.00    +0.147 C 
BRANCH   4   5
ATOM      5  N   UNL     1      -3.624  -0.559  24.564  0.00  0.00    -0.203 NA
ATOM      6  C   UNL     1      -3.947  -1.299  24.397  0.00  0.00    +0.241 C 
ATOM      7  O   UNL     1      -4.676  -1.354  24.014  0.00  0.00    -0.273 OA
BRANCH   6   8
ATOM      8  C   UNL     1      -3.542  -1.984  24.612  0.00  0.00    +0.078 C 
ATOM      9  C   UNL     1      -3.379  -2.573  25.165  0.00  0.00    +0.010 C 
ATOM     10  C   UNL     1      -3.003  -2.581  24.431  0.00  0.00    +0.010 C 
ENDBRANCH   6   8
ENDBRANCH   4   5
ENDBRANCH   3   4
BRANCH  13  14
ATOM     14  N   UNL     1      -3.610   2.995  24.521  0.00  0.00    -0.216 NA
BRANCH  14  15
ATOM     15  C   UNL     1      -3.142   3.485  24.992  0.00  0.00    +0.076 C 
ATOM     16  C   UNL     1      -2.441   3.799  24.690  0.00  0.00    +0.036 C 
ATOM     17  C   UNL     1      -1.973   4.289  25.161  0.00  0.00    +0.090 C 
ATOM     18  N   UNL     1      -2.206   4.465  25.933  0.00  0.00    -0.218 NA
ATOM     19  C   UNL     1      -2.907   4.150  26.234  0.00  0.00    +0.090 C 
ATOM     20  C   UNL     1      -3.375   3.661  25.763  0.00  0.00    +0.036 C 
ENDBRANCH  14  15
ENDBRANCH  13  14
TORSDOF 5
ENDMDL
MODEL 3
REMARK VINA RESULT:      -8.4      1.683      5.155
REMARK  Name = 
REMARK  5 active torsions:
REMARK  status: ('A' for Active; 'I' for Inactive)
REMARK    1  A    between atoms: C_3  and  C_4
REMARK    2  A    between atoms: C_4  and  N_5
REMARK    3  A    between atoms: C_6  and  C_8
REMARK    4  A    between atoms: C_13  and  N_14
REMARK    5  A    between atoms: N_14  and  C_15
REMARK                            x       y       z     vdW  Elec       q    Type
REMARK                         _______ _______ _______ _____ _____    ______ ____
ROOT
ATOM      1  O   UNL     1      -0.649   0.740  25.750  0.00  0.00    -0.219 OA
ATOM      2  C   UNL     1      -1.304   1.057  25.361  0.00  0.00    +0.199 C 
ATOM      3  C   UNL     1      -1.842   0.638  24.897  0.00  0.00    +0.169 C 
ATOM     11  O   UNL     1      -2.407   1.172  24.617  0.00  0.00    -0.350 OA
ATOM     12  C   UNL     1      -2.216   1.920  24.910  0.00  0.00    +0.162 C 
ATOM     13  C   UNL     1      -1.535   1.849  25.369  0.00  0.00    +0.135 C 
ENDROOT
BRANCH   3   4
ATOM      4  C   UNL     1      -1.820  -0.170  24.740  0.00  0.00    +0.147 C 
BRANCH   4   5
ATOM      5  N   UNL     1      -2.524  -0.593  24.649  0.00  0.00    -0.203 NA
ATOM      6  C   UNL     1      -2.502  -1.402  24.494  0.00  0.00    +0.241 C 
ATOM      7  O   UNL     1      -1.777  -1.791  24.431  0.00  0.00    -0.273 OA
BRANCH   6   8
ATOM      8  C   UNL     1      -3.205  -1.824  24.404  0.00  0.00    +0.078 C 
ATOM      9  C   UNL     1      -3.965  -1.886  24.089  0.00  0.00    +0.010 C 
ATOM     10  C   UNL     1      -3.662  -2.492  24.561  0.00  0.00    +0.010 C 
ENDBRANCH   6   8
ENDBRANCH   4   5
ENDBRANCH   3   4
BRANCH  13  14
ATOM     14  N   UNL     1      -1.152   2.462  25.767  0.00  0.00    -0.216 NA
BRANCH  14  15
ATOM     15  C   UNL     1      -1.301   3.246  25.559  0.00  0.00    +0.076 C 
ATOM     16  C   UNL     1      -0.779   3.647  25.061  0.00  0.00    +0.036 C 
ATOM     17  C   UNL     1      -0.928   4.431  24.852  0.00  0.00    +0.090 C 
ATOM     18  N   UNL     1      -1.599   4.815  25.141  0.00  0.00    -0.218 NA
ATOM     19  C   UNL     1      -2.121   4.413  25.639  0.00  0.00    +0.090 C 
ATOM     20  C   UNL     1      -1.972   3.630  25.847  0.00  0.00    +0.036 C 
ENDBRANCH  14  15
ENDBRANCH  13  14
TORSDOF 5
ENDMDL
MODEL 4
REMARK VINA RESULT:      -8.1      1.528      2.016
REMARK  Name = 
REMARK  5 active torsions:
REMARK  status: ('A' for Active; 'I' for Inactive)
REMARK    1  A    between atoms: C_3  and  C_4
REMARK    2  A    between atoms: C_4  and  N_5
REMARK    3  A    between atoms: C_6  and  C_8
REMARK    4  A    between atoms: C_13  and  N_14
REMARK    5  A    between atoms: N_14  and  C_15
REMARK                            x       y       z     vdW  Elec       q    Type
REMARK                         _______ _______ _______ _____ _____    ______ ____
ROOT
ATOM      1  O   UNL     1      -0.640   0.287  24.807  0.00  0.00    -0.219 OA
ATOM      2  C   UNL     1      -1.425   0.539  24.845  0.00  0.00    +0.199 C 
ATOM      3  C   UNL     1      -1.684   1.287  25.078  0.00  0.00    +0.169 C 
ATOM     11  O   UNL     1      -2.508   1.297  25.034  0.00  0.00    -0.350 OA
ATOM     12  C   UNL     1      -2.757   0.555  24.772  0.00  0.00    +0.162 C 
ATOM     13  C   UNL     1      -2.089   0.087  24.656  0.00  0.00    +0.135 C 
ENDROOT
BRANCH   3   4
ATOM      4  C   UNL     1      -1.203   1.914  25.315  0.00  0.00    +0.147 C 
BRANCH   4   5
ATOM      5  N   UNL     1      -1.437   2.692  25.165  0.00  0.00    -0.203 NA
ATOM      6  C   UNL     1      -0.973   3.319  25.431  0.00  0.00    +0.241 C 
ATOM      7  O   UNL     1      -0.276   3.171  25.846  0.00  0.00    -0.273 OA
BRANCH   6   8
ATOM      8  C   UNL     1      -1.207   4.097  25.282  0.00  0.00    +0.078 C 
ATOM      9  C   UNL     1      -1.042   4.846  24.980  0.00  0.00    +0.010 C 
ATOM     10  C   UNL     1      -1.775   4.692  25.326  0.00  0.00    +0.010 C 
ENDBRANCH   6   8
ENDBRANCH   4   5
ENDBRANCH   3   4
BRANCH  13  14
ATOM     14  N   UNL     1      -2.084  -0.697  24.396  0.00  0.00    -0.216 NA
BRANCH  14  15
ATOM     15  C   UNL     1      -2.744  -1.176  24.517  0.00  0.00    +0.076 C 
ATOM     16  C   UNL     1      -2.795  -1.644  25.195  0.00  0.00    +0.036 C 
ATOM     17  C   UNL     1      -3.455  -2.123  25.316  0.00  0.00    +0.090 C 
ATOM     18  N   UNL     1      -4.064  -2.135  24.759  0.00  0.00    -0.218 NA
ATOM     19  C   UNL     1      -4.013  -1.667  24.082  0.00  0.00    +0.090 C 
ATOM     20  C   UNL     1      -3.353  -1.187  23.961  0.00  0.00    +0.036 C 
ENDBRANCH  14  15
ENDBRANCH  13  14
TORSDOF 5
ENDMDL
