MODEL 1
REMARK VINA RESULT:     -10.1      0.000      0.000
REMARK  Name = 
REMARK  5 active torsions:
REMARK  status: ('A' for Active; 'I' for Inactive)
REMARK    1  A    between atoms: C_1  and  N_2
REMARK    2  A    between atoms: C_1  and  C_24
REMARK    3  A    between atoms: C_6  and  C_7
REMARK    4  A    between atoms: C_9  and  C_12
REMARK    5  A    between atoms: C_15  and  C_18
REMARK                            x       y       z     vdW  Elec       q    Type
REMARK                         _______ _______ _______ _____ _____    ______ ____
ROOT
ATOM      7  C   UNL     1      -4.009   2.833  25.160  0.00  0.00    +0.251 A 
ATOM      8  N   UNL     1      -3.768   2.052  25.275  0.00  0.00    -0.190 NA
ATOM      9  C   UNL     1      -4.144   1.584  24.709  0.00  0.00    +0.205 A 
ATOM     10  N   UNL     1      -4.616   2.075  24.245  0.00  0.00    -0.056 NA
ATOM     11  O   UNL     1      -4.533   2.847  24.523  0.00  0.00    -0.336 OA
ENDROOT
BRANCH   9  12
ATOM     12  C   UNL     1      -4.062   0.767  24.623  0.00  0.00    +0.058 A 
ATOM     13  C   UNL     1      -4.402   0.258  25.176  0.00  0.00    +0.006 A 
ATOM     14  C   UNL     1      -4.319  -0.558  25.090  0.00  0.00    +0.019 A 
ATOM     15  C   UNL     1      -3.897  -0.865  24.452  0.00  0.00    +0.084 A 
ATOM     16  N   UNL     1      -3.557  -0.357  23.898  0.00  0.00    -0.244 NA
ATOM     17  C   UNL     1      -3.639   0.460  23.984  0.00  0.00    +0.102 A 
BRANCH  15  18
ATOM     18  C   UNL     1      -3.814  -1.682  24.366  0.00  0.00    +0.056 A 
ATOM     19  C   UNL     1      -3.261  -2.090  24.821  0.00  0.00    +0.104 A 
ATOM     20  N   UNL     1      -3.178  -2.907  24.735  0.00  0.00    -0.222 NA
ATOM     21  C   UNL     1      -3.649  -3.315  24.194  0.00  0.00    +0.199 A 
ATOM     22  N   UNL     1      -4.203  -2.906  23.739  0.00  0.00    -0.222 NA
ATOM     23  C   UNL     1      -4.285  -2.090  23.825  0.00  0.00    +0.104 A 
ENDBRANCH  15  18
ENDBRANCH   9  12
BRANCH   7   6
ATOM      2  N   UNL     1      -3.102   3.951  25.458  0.00  0.00    -0.263 NA
ATOM      3  C   UNL     1      -3.072   4.540  26.035  0.00  0.00    +0.073 C 
ATOM      4  C   UNL     1      -3.719   4.437  26.537  0.00  0.00    +0.019 C 
ATOM      5  C   UNL     1      -4.149   3.786  26.271  0.00  0.00    +0.027 C 
ATOM      6  C   UNL     1      -3.768   3.485  25.603  0.00  0.00    +0.138 C 
BRANCH   2   1
ATOM      1  C   UNL     1      -2.562   3.847  24.843  0.00  0.00    +0.101 C 
BRANCH   1  24
ATOM     24  C   UNL     1      -1.804   4.166  24.902  0.00  0.00    +0.013 A 
ATOM     25  C   UNL     1      -1.680   4.966  24.743  0.00  0.00    +0.000 A 
ATOM     26  C   UNL     1      -0.921   5.286  24.802  0.00  0.00    +0.020 A 
ATOM     27  C   UNL     1      -0.287   4.805  25.019  0.00  0.00    +0.099 A 
ATOM     28  N   UNL     1      -0.411   4.005  25.178  0.00  0.00    -0.243 NA
ATOM     29  C   UNL     1      -1.169   3.686  25.119  0.00  0.00    +0.096 A 
ENDBRANCH   1  24
ENDBRANCH   2   1
ENDBRANCH   7   6
TORSDOF 5
ENDMDL
MODEL 2
REMARK VINA RESULT:      -9.9      1.953      6.268
REMARK  Name = 
REMARK  5 active torsions:
REMARK  status: ('A' for Active; 'I' for Inactive)
REMARK    1  A    between atoms: C_1  and  N_2
REMARK    2  A    between atoms: C_1  and  C_24
REMARK    3  A    between atoms: C_6  and  C_7
REMARK    4  A    between atoms: C_9  and  C_12
REMARK    5  A    between atoms: C_15  and  C_18
REMARK                            x       y       z     vdW  Elec       q    Type
REMARK                         _______ _______ _______ _____ _____    ______ ____
ROOT
ATOM      7  C   UNL     1      -1.119  -0.516  25.328  0.00  0.00    +0.251 A 
ATOM      8  N   UNL     1      -1.167   0.231  24.980  0.00  0.00    -0.190 NA
ATOM      9  C   UNL     1      -1.129   0.795  25.580  0.00  0.00    +0.205 A 
ATOM     10  N   UNL     1      -1.058   0.398  26.299  0.00  0.00    -0.056 NA
ATOM     11  O   UNL     1      -1.051  -0.413  26.143  0.00  0.00    -0.336 OA
ENDROOT
BRANCH   9  12
ATOM     12  C   UNL     1      -1.158   1.614  25.479  0.00  0.00    +0.058 A 
ATOM     13  C   UNL     1      -0.601   2.095  25.853  0.00  0.00    +0.006 A 
ATOM     14  C   UNL     1      -0.630   2.913  25.752  0.00  0.00    +0.019 A 
ATOM     15  C   UNL     1      -1.215   3.250  25.278  0.00  0.00    +0.084 A 
ATOM     16  N   UNL     1      -1.772   2.769  24.904  0.00  0.00    -0.244 NA
ATOM     17  C   UNL     1      -1.743   1.951  25.005  0.00  0.00    +0.102 A 
BRANCH  15  18
ATOM     18  C   UNL     1      -1.244   4.069  25.177  0.00  0.00    +0.056 A 
ATOM     19  C   UNL     1      -0.609   4.463  24.827  0.00  0.00    +0.104 A 
ATOM     20  N   UNL     1      -0.638   5.282  24.726  0.00  0.00    -0.222 NA
ATOM     21  C   UNL     1      -1.301   5.705  24.975  0.00  0.00    +0.199 A 
ATOM     22  N   UNL     1      -1.935   5.310  25.324  0.00  0.00    -0.222 NA
ATOM     23  C   UNL     1      -1.907   4.492  25.425  0.00  0.00    +0.104 A 
ENDBRANCH  15  18
ENDBRANCH   9  12
BRANCH   7   6
ATOM      2  N   UNL     1      -1.803  -1.707  24.803  0.00  0.00    -0.263 NA
ATOM      3  C   UNL     1      -1.568  -2.377  24.384  0.00  0.00    +0.073 C 
ATOM      4  C   UNL     1      -0.755  -2.323  24.251  0.00  0.00    +0.019 C 
ATOM      5  C   UNL     1      -0.488  -1.619  24.589  0.00  0.00    +0.027 C 
ATOM      6  C   UNL     1      -1.136  -1.238  24.930  0.00  0.00    +0.138 C 
BRANCH   2   1
ATOM      1  C   UNL     1      -2.571  -1.535  25.053  0.00  0.00    +0.101 C 
BRANCH   1  24
ATOM     24  C   UNL     1      -3.215  -1.860  24.655  0.00  0.00    +0.013 A 
ATOM     25  C   UNL     1      -3.672  -1.388  24.156  0.00  0.00    +0.000 A 
ATOM     26  C   UNL     1      -4.318  -1.713  23.757  0.00  0.00    +0.020 A 
ATOM     27  C   UNL     1      -4.506  -2.509  23.858  0.00  0.00    +0.099 A 
ATOM     28  N   UNL     1      -4.049  -2.981  24.357  0.00  0.00    -0.243 NA
ATOM     29  C   UNL     1      -3.404  -2.657  24.755  0.00  0.00    +0.096 A 
ENDBRANCH   1  24
ENDBRANCH   2   1
ENDBRANCH   7   6
TORSDOF 5
ENDMDL
MODEL 3
REMARK VINA RESULT:      -9.1      3.281      4.689
REMARK  Name = 
REMARK  5 active torsions:
REMARK  status: ('A' for Active; 'I' for Inactive)
REMARK    1  A    between atoms: C_1  and  N_2
REMARK    2  A    between atoms: C_1  and  C_24
REMARK    3  A    between atoms: C_6  and  C_7
REMARK    4  A    between atoms: C_9  and  C_12
REMARK    5  A    between atoms: C_15  and  C_18
REMARK                            x       y       z     vdW  Elec       q    Type
REMARK                         _______ _______ _______ _____ _____    ______ ____
ROOT
ATOM      7  C   UNL     1      -2.557   0.188  24.898  0.00  0.00    +0.251 A 
ATOM      8  N   UNL     1      -2.008   0.259  24.285  0.00  0.00    -0.190 NA
ATOM      9  C   UNL     1      -1.258   0.117  24.597  0.00  0.00    +0.205 A 
ATOM     10  N   UNL     1      -1.343  -0.041  25.402  0.00  0.00    -0.056 NA
ATOM     11  O   UNL     1      -2.145   0.002  25.588  0.00  0.00    -0.336 OA
ENDROOT
BRANCH   9  12
ATOM     12  C   UNL     1      -0.548   0.132  24.177  0.00  0.00    +0.058 A 
ATOM     13  C   UNL     1      -0.219   0.853  23.950  0.00  0.00    +0.006 A 
ATOM     14  C   UNL     1       0.492   0.867  23.530  0.00  0.00    +0.019 A 
ATOM     15  C   UNL     1       0.872   0.161  23.338  0.00  0.00    +0.084 A 
ATOM     16  N   UNL     1       0.543  -0.560  23.566  0.00  0.00    -0.244 NA
ATOM     17  C   UNL     1      -0.168  -0.575  23.986  0.00  0.00    +0.102 A 
BRANCH  15  18
ATOM     18  C   UNL     1       1.582   0.175  22.918  0.00  0.00    +0.056 A 
ATOM     19  C   UNL     1       1.635  -0.200  22.185  0.00  0.00    +0.104 A 
ATOM     20  N   UNL     1       2.346  -0.185  21.765  0.00  0.00    -0.222 NA
ATOM     21  C   UNL     1       3.002   0.204  22.078  0.00  0.00    +0.199 A 
ATOM     22  N   UNL     1       2.948   0.578  22.812  0.00  0.00    -0.222 NA
ATOM     23  C   UNL     1       2.239   0.564  23.231  0.00  0.00    +0.104 A 
ENDBRANCH  15  18
ENDBRANCH   9  12
BRANCH   7   6
ATOM      2  N   UNL     1      -3.783   0.999  24.890  0.00  0.00    -0.263 NA
ATOM      3  C   UNL     1      -4.586   0.841  24.790  0.00  0.00    +0.073 C 
ATOM      4  C   UNL     1      -4.673   0.029  24.670  0.00  0.00    +0.019 C 
ATOM      5  C   UNL     1      -3.924  -0.314  24.696  0.00  0.00    +0.027 C 
ATOM      6  C   UNL     1      -3.373   0.285  24.832  0.00  0.00    +0.138 C 
BRANCH   2   1
ATOM      1  C   UNL     1      -3.447   1.741  25.024  0.00  0.00    +0.101 C 
BRANCH   1  24
ATOM     24  C   UNL     1      -3.920   2.416  25.009  0.00  0.00    +0.013 A 
ATOM     25  C   UNL     1      -3.966   2.872  24.323  0.00  0.00    +0.000 A 
ATOM     26  C   UNL     1      -4.440   3.548  24.307  0.00  0.00    +0.020 A 
ATOM     27  C   UNL     1      -4.867   3.767  24.978  0.00  0.00    +0.099 A 
ATOM     28  N   UNL     1      -4.822   3.311  25.664  0.00  0.00    -0.243 NA
ATOM     29  C   UNL     1      -4.349   2.636  25.679  0.00  0.00    +0.096 A 
ENDBRANCH   1  24
ENDBRANCH   2   1
ENDBRANCH   7   6
TORSDOF 5
ENDMDL
MODEL 4
REMARK VINA RESULT:      -9.1      1.825      2.613
REMARK  Name = 
REMARK  5 active torsions:
REMARK  status: ('A' for Active; 'I' for Inactive)
REMARK    1  A    between atoms: C_1  and  N_2
REMARK    2  A    between atoms: C_1  and  C_24
REMARK    3  A    between atoms: C_6  and  C_7
REMARK    4  A    between atoms: C_9  and  C_12
REMARK    5  A    between atoms: C_15  and  C_18
REMARK                            x       y       z     vdW  Elec       q    Type
REMARK                         _______ _______ _______ _____ _____    ______ ____
ROOT
ATOM      7  C   UNL     1      -0.433   1.500  25.267  0.00  0.00    +0.251 A 
ATOM      8  N   UNL     1      -1.078   0.995  25.371  0.00  0.00    -0.190 NA
ATOM      9  C   UNL     1      -1.084   0.456  24.747  0.00  0.00    +0.205 A 
ATOM     10  N   UNL     1      -0.444   0.627  24.257  0.00  0.00    -0.056 NA
ATOM     11  O   UNL     1      -0.042   1.272  24.578  0.00  0.00    -0.336 OA
ENDROOT
BRANCH   9  12
ATOM     12  C   UNL     1      -1.635  -0.148  24.633  0.00  0.00    +0.058 A 
ATOM     13  C   UNL     1      -2.439   0.032  24.580  0.00  0.00    +0.006 A 
ATOM     14  C   UNL     1      -2.989  -0.572  24.466  0.00  0.00    +0.019 A 
ATOM     15  C   UNL     1      -2.736  -1.355  24.406  0.00  0.00    +0.084 A 
ATOM     16  N   UNL     1      -1.933  -1.535  24.460  0.00  0.00    -0.244 NA
ATOM     17  C   UNL     1      -1.382  -0.931  24.574  0.00  0.00    +0.102 A 
BRANCH  15  18
ATOM     18  C   UNL     1      -3.287  -1.959  24.292  0.00  0.00    +0.056 A 
ATOM     19  C   UNL     1      -3.960  -1.822  23.835  0.00  0.00    +0.104 A 
ATOM     20  N   UNL     1      -4.511  -2.427  23.722  0.00  0.00    -0.222 NA
ATOM     21  C   UNL     1      -4.388  -3.167  24.065  0.00  0.00    +0.199 A 
ATOM     22  N   UNL     1      -3.715  -3.302  24.522  0.00  0.00    -0.222 NA
ATOM     23  C   UNL     1      -3.164  -2.699  24.636  0.00  0.00    +0.104 A 
ENDBRANCH  15  18
ENDBRANCH   9  12
BRANCH   7   6
ATOM      2  N   UNL     1      -0.407   2.918  25.654  0.00  0.00    -0.263 NA
ATOM      3  C   UNL     1      -0.083   3.345  26.280  0.00  0.00    +0.073 C 
ATOM      4  C   UNL     1       0.307   2.814  26.777  0.00  0.00    +0.019 C 
ATOM      5  C   UNL     1       0.223   2.057  26.458  0.00  0.00    +0.027 C 
ATOM      6  C   UNL     1      -0.218   2.121  25.763  0.00  0.00    +0.138 C 
BRANCH   2   1
ATOM      1  C   UNL     1      -0.843   3.230  25.027  0.00  0.00    +0.101 C 
BRANCH   1  24
ATOM     24  C   UNL     1      -1.181   3.980  25.094  0.00  0.00    +0.013 A 
ATOM     25  C   UNL     1      -0.776   4.641  24.813  0.00  0.00    +0.000 A 
ATOM     26  C   UNL     1      -1.113   5.391  24.879  0.00  0.00    +0.020 A 
ATOM     27  C   UNL     1      -1.856   5.479  25.227  0.00  0.00    +0.099 A 
ATOM     28  N   UNL     1      -2.261   4.818  25.509  0.00  0.00    -0.243 NA
ATOM     29  C   UNL     1      -1.924   4.069  25.442  0.00  0.00    +0.096 A 
ENDBRANCH   1  24
ENDBRANCH   2   1
ENDBRANCH   7   6
TORSDOF 5
ENDMDL
MODEL 5
REMARK VINA RESULT:      -8.2      1.288      5.615
REMARK  Name = 
REMARK  5 active torsions:
REMARK  status: ('A' for Active; 'I' for Inactive)
REMARK    1  A    between atoms: C_1  and  N_2
REMARK    2  A    between atoms: C_1  and  C_24
REMARK    3  A    between atoms: C_6  and  C_7
REMARK    4  A    between atoms: C_9  and  C_12
REMARK    5  A    between atoms: C_15  and  C_18
REMARK                            x       y       z     vdW  Elec       q    Type
REMARK                         _______ _______ _______ _____ _____    ______ ____
ROOT
ATOM      7  C   UNL     1      -4.028   0.122  24.679  0.00  0.00    +0.251 A 
ATOM      8  N   UNL     1      -3.430   0.674  24.541  0.00  0.00    -0.190 NA
ATOM      9  C   UNL     1      -3.632   1.371  24.933  0.00  0.00    +0.205 A 
ATOM     10  N   UNL     1      -4.354   1.250  25.312  0.00  0.00    -0.056 NA
ATOM     11  O   UNL     1      -4.599   0.478  25.155  0.00  0.00    -0.336 OA
ENDROOT
BRANCH   9  12
ATOM     12  C   UNL     1      -3.190   2.068  24.943  0.00  0.00    +0.058 A 
ATOM     13  C   UNL     1      -3.445   2.724  24.514  0.00  0.00    +0.006 A 
ATOM     14  C   UNL     1      -3.002   3.421  24.524  0.00  0.00    +0.019 A 
ATOM     15  C   UNL     1      -2.305   3.460  24.963  0.00  0.00    +0.084 A 
ATOM     16  N   UNL     1      -2.050   2.803  25.392  0.00  0.00    -0.244 NA
ATOM     17  C   UNL     1      -2.492   2.107  25.382  0.00  0.00    +0.102 A 
BRANCH  15  18
ATOM     18  C   UNL     1      -1.862   4.156  24.973  0.00  0.00    +0.056 A 
ATOM     19  C   UNL     1      -1.075   4.148  24.724  0.00  0.00    +0.104 A 
ATOM     20  N   UNL     1      -0.633   4.845  24.734  0.00  0.00    -0.222 NA
ATOM     21  C   UNL     1      -0.977   5.548  24.993  0.00  0.00    +0.199 A 
ATOM     22  N   UNL     1      -1.763   5.556  25.242  0.00  0.00    -0.222 NA
ATOM     23  C   UNL     1      -2.206   4.860  25.232  0.00  0.00    +0.104 A 
ENDBRANCH  15  18
ENDBRANCH   9  12
BRANCH   7   6
ATOM      2  N   UNL     1      -3.532  -1.260  24.595  0.00  0.00    -0.263 NA
ATOM      3  C   UNL     1      -3.756  -1.935  24.178  0.00  0.00    +0.073 C 
ATOM      4  C   UNL     1      -4.412  -1.744  23.715  0.00  0.00    +0.019 C 
ATOM      5  C   UNL     1      -4.594  -0.950  23.847  0.00  0.00    +0.027 C 
ATOM      6  C   UNL     1      -4.050  -0.650  24.391  0.00  0.00    +0.138 C 
BRANCH   2   1
ATOM      1  C   UNL     1      -2.902  -1.203  25.124  0.00  0.00    +0.101 C 
BRANCH   1  24
ATOM     24  C   UNL     1      -2.215  -1.641  24.996  0.00  0.00    +0.013 A 
ATOM     25  C   UNL     1      -1.522  -1.260  24.760  0.00  0.00    +0.000 A 
ATOM     26  C   UNL     1      -0.834  -1.698  24.630  0.00  0.00    +0.020 A 
ATOM     27  C   UNL     1      -0.841  -2.516  24.738  0.00  0.00    +0.099 A 
ATOM     28  N   UNL     1      -1.534  -2.896  24.974  0.00  0.00    -0.243 NA
ATOM     29  C   UNL     1      -2.220  -2.459  25.103  0.00  0.00    +0.096 A 
ENDBRANCH   1  24
ENDBRANCH   2   1
ENDBRANCH   7   6
TORSDOF 5
ENDMDL
MODEL 6
REMARK VINA RESULT:      -8.2      1.783      2.827
REMARK  Name = 
REMARK  5 active torsions:
REMARK  status: ('A' for Active; 'I' for Inactive)
REMARK    1  A    between atoms: C_1  and  N_2
REMARK    2  A    between atoms: C_1  and  C_24
REMARK    3  A    between atoms: C_6  and  C_7
REMARK    4  A    between atoms: C_9  and  C_12
REMARK    5  A    between atoms: C_15  and  C_18
REMARK                            x       y       z     vdW  Elec       q    Type
REMARK                         _______ _______ _______ _____ _____    ______ ____
ROOT
ATOM      7  C   UNL     1      -1.087   2.868  25.442  0.00  0.00    +0.251 A 
ATOM      8  N   UNL     1      -1.489   2.204  25.159  0.00  0.00    -0.190 NA
ATOM      9  C   UNL     1      -1.049   1.536  25.359  0.00  0.00    +0.205 A 
ATOM     10  N   UNL     1      -0.376   1.786  25.765  0.00  0.00    -0.056 NA
ATOM     11  O   UNL     1      -0.400   2.609  25.816  0.00  0.00    -0.336 OA
ENDROOT
BRANCH   9  12
ATOM     12  C   UNL     1      -1.247   0.754  25.184  0.00  0.00    +0.058 A 
ATOM     13  C   UNL     1      -1.275   0.191  25.786  0.00  0.00    +0.006 A 
ATOM     14  C   UNL     1      -1.474  -0.590  25.610  0.00  0.00    +0.019 A 
ATOM     15  C   UNL     1      -1.644  -0.808  24.833  0.00  0.00    +0.084 A 
ATOM     16  N   UNL     1      -1.616  -0.245  24.231  0.00  0.00    -0.244 NA
ATOM     17  C   UNL     1      -1.418   0.537  24.406  0.00  0.00    +0.102 A 
BRANCH  15  18
ATOM     18  C   UNL     1      -1.843  -1.590  24.657  0.00  0.00    +0.056 A 
ATOM     19  C   UNL     1      -1.252  -2.131  24.460  0.00  0.00    +0.104 A 
ATOM     20  N   UNL     1      -1.450  -2.912  24.284  0.00  0.00    -0.222 NA
ATOM     21  C   UNL     1      -2.239  -3.152  24.306  0.00  0.00    +0.199 A 
ATOM     22  N   UNL     1      -2.830  -2.611  24.504  0.00  0.00    -0.222 NA
ATOM     23  C   UNL     1      -2.632  -1.830  24.680  0.00  0.00    +0.104 A 
ENDBRANCH  15  18
ENDBRANCH   9  12
BRANCH   7   6
ATOM      2  N   UNL     1      -2.066   3.955  25.585  0.00  0.00    -0.263 NA
ATOM      3  C   UNL     1      -2.072   4.761  25.409  0.00  0.00    +0.073 C 
ATOM      4  C   UNL     1      -1.341   4.956  25.079  0.00  0.00    +0.019 C 
ATOM      5  C   UNL     1      -0.883   4.270  25.051  0.00  0.00    +0.027 C 
ATOM      6  C   UNL     1      -1.331   3.652  25.364  0.00  0.00    +0.138 C 
BRANCH   2   1
ATOM      1  C   UNL     1      -2.685   3.528  25.923  0.00  0.00    +0.101 C 
BRANCH   1  24
ATOM     24  C   UNL     1      -3.466   3.723  25.745  0.00  0.00    +0.013 A 
ATOM     25  C   UNL     1      -3.796   3.490  25.026  0.00  0.00    +0.000 A 
ATOM     26  C   UNL     1      -4.578   3.686  24.847  0.00  0.00    +0.020 A 
ATOM     27  C   UNL     1      -5.029   4.115  25.388  0.00  0.00    +0.099 A 
ATOM     28  N   UNL     1      -4.699   4.349  26.107  0.00  0.00    -0.243 NA
ATOM     29  C   UNL     1      -3.918   4.153  26.285  0.00  0.00    +0.096 A 
ENDBRANCH   1  24
ENDBRANCH   2   1
ENDBRANCH   7   6
TORSDOF 5
ENDMDL
