MODEL 1
REMARK VINA RESULT:      -9.2      0.000      0.000
REMARK  Name = 
REMARK  9 active torsions:
REMARK  status: ('A' for Active; 'I' for Inactive)
REMARK    1  A    between atoms: C_2  and  C_4
REMARK    2  A    between atoms: C_6  and  C_7
REMARK    3  A    between atoms: C_7  and  C_8
REMARK    4  A    between atoms: N_10  and  C_11
REMARK    5  A    between atoms: C_11  and  C_12
REMARK    6  A    between atoms: C_22  and  C_23
REMARK    7  A    between atoms: C_23  and  N_24
REMARK    8  A    between atoms: C_25  and  C_27
REMARK    9  A    between atoms: C_30  and  C_33
REMARK                            x       y       z     vdW  Elec       q    Type
REMARK                         _______ _______ _______ _____ _____    ______ ____
ROOT
ATOM      4  C   UNL     1      -0.292   1.529  24.474  0.00  0.00    +0.006 C 
ATOM      5  C   UNL     1       0.236   0.963  24.187  0.00  0.00    +0.005 C 
ATOM      6  C   UNL     1      -0.039   0.214  23.974  0.00  0.00    +0.027 C 
ATOM     19  C   UNL     1      -0.840   0.032  24.049  0.00  0.00    -0.048 C 
ATOM     20  C   UNL     1      -1.114  -0.717  23.836  0.00  0.00    +0.026 C 
ATOM     21  C   UNL     1      -1.368   0.598  24.336  0.00  0.00    -0.033 C 
ATOM     22  C   UNL     1      -1.093   1.346  24.549  0.00  0.00    +0.043 C 
ENDROOT
BRANCH   4   2
ATOM      1  C   UNL     1       0.251   2.414  25.456  0.00  0.00    +0.000 C 
ATOM      2  C   UNL     1      -0.017   2.277  24.687  0.00  0.00    +0.000 C 
ATOM      3  C   UNL     1      -0.010   2.887  24.132  0.00  0.00    +0.000 C 
ENDBRANCH   4   2
BRANCH   6   7
ATOM      7  C   UNL     1       0.489  -0.351  23.687  0.00  0.00    +0.091 C 
BRANCH   7   8
ATOM      8  C   UNL     1       1.014  -0.155  23.081  0.00  0.00    +0.242 C 
ATOM      9  O   UNL     1       0.728   0.009  22.325  0.00  0.00    -0.273 OA
ATOM     10  N   UNL     1       1.824  -0.124  23.232  0.00  0.00    -0.201 NA
BRANCH  10  11
ATOM     11  C   UNL     1       2.349   0.072  22.625  0.00  0.00    +0.141 C 
BRANCH  11  12
ATOM     12  C   UNL     1       3.147   0.193  22.795  0.00  0.00    -0.000 A 
ATOM     13  C   UNL     1       3.497   0.924  22.637  0.00  0.00    -0.000 A 
ATOM     14  C   UNL     1       4.295   1.044  22.807  0.00  0.00    +0.029 A 
ATOM     15  C   UNL     1       4.744   0.434  23.134  0.00  0.00    +0.140 A 
ATOM     16  F   UNL     1       5.542   0.554  23.304  0.00  0.00    -0.204 F 
ATOM     17  C   UNL     1       4.394  -0.296  23.292  0.00  0.00    +0.029 A 
ATOM     18  C   UNL     1       3.596  -0.417  23.123  0.00  0.00    -0.000 A 
ENDBRANCH  11  12
ENDBRANCH  10  11
ENDBRANCH   7   8
ENDBRANCH   6   7
BRANCH  22  23
ATOM     23  C   UNL     1      -1.620   1.911  24.836  0.00  0.00    +0.120 C 
BRANCH  23  24
ATOM     24  N   UNL     1      -2.434   1.786  24.772  0.00  0.00    -0.201 NA
ATOM     25  C   UNL     1      -2.962   2.335  25.091  0.00  0.00    +0.265 C 
ATOM     26  O   UNL     1      -2.677   3.009  25.472  0.00  0.00    -0.268 OA
BRANCH  25  27
ATOM     27  C   UNL     1      -3.775   2.209  25.027  0.00  0.00    +0.055 A 
ATOM     28  C   UNL     1      -4.263   2.807  24.736  0.00  0.00    +0.005 A 
ATOM     29  C   UNL     1      -5.076   2.681  24.673  0.00  0.00    +0.010 A 
ATOM     30  C   UNL     1      -5.401   1.958  24.900  0.00  0.00    +0.068 A 
ATOM     31  C   UNL     1      -4.912   1.359  25.192  0.00  0.00    +0.010 A 
ATOM     32  C   UNL     1      -4.100   1.485  25.255  0.00  0.00    +0.005 A 
BRANCH  30  33
ATOM     33  C   UNL     1      -6.214   1.832  24.837  0.00  0.00    +0.100 C 
ATOM     34  N   UNL     1      -7.027   1.707  24.774  0.00  0.00    -0.191 NA
ENDBRANCH  30  33
ENDBRANCH  25  27
ENDBRANCH  23  24
ENDBRANCH  22  23
TORSDOF 9
ENDMDL
MODEL 2
REMARK VINA RESULT:      -8.6      2.934      4.000
REMARK  Name = 
REMARK  9 active torsions:
REMARK  status: ('A' for Active; 'I' for Inactive)
REMARK    1  A    between atoms: C_2  and  C_4
REMARK    2  A    between atoms: C_6  and  C_7
REMARK    3  A    between atoms: C_7  and  C_8
REMARK    4  A    between atoms: N_10  and  C_11
REMARK    5  A    between atoms: C_11  and  C_12
REMARK    6  A    between atoms: C_22  and  C_23
REMARK    7  A    between atoms: C_23  and  N_24
REMARK    8  A    between atoms: C_25  and  C_27
REMARK    9  A    between atoms: C_30  and  C_33
REMARK                            x       y       z     vdW  Elec       q    Type
REMARK                         _______ _______ _______ _____ _____    ______ ____
ROOT
ATOM      4  C   UNL     1      -0.420   1.773  25.047  0.00  0.00    +0.006 C 
ATOM      5  C   UNL     1      -0.130   1.055  24.762  0.00  0.00    +0.005 C 
ATOM      6  C   UNL     1      -0.398   0.762  24.038  0.00  0.00    +0.027 C 
ATOM     19  C   UNL     1      -0.954   1.186  23.600  0.00  0.00    -0.048 C 
ATOM     20  C   UNL     1      -1.221   0.893  22.877  0.00  0.00    +0.026 C 
ATOM     21  C   UNL     1      -1.243   1.904  23.886  0.00  0.00    -0.033 C 
ATOM     22  C   UNL     1      -0.976   2.197  24.609  0.00  0.00    +0.043 C 
ENDROOT
BRANCH   4   2
ATOM      1  C   UNL     1       0.459   2.621  25.789  0.00  0.00    +0.000 C 
ATOM      2  C   UNL     1      -0.152   2.066  25.770  0.00  0.00    +0.000 C 
ATOM      3  C   UNL     1      -0.495   1.805  26.474  0.00  0.00    +0.000 C 
ENDBRANCH   4   2
BRANCH   6   7
ATOM      7  C   UNL     1      -0.108   0.044  23.753  0.00  0.00    +0.091 C 
BRANCH   7   8
ATOM      8  C   UNL     1      -0.226  -0.649  24.186  0.00  0.00    +0.242 C 
ATOM      9  O   UNL     1       0.403  -0.992  24.595  0.00  0.00    -0.273 OA
ATOM     10  N   UNL     1      -0.973  -0.998  24.209  0.00  0.00    -0.201 NA
BRANCH  10  11
ATOM     11  C   UNL     1      -1.090  -1.692  24.643  0.00  0.00    +0.141 C 
BRANCH  11  12
ATOM     12  C   UNL     1      -1.844  -2.021  24.696  0.00  0.00    -0.000 A 
ATOM     13  C   UNL     1      -2.380  -1.740  25.257  0.00  0.00    -0.000 A 
ATOM     14  C   UNL     1      -3.134  -2.070  25.308  0.00  0.00    +0.029 A 
ATOM     15  C   UNL     1      -3.353  -2.681  24.800  0.00  0.00    +0.140 A 
ATOM     16  F   UNL     1      -4.107  -3.012  24.852  0.00  0.00    -0.204 F 
ATOM     17  C   UNL     1      -2.818  -2.963  24.239  0.00  0.00    +0.029 A 
ATOM     18  C   UNL     1      -2.063  -2.633  24.186  0.00  0.00    -0.000 A 
ENDBRANCH  11  12
ENDBRANCH  10  11
ENDBRANCH   7   8
ENDBRANCH   6   7
BRANCH  22  23
ATOM     23  C   UNL     1      -1.265   2.915  24.895  0.00  0.00    +0.120 C 
BRANCH  23  24
ATOM     24  N   UNL     1      -2.073   3.006  25.039  0.00  0.00    -0.201 NA
ATOM     25  C   UNL     1      -2.409   3.760  25.045  0.00  0.00    +0.265 C 
ATOM     26  O   UNL     1      -1.938   4.423  24.906  0.00  0.00    -0.268 OA
BRANCH  25  27
ATOM     27  C   UNL     1      -3.216   3.850  25.189  0.00  0.00    +0.055 A 
ATOM     28  C   UNL     1      -3.490   3.921  25.964  0.00  0.00    +0.005 A 
ATOM     29  C   UNL     1      -4.298   4.011  26.109  0.00  0.00    +0.010 A 
ATOM     30  C   UNL     1      -4.831   4.030  25.480  0.00  0.00    +0.068 A 
ATOM     31  C   UNL     1      -4.556   3.958  24.704  0.00  0.00    +0.010 A 
ATOM     32  C   UNL     1      -3.749   3.868  24.560  0.00  0.00    +0.005 A 
BRANCH  30  33
ATOM     33  C   UNL     1      -5.638   4.120  25.624  0.00  0.00    +0.100 C 
ATOM     34  N   UNL     1      -6.445   4.210  25.768  0.00  0.00    -0.191 NA
ENDBRANCH  30  33
ENDBRANCH  25  27
ENDBRANCH  23  24
ENDBRANCH  22  23
TORSDOF 9
ENDMDL
MODEL 3
REMARK VINA RESULT:      -8.6      2.337      7.137
REMARK  Name = 
REMARK  9 active torsions:
REMARK  status: ('A' for Active; 'I' for Inactive)
REMARK    1  A    between atoms: C_2  and  C_4
REMARK    2  A    between atoms: C_6  and  C_7
REMARK    3  A    between atoms: C_7  and  C_8
REMARK    4  A    between atoms: N_10  and  C_11
REMARK    5  A    between atoms: C_11  and  C_12
REMARK    6  A    between atoms: C_22  and  C_23
REMARK    7  A    between atoms: C_23  and  N_24
REMARK    8  A    between atoms: C_25  and  C_27
REMARK    9  A    between atoms: C_30  and  C_33
REMARK                            x       y       z     vdW  Elec       q    Type
REMARK                         _______ _______ _______ _____ _____    ______ ____
ROOT
ATOM      4  C   UNL     1      -0.786   0.723  24.245  0.00  0.00    +0.006 C 
ATOM      5  C   UNL     1      -1.239   1.261  24.676  0.00  0.00    +0.005 C 
ATOM      6  C   UNL     1      -0.964   2.031  24.793  0.00  0.00    +0.027 C 
ATOM     19  C   UNL     1      -0.238   2.262  24.478  0.00  0.00    -0.048 C 
ATOM     20  C   UNL     1       0.037   3.031  24.595  0.00  0.00    +0.026 C 
ATOM     21  C   UNL     1       0.216   1.723  24.047  0.00  0.00    -0.033 C 
ATOM     22  C   UNL     1      -0.059   0.954  23.930  0.00  0.00    +0.043 C 
ENDROOT
BRANCH   4   2
ATOM      1  C   UNL     1      -0.851  -0.643  24.659  0.00  0.00    +0.000 C 
ATOM      2  C   UNL     1      -1.060  -0.046  24.128  0.00  0.00    +0.000 C 
ATOM      3  C   UNL     1      -1.544  -0.219  23.482  0.00  0.00    +0.000 C 
ENDBRANCH   4   2
BRANCH   6   7
ATOM      7  C   UNL     1      -1.417   2.568  25.224  0.00  0.00    +0.091 C 
BRANCH   7   8
ATOM      8  C   UNL     1      -2.107   2.883  24.896  0.00  0.00    +0.242 C 
ATOM      9  O   UNL     1      -2.058   3.428  24.279  0.00  0.00    -0.273 OA
ATOM     10  N   UNL     1      -2.843   2.651  25.186  0.00  0.00    -0.201 NA
BRANCH  10  11
ATOM     11  C   UNL     1      -3.533   2.966  24.858  0.00  0.00    +0.141 C 
BRANCH  11  12
ATOM     12  C   UNL     1      -4.269   2.671  25.086  0.00  0.00    -0.000 A 
ATOM     13  C   UNL     1      -4.550   1.967  24.761  0.00  0.00    -0.000 A 
ATOM     14  C   UNL     1      -5.287   1.673  24.989  0.00  0.00    +0.029 A 
ATOM     15  C   UNL     1      -5.741   2.083  25.542  0.00  0.00    +0.140 A 
ATOM     16  F   UNL     1      -6.478   1.789  25.771  0.00  0.00    -0.204 F 
ATOM     17  C   UNL     1      -5.460   2.787  25.867  0.00  0.00    +0.029 A 
ATOM     18  C   UNL     1      -4.724   3.082  25.640  0.00  0.00    -0.000 A 
ENDBRANCH  11  12
ENDBRANCH  10  11
ENDBRANCH   7   8
ENDBRANCH   6   7
BRANCH  22  23
ATOM     23  C   UNL     1       0.394   0.417  23.499  0.00  0.00    +0.120 C 
BRANCH  23  24
ATOM     24  N   UNL     1       1.218   0.438  23.549  0.00  0.00    -0.201 NA
ATOM     25  C   UNL     1       1.677   0.132  22.935  0.00  0.00    +0.265 C 
ATOM     26  O   UNL     1       1.313  -0.194  22.271  0.00  0.00    -0.268 OA
BRANCH  25  27
ATOM     27  C   UNL     1       2.500   0.154  22.986  0.00  0.00    +0.055 A 
ATOM     28  C   UNL     1       2.908   0.838  22.770  0.00  0.00    +0.005 A 
ATOM     29  C   UNL     1       3.732   0.860  22.821  0.00  0.00    +0.010 A 
ATOM     30  C   UNL     1       4.147   0.199  23.087  0.00  0.00    +0.068 A 
ATOM     31  C   UNL     1       3.738  -0.486  23.303  0.00  0.00    +0.010 A 
ATOM     32  C   UNL     1       2.915  -0.507  23.252  0.00  0.00    +0.005 A 
BRANCH  30  33
ATOM     33  C   UNL     1       4.970   0.220  23.138  0.00  0.00    +0.100 C 
ATOM     34  N   UNL     1       5.793   0.241  23.191  0.00  0.00    -0.191 NA
ENDBRANCH  30  33
ENDBRANCH  25  27
ENDBRANCH  23  24
ENDBRANCH  22  23
TORSDOF 9
ENDMDL
MODEL 4
REMARK VINA RESULT:      -8.5      1.666      2.617
REMARK  Name = 
REMARK  9 active torsions:
REMARK  status: ('A' for Active; 'I' for Inactive)
REMARK    1  A    between atoms: C_2  and  C_4
REMARK    2  A    between atoms: C_6  and  C_7
REMARK    3  A    between atoms: C_7  and  C_8
REMARK    4  A    between atoms: N_10  and  C_11
REMARK    5  A    between atoms: C_11  and  C_12
REMARK    6  A    between atoms: C_22  and  C_23
REMARK    7  A    between atoms: C_23  and  N_24
REMARK    8  A    between atoms: C_25  and  C_27
REMARK    9  A    between atoms: C_30  and  C_33
REMARK                            x       y       z     vdW  Elec       q    Type
REMARK                         _______ _______ _______ _____ _____    ______ ____
ROOT
ATOM      4  C   UNL     1      -2.730  -0.919  24.717  0.00  0.00    +0.006 C 
ATOM      5  C   UNL     1      -1.924  -1.095  24.683  0.00  0.00    +0.005 C 
ATOM      6  C   UNL     1      -1.369  -0.532  24.922  0.00  0.00    +0.027 C 
ATOM     19  C   UNL     1      -1.620   0.206  25.194  0.00  0.00    -0.048 C 
ATOM     20  C   UNL     1      -1.066   0.768  25.433  0.00  0.00    +0.026 C 
ATOM     21  C   UNL     1      -2.426   0.381  25.228  0.00  0.00    -0.033 C 
ATOM     22  C   UNL     1      -2.980  -0.181  24.989  0.00  0.00    +0.043 C 
ENDROOT
BRANCH   4   2
ATOM      1  C   UNL     1      -3.510  -2.083  24.997  0.00  0.00    +0.000 C 
ATOM      2  C   UNL     1      -3.284  -1.481  24.478  0.00  0.00    +0.000 C 
ATOM      3  C   UNL     1      -3.612  -1.443  23.722  0.00  0.00    +0.000 C 
ENDBRANCH   4   2
BRANCH   6   7
ATOM      7  C   UNL     1      -0.564  -0.707  24.888  0.00  0.00    +0.091 C 
BRANCH   7   8
ATOM      8  C   UNL     1      -0.195  -0.810  24.157  0.00  0.00    +0.242 C 
ATOM      9  O   UNL     1      -0.402  -1.448  23.676  0.00  0.00    -0.273 OA
ATOM     10  N   UNL     1       0.380  -0.275  23.907  0.00  0.00    -0.201 NA
BRANCH  10  11
ATOM     11  C   UNL     1       0.749  -0.378  23.176  0.00  0.00    +0.141 C 
BRANCH  11  12
ATOM     12  C   UNL     1       1.467  -0.003  23.020  0.00  0.00    -0.000 A 
ATOM     13  C   UNL     1       1.622   0.742  23.340  0.00  0.00    -0.000 A 
ATOM     14  C   UNL     1       2.341   1.116  23.184  0.00  0.00    +0.029 A 
ATOM     15  C   UNL     1       2.904   0.747  22.708  0.00  0.00    +0.140 A 
ATOM     16  F   UNL     1       3.622   1.122  22.552  0.00  0.00    -0.204 F 
ATOM     17  C   UNL     1       2.749   0.003  22.388  0.00  0.00    +0.029 A 
ATOM     18  C   UNL     1       2.031  -0.373  22.543  0.00  0.00    -0.000 A 
ENDBRANCH  11  12
ENDBRANCH  10  11
ENDBRANCH   7   8
ENDBRANCH   6   7
BRANCH  22  23
ATOM     23  C   UNL     1      -3.786  -0.006  25.023  0.00  0.00    +0.120 C 
BRANCH  23  24
ATOM     24  N   UNL     1      -4.033   0.771  25.158  0.00  0.00    -0.201 NA
ATOM     25  C   UNL     1      -4.830   0.970  25.076  0.00  0.00    +0.265 C 
ATOM     26  O   UNL     1      -5.379   0.393  24.860  0.00  0.00    -0.268 OA
BRANCH  25  27
ATOM     27  C   UNL     1      -5.076   1.745  25.211  0.00  0.00    +0.055 A 
ATOM     28  C   UNL     1      -4.803   2.354  24.726  0.00  0.00    +0.005 A 
ATOM     29  C   UNL     1      -5.050   3.130  24.861  0.00  0.00    +0.010 A 
ATOM     30  C   UNL     1      -5.569   3.297  25.480  0.00  0.00    +0.068 A 
ATOM     31  C   UNL     1      -5.842   2.688  25.966  0.00  0.00    +0.010 A 
ATOM     32  C   UNL     1      -5.595   1.912  25.831  0.00  0.00    +0.005 A 
BRANCH  30  33
ATOM     33  C   UNL     1      -5.815   4.073  25.615  0.00  0.00    +0.100 C 
ATOM     34  N   UNL     1      -6.060   4.849  25.751  0.00  0.00    -0.191 NA
ENDBRANCH  30  33
ENDBRANCH  25  27
ENDBRANCH  23  24
ENDBRANCH  22  23
TORSDOF 9
ENDMDL
MODEL 5
REMARK VINA RESULT:      -8.3      3.051      5.681
REMARK  Name = 
REMARK  9 active torsions:
REMARK  status: ('A' for Active; 'I' for Inactive)
REMARK    1  A    between atoms: C_2  and  C_4
REMARK    2  A    between atoms: C_6  and  C_7
REMARK    3  A    between atoms: C_7  and  C_8
REMARK    4  A    between atoms: N_10  and  C_11
REMARK    5  A    between atoms: C_11  and  C_12
REMARK    6  A    between atoms: C_22  and  C_23
REMARK    7  A    between atoms: C_23  and  N_24
REMARK    8  A    between atoms: C_25  and  C_27
REMARK    9  A    between atoms: C_30  and  C_33
REMARK                            x       y       z     vdW  Elec       q    Type
REMARK                         _______ _______ _______ _____ _____    ______ ____
ROOT
ATOM      4  C   UNL     1      -0.245   1.677  24.460  0.00  0.00    +0.006 C 
ATOM      5  C   UNL     1      -0.323   2.471  24.671  0.00  0.00    +0.005 C 
ATOM      6  C   UNL     1      -0.463   2.676  25.458  0.00  0.00    +0.027 C 
ATOM     19  C   UNL     1      -0.526   2.088  26.033  0.00  0.00    -0.048 C 
ATOM     20  C   UNL     1      -0.666   2.293  26.820  0.00  0.00    +0.026 C 
ATOM     21  C   UNL     1      -0.448   1.294  25.821  0.00  0.00    -0.033 C 
ATOM     22  C   UNL     1      -0.308   1.089  25.035  0.00  0.00    +0.043 C 
ENDROOT
BRANCH   4   2
ATOM      1  C   UNL     1       0.660   1.286  23.426  0.00  0.00    +0.000 C 
ATOM      2  C   UNL     1      -0.105   1.473  23.673  0.00  0.00    +0.000 C 
ATOM      3  C   UNL     1      -0.729   1.454  23.134  0.00  0.00    +0.000 C 
ENDBRANCH   4   2
BRANCH   6   7
ATOM      7  C   UNL     1      -0.540   3.470  25.669  0.00  0.00    +0.091 C 
BRANCH   7   8
ATOM      8  C   UNL     1      -1.127   3.934  25.320  0.00  0.00    +0.242 C 
ATOM      9  O   UNL     1      -0.920   4.534  24.793  0.00  0.00    -0.273 OA
ATOM     10  N   UNL     1      -1.921   3.797  25.497  0.00  0.00    -0.201 NA
BRANCH  10  11
ATOM     11  C   UNL     1      -2.508   4.261  25.148  0.00  0.00    +0.141 C 
BRANCH  11  12
ATOM     12  C   UNL     1      -3.293   4.009  25.159  0.00  0.00    -0.000 A 
ATOM     13  C   UNL     1      -3.714   4.001  25.868  0.00  0.00    -0.000 A 
ATOM     14  C   UNL     1      -4.500   3.749  25.878  0.00  0.00    +0.029 A 
ATOM     15  C   UNL     1      -4.864   3.504  25.180  0.00  0.00    +0.140 A 
ATOM     16  F   UNL     1      -5.649   3.251  25.190  0.00  0.00    -0.204 F 
ATOM     17  C   UNL     1      -4.442   3.511  24.471  0.00  0.00    +0.029 A 
ATOM     18  C   UNL     1      -3.657   3.763  24.460  0.00  0.00    -0.000 A 
ENDBRANCH  11  12
ENDBRANCH  10  11
ENDBRANCH   7   8
ENDBRANCH   6   7
BRANCH  22  23
ATOM     23  C   UNL     1      -0.231   0.295  24.824  0.00  0.00    +0.120 C 
BRANCH  23  24
ATOM     24  N   UNL     1      -0.903  -0.178  24.746  0.00  0.00    -0.201 NA
ATOM     25  C   UNL     1      -0.857  -0.988  24.899  0.00  0.00    +0.265 C 
ATOM     26  O   UNL     1      -0.141  -1.324  25.131  0.00  0.00    -0.268 OA
BRANCH  25  27
ATOM     27  C   UNL     1      -1.529  -1.460  24.821  0.00  0.00    +0.055 A 
ATOM     28  C   UNL     1      -1.511  -2.124  24.332  0.00  0.00    +0.005 A 
ATOM     29  C   UNL     1      -2.183  -2.597  24.253  0.00  0.00    +0.010 A 
ATOM     30  C   UNL     1      -2.872  -2.405  24.664  0.00  0.00    +0.068 A 
ATOM     31  C   UNL     1      -2.890  -1.741  25.154  0.00  0.00    +0.010 A 
ATOM     32  C   UNL     1      -2.219  -1.269  25.232  0.00  0.00    +0.005 A 
BRANCH  30  33
ATOM     33  C   UNL     1      -3.544  -2.878  24.586  0.00  0.00    +0.100 C 
ATOM     34  N   UNL     1      -4.217  -3.349  24.507  0.00  0.00    -0.191 NA
ENDBRANCH  30  33
ENDBRANCH  25  27
ENDBRANCH  23  24
ENDBRANCH  22  23
TORSDOF 9
ENDMDL
MODEL 6
REMARK VINA RESULT:      -8.3      2.833      6.833
REMARK  Name = 
REMARK  9 active torsions:
REMARK  status: ('A' for Active; 'I' for Inactive)
REMARK    1  A    between atoms: C_2  and  C_4
REMARK    2  A    between atoms: C_6  and  C_7
REMARK    3  A    between atoms: C_7  and  C_8
REMARK    4  A    between atoms: N_10  and  C_11
REMARK    5  A    between atoms: C_11  and  C_12
REMARK    6  A    between atoms: C_22  and  C_23
REMARK    7  A    between atoms: C_23  and  N_24
REMARK    8  A    between atoms: C_25  and  C_27
REMARK    9  A    between atoms: C_30  and  C_33
REMARK                            x       y       z     vdW  Elec       q    Type
REMARK                         _______ _______ _______ _____ _____    ______ ____
ROOT
ATOM      4  C   UNL     1      -0.440   0.646  24.208  0.00  0.00    +0.006 C 
ATOM      5  C   UNL     1      -0.931   0.429  24.834  0.00  0.00    +0.005 C 
ATOM      6  C   UNL     1      -0.848  -0.315  25.183  0.00  0.00    +0.027 C 
ATOM     19  C   UNL     1      -0.274  -0.839  24.907  0.00  0.00    -0.048 C 
ATOM     20  C   UNL     1      -0.191  -1.582  25.256  0.00  0.00    +0.026 C 
ATOM     21  C   UNL     1       0.217  -0.621  24.280  0.00  0.00    -0.033 C 
ATOM     22  C   UNL     1       0.134   0.122  23.931  0.00  0.00    +0.043 C 
ENDROOT
BRANCH   4   2
ATOM      1  C   UNL     1      -0.124   2.040  24.173  0.00  0.00    +0.000 C 
ATOM      2  C   UNL     1      -0.524   1.389  23.858  0.00  0.00    +0.000 C 
ATOM      3  C   UNL     1      -1.006   1.482  23.195  0.00  0.00    +0.000 C 
ENDBRANCH   4   2
BRANCH   6   7
ATOM      7  C   UNL     1      -1.339  -0.532  25.809  0.00  0.00    +0.091 C 
BRANCH   7   8
ATOM      8  C   UNL     1      -2.159  -0.506  25.718  0.00  0.00    +0.242 C 
ATOM      9  O   UNL     1      -2.576   0.175  25.925  0.00  0.00    -0.273 OA
ATOM     10  N   UNL     1      -2.561  -1.162  25.420  0.00  0.00    -0.201 NA
BRANCH  10  11
ATOM     11  C   UNL     1      -3.381  -1.136  25.329  0.00  0.00    +0.141 C 
BRANCH  11  12
ATOM     12  C   UNL     1      -3.749  -1.620  24.772  0.00  0.00    -0.000 A 
ATOM     13  C   UNL     1      -3.649  -2.438  24.805  0.00  0.00    -0.000 A 
ATOM     14  C   UNL     1      -4.018  -2.922  24.247  0.00  0.00    +0.029 A 
ATOM     15  C   UNL     1      -4.485  -2.587  23.656  0.00  0.00    +0.140 A 
ATOM     16  F   UNL     1      -4.854  -3.071  23.098  0.00  0.00    -0.204 F 
ATOM     17  C   UNL     1      -4.586  -1.769  23.623  0.00  0.00    +0.029 A 
ATOM     18  C   UNL     1      -4.218  -1.285  24.180  0.00  0.00    -0.000 A 
ENDBRANCH  11  12
ENDBRANCH  10  11
ENDBRANCH   7   8
ENDBRANCH   6   7
BRANCH  22  23
ATOM     23  C   UNL     1       0.624   0.340  23.305  0.00  0.00    +0.120 C 
BRANCH  23  24
ATOM     24  N   UNL     1       1.444   0.334  23.402  0.00  0.00    -0.201 NA
ATOM     25  C   UNL     1       1.936   0.180  22.757  0.00  0.00    +0.265 C 
ATOM     26  O   UNL     1       1.608   0.032  22.015  0.00  0.00    -0.268 OA
BRANCH  25  27
ATOM     27  C   UNL     1       2.755   0.174  22.855  0.00  0.00    +0.055 A 
ATOM     28  C   UNL     1       3.138  -0.524  23.072  0.00  0.00    +0.005 A 
ATOM     29  C   UNL     1       3.957  -0.530  23.171  0.00  0.00    +0.010 A 
ATOM     30  C   UNL     1       4.393   0.160  23.052  0.00  0.00    +0.068 A 
ATOM     31  C   UNL     1       4.009   0.858  22.834  0.00  0.00    +0.010 A 
ATOM     32  C   UNL     1       3.190   0.864  22.736  0.00  0.00    +0.005 A 
BRANCH  30  33
ATOM     33  C   UNL     1       5.212   0.154  23.150  0.00  0.00    +0.100 C 
ATOM     34  N   UNL     1       6.031   0.148  23.249  0.00  0.00    -0.191 NA
ENDBRANCH  30  33
ENDBRANCH  25  27
ENDBRANCH  23  24
ENDBRANCH  22  23
TORSDOF 9
ENDMDL
MODEL 7
REMARK VINA RESULT:      -8.2      3.563      5.235
REMARK  Name = 
REMARK  9 active torsions:
REMARK  status: ('A' for Active; 'I' for Inactive)
REMARK    1  A    between atoms: C_2  and  C_4
REMARK    2  A    between atoms: C_6  and  C_7
REMARK    3  A    between atoms: C_7  and  C_8
REMARK    4  A    between atoms: N_10  and  C_11
REMARK    5  A    between atoms: C_11  and  C_12
REMARK    6  A    between atoms: C_22  and  C_23
REMARK    7  A    between atoms: C_23  and  N_24
REMARK    8  A    between atoms: C_25  and  C_27
REMARK    9  A    between atoms: C_30  and  C_33
REMARK                            x       y       z     vdW  Elec       q    Type
REMARK                         _______ _______ _______ _____ _____    ______ ____
ROOT
ATOM      4  C   UNL     1      -4.827   2.399  24.975  0.00  0.00    +0.006 C 
ATOM      5  C   UNL     1      -4.497   3.146  24.857  0.00  0.00    +0.005 C 
ATOM      6  C   UNL     1      -3.972   3.271  24.232  0.00  0.00    +0.027 C 
ATOM     19  C   UNL     1      -3.778   2.649  23.726  0.00  0.00    -0.048 C 
ATOM     20  C   UNL     1      -3.254   2.773  23.101  0.00  0.00    +0.026 C 
ATOM     21  C   UNL     1      -4.109   1.902  23.844  0.00  0.00    -0.033 C 
ATOM     22  C   UNL     1      -4.633   1.778  24.469  0.00  0.00    +0.043 C 
ENDROOT
BRANCH   4   2
ATOM      1  C   UNL     1      -5.061   2.144  26.361  0.00  0.00    +0.000 C 
ATOM      2  C   UNL     1      -5.352   2.275  25.600  0.00  0.00    +0.000 C 
ATOM      3  C   UNL     1      -6.165   2.282  25.463  0.00  0.00    +0.000 C 
ENDBRANCH   4   2
BRANCH   6   7
ATOM      7  C   UNL     1      -3.642   4.017  24.115  0.00  0.00    +0.091 C 
BRANCH   7   8
ATOM      8  C   UNL     1      -3.092   4.315  24.655  0.00  0.00    +0.242 C 
ATOM      9  O   UNL     1      -3.284   4.966  25.123  0.00  0.00    -0.273 OA
ATOM     10  N   UNL     1      -2.351   3.960  24.725  0.00  0.00    -0.201 NA
BRANCH  10  11
ATOM     11  C   UNL     1      -1.801   4.257  25.265  0.00  0.00    +0.141 C 
BRANCH  11  12
ATOM     12  C   UNL     1      -1.165   3.789  25.504  0.00  0.00    -0.000 A 
ATOM     13  C   UNL     1      -1.232   3.314  26.175  0.00  0.00    -0.000 A 
ATOM     14  C   UNL     1      -0.595   2.846  26.414  0.00  0.00    +0.029 A 
ATOM     15  C   UNL     1       0.107   2.854  25.983  0.00  0.00    +0.140 A 
ATOM     16  F   UNL     1       0.744   2.387  26.222  0.00  0.00    -0.204 F 
ATOM     17  C   UNL     1       0.174   3.330  25.312  0.00  0.00    +0.029 A 
ATOM     18  C   UNL     1      -0.462   3.797  25.072  0.00  0.00    -0.000 A 
ENDBRANCH  11  12
ENDBRANCH  10  11
ENDBRANCH   7   8
ENDBRANCH   6   7
BRANCH  22  23
ATOM     23  C   UNL     1      -4.964   1.031  24.586  0.00  0.00    +0.120 C 
BRANCH  23  24
ATOM     24  N   UNL     1      -4.478   0.364  24.607  0.00  0.00    -0.201 NA
ATOM     25  C   UNL     1      -4.792  -0.381  24.442  0.00  0.00    +0.265 C 
ATOM     26  O   UNL     1      -5.592  -0.459  24.256  0.00  0.00    -0.268 OA
BRANCH  25  27
ATOM     27  C   UNL     1      -4.306  -1.047  24.463  0.00  0.00    +0.055 A 
ATOM     28  C   UNL     1      -4.324  -1.590  23.841  0.00  0.00    +0.005 A 
ATOM     29  C   UNL     1      -3.838  -2.256  23.862  0.00  0.00    +0.010 A 
ATOM     30  C   UNL     1      -3.334  -2.380  24.504  0.00  0.00    +0.068 A 
ATOM     31  C   UNL     1      -3.317  -1.837  25.125  0.00  0.00    +0.010 A 
ATOM     32  C   UNL     1      -3.803  -1.171  25.104  0.00  0.00    +0.005 A 
BRANCH  30  33
ATOM     33  C   UNL     1      -2.848  -3.046  24.525  0.00  0.00    +0.100 C 
ATOM     34  N   UNL     1      -2.361  -3.712  24.547  0.00  0.00    -0.191 NA
ENDBRANCH  30  33
ENDBRANCH  25  27
ENDBRANCH  23  24
ENDBRANCH  22  23
TORSDOF 9
ENDMDL
MODEL 8
REMARK VINA RESULT:      -8.0      2.448      6.946
REMARK  Name = 
REMARK  9 active torsions:
REMARK  status: ('A' for Active; 'I' for Inactive)
REMARK    1  A    between atoms: C_2  and  C_4
REMARK    2  A    between atoms: C_6  and  C_7
REMARK    3  A    between atoms: C_7  and  C_8
REMARK    4  A    between atoms: N_10  and  C_11
REMARK    5  A    between atoms: C_11  and  C_12
REMARK    6  A    between atoms: C_22  and  C_23
REMARK    7  A    between atoms: C_23  and  N_24
REMARK    8  A    between atoms: C_25  and  C_27
REMARK    9  A    between atoms: C_30  and  C_33
REMARK                            x       y       z     vdW  Elec       q    Type
REMARK                         _______ _______ _______ _____ _____    ______ ____
ROOT
ATOM      4  C   UNL     1      -0.682   0.655  23.874  0.00  0.00    +0.006 C 
ATOM      5  C   UNL     1      -1.235   0.466  24.456  0.00  0.00    +0.005 C 
ATOM      6  C   UNL     1      -1.187  -0.257  24.851  0.00  0.00    +0.027 C 
ATOM     19  C   UNL     1      -0.586  -0.791  24.664  0.00  0.00    -0.048 C 
ATOM     20  C   UNL     1      -0.538  -1.514  25.058  0.00  0.00    +0.026 C 
ATOM     21  C   UNL     1      -0.033  -0.602  24.080  0.00  0.00    -0.033 C 
ATOM     22  C   UNL     1      -0.082   0.121  23.686  0.00  0.00    +0.043 C 
ENDROOT
BRANCH   4   2
ATOM      1  C   UNL     1      -0.382   2.050  23.807  0.00  0.00    +0.000 C 
ATOM      2  C   UNL     1      -0.731   1.377  23.479  0.00  0.00    +0.000 C 
ATOM      3  C   UNL     1      -1.127   1.428  22.757  0.00  0.00    +0.000 C 
ENDBRANCH   4   2
BRANCH   6   7
ATOM      7  C   UNL     1      -1.740  -0.446  25.434  0.00  0.00    +0.091 C 
BRANCH   7   8
ATOM      8  C   UNL     1      -2.533  -0.554  25.230  0.00  0.00    +0.242 C 
ATOM      9  O   UNL     1      -2.785  -1.278  24.925  0.00  0.00    -0.273 OA
ATOM     10  N   UNL     1      -3.072   0.062  25.331  0.00  0.00    -0.201 NA
BRANCH  10  11
ATOM     11  C   UNL     1      -3.865  -0.047  25.127  0.00  0.00    +0.141 C 
BRANCH  11  12
ATOM     12  C   UNL     1      -4.373   0.602  25.093  0.00  0.00    -0.000 A 
ATOM     13  C   UNL     1      -4.937   0.716  25.684  0.00  0.00    -0.000 A 
ATOM     14  C   UNL     1      -5.445   1.366  25.649  0.00  0.00    +0.029 A 
ATOM     15  C   UNL     1      -5.390   1.899  25.023  0.00  0.00    +0.140 A 
ATOM     16  F   UNL     1      -5.898   2.548  24.987  0.00  0.00    -0.204 F 
ATOM     17  C   UNL     1      -4.827   1.785  24.431  0.00  0.00    +0.029 A 
ATOM     18  C   UNL     1      -4.318   1.136  24.466  0.00  0.00    -0.000 A 
ENDBRANCH  11  12
ENDBRANCH  10  11
ENDBRANCH   7   8
ENDBRANCH   6   7
BRANCH  22  23
ATOM     23  C   UNL     1       0.471   0.309  23.104  0.00  0.00    +0.120 C 
BRANCH  23  24
ATOM     24  N   UNL     1       1.278   0.287  23.279  0.00  0.00    -0.201 NA
ATOM     25  C   UNL     1       1.827   0.152  22.677  0.00  0.00    +0.265 C 
ATOM     26  O   UNL     1       1.570   0.038  21.901  0.00  0.00    -0.268 OA
BRANCH  25  27
ATOM     27  C   UNL     1       2.633   0.130  22.852  0.00  0.00    +0.055 A 
ATOM     28  C   UNL     1       3.096   0.803  22.740  0.00  0.00    +0.005 A 
ATOM     29  C   UNL     1       3.903   0.781  22.916  0.00  0.00    +0.010 A 
ATOM     30  C   UNL     1       4.245   0.087  23.202  0.00  0.00    +0.068 A 
ATOM     31  C   UNL     1       3.780  -0.586  23.314  0.00  0.00    +0.010 A 
ATOM     32  C   UNL     1       2.974  -0.564  23.139  0.00  0.00    +0.005 A 
BRANCH  30  33
ATOM     33  C   UNL     1       5.050   0.065  23.378  0.00  0.00    +0.100 C 
ATOM     34  N   UNL     1       5.857   0.043  23.552  0.00  0.00    -0.191 NA
ENDBRANCH  30  33
ENDBRANCH  25  27
ENDBRANCH  23  24
ENDBRANCH  22  23
TORSDOF 9
ENDMDL
