MODEL 1
REMARK VINA RESULT:      -9.7      0.000      0.000
REMARK  Name = 
REMARK  6 active torsions:
REMARK  status: ('A' for Active; 'I' for Inactive)
REMARK    1  A    between atoms: N_2  and  C_4
REMARK    2  A    between atoms: C_4  and  C_5
REMARK    3  A    between atoms: C_7  and  C_8
REMARK    4  A    between atoms: C_8  and  C_9
REMARK    5  A    between atoms: C_9  and  N_13
REMARK    6  A    between atoms: N_13  and  C_14
REMARK                            x       y       z     vdW  Elec       q    Type
REMARK                         _______ _______ _______ _____ _____    ______ ____
ROOT
ATOM      9  C   UNL     1      -4.371   1.566  24.829  0.00  0.00    +0.119 C 
ATOM     10  C   UNL     1      -4.904   1.167  25.318  0.00  0.00    +0.161 C 
ATOM     11  O   UNL     1      -5.507   1.674  25.072  0.00  0.00    -0.351 OA
ATOM     12  C   UNL     1      -4.974   2.072  24.584  0.00  0.00    +0.161 C 
ENDROOT
BRANCH   9   8
ATOM      8  C   UNL     1      -3.838   1.964  24.341  0.00  0.00    +0.070 C 
BRANCH   8   7
ATOM      5  C   UNL     1      -2.854   3.675  25.152  0.00  0.00    +0.170 A 
ATOM      6  C   UNL     1      -2.957   2.858  25.105  0.00  0.00    +0.055 A 
ATOM      7  C   UNL     1      -3.555   2.708  24.558  0.00  0.00    +0.102 A 
ATOM     23  N   UNL     1      -3.823   3.432  24.266  0.00  0.00    -0.082 NA
ATOM     24  O   UNL     1      -3.388   4.030  24.633  0.00  0.00    -0.357 OA
BRANCH   5   4
ATOM      4  C   UNL     1      -2.311   4.069  25.632  0.00  0.00    +0.141 C 
BRANCH   4   2
ATOM      1  C   UNL     1      -0.966   3.804  25.229  0.00  0.00    +0.090 C 
ATOM      2  N   UNL     1      -1.595   4.331  25.317  0.00  0.00    -0.264 NA
ATOM      3  C   UNL     1      -1.507   5.120  25.090  0.00  0.00    +0.090 C 
ENDBRANCH   4   2
ENDBRANCH   5   4
ENDBRANCH   8   7
ENDBRANCH   9   8
BRANCH   9  13
ATOM     13  N   UNL     1      -3.767   1.059  25.075  0.00  0.00    -0.217 NA
BRANCH  13  14
ATOM     14  C   UNL     1      -3.791   0.260  24.869  0.00  0.00    +0.076 C 
ATOM     15  C   UNL     1      -3.983   0.039  24.098  0.00  0.00    +0.039 C 
ATOM     16  C   UNL     1      -4.006  -0.760  23.892  0.00  0.00    +0.095 C 
ATOM     17  N   UNL     1      -3.837  -1.336  24.457  0.00  0.00    -0.279 N 
ATOM     18  C   UNL     1      -3.645  -1.115  25.228  0.00  0.00    +0.095 C 
ATOM     19  C   UNL     1      -3.621  -0.316  25.434  0.00  0.00    +0.039 C 
ATOM     20  C   UNL     1      -3.860  -2.135  24.251  0.00  0.00    +0.226 C 
ATOM     21  C   UNL     1      -3.691  -2.712  24.816  0.00  0.00    +0.095 C 
ATOM     22  O   UNL     1      -4.053  -2.357  23.480  0.00  0.00    -0.275 OA
ENDBRANCH  13  14
ENDBRANCH   9  13
TORSDOF 6
ENDMDL
MODEL 2
REMARK VINA RESULT:      -9.2      1.267      4.998
REMARK  Name = 
REMARK  6 active torsions:
REMARK  status: ('A' for Active; 'I' for Inactive)
REMARK    1  A    between atoms: N_2  and  C_4
REMARK    2  A    between atoms: C_4  and  C_5
REMARK    3  A    between atoms: C_7  and  C_8
REMARK    4  A    between atoms: C_8  and  C_9
REMARK    5  A    between atoms: C_9  and  N_13
REMARK    6  A    between atoms: N_13  and  C_14
REMARK                            x       y       z     vdW  Elec       q    Type
REMARK                         _______ _______ _______ _____ _____    ______ ____
ROOT
ATOM      9  C   UNL     1      -3.184   1.637  24.291  0.00  0.00    +0.119 C 
ATOM     10  C   UNL     1      -3.590   2.246  23.910  0.00  0.00    +0.161 C 
ATOM     11  O   UNL     1      -3.614   1.796  23.219  0.00  0.00    -0.351 OA
ATOM     12  C   UNL     1      -3.207   1.188  23.599  0.00  0.00    +0.161 C 
ENDROOT
BRANCH   9   8
ATOM      8  C   UNL     1      -2.777   1.029  24.672  0.00  0.00    +0.070 C 
BRANCH   8   7
ATOM      5  C   UNL     1      -3.434  -0.930  25.209  0.00  0.00    +0.170 A 
ATOM      6  C   UNL     1      -2.837  -0.406  24.987  0.00  0.00    +0.055 A 
ATOM      7  C   UNL     1      -3.175   0.340  24.892  0.00  0.00    +0.102 A 
ATOM     23  N   UNL     1      -3.982   0.278  25.054  0.00  0.00    -0.082 NA
ATOM     24  O   UNL     1      -4.142  -0.508  25.250  0.00  0.00    -0.357 OA
BRANCH   5   4
ATOM      4  C   UNL     1      -3.341  -1.735  25.362  0.00  0.00    +0.141 C 
BRANCH   4   2
ATOM      1  C   UNL     1      -3.898  -2.529  24.313  0.00  0.00    +0.090 C 
ATOM      2  N   UNL     1      -3.242  -2.265  24.737  0.00  0.00    -0.264 NA
ATOM      3  C   UNL     1      -2.486  -2.531  24.537  0.00  0.00    +0.090 C 
ENDBRANCH   4   2
ENDBRANCH   5   4
ENDBRANCH   8   7
ENDBRANCH   9   8
BRANCH   9  13
ATOM     13  N   UNL     1      -3.160   2.087  24.983  0.00  0.00    -0.217 NA
BRANCH  13  14
ATOM     14  C   UNL     1      -2.705   2.774  25.013  0.00  0.00    +0.076 C 
ATOM     15  C   UNL     1      -3.053   3.490  25.227  0.00  0.00    +0.039 C 
ATOM     16  C   UNL     1      -2.599   4.178  25.257  0.00  0.00    +0.095 C 
ATOM     17  N   UNL     1      -1.796   4.149  25.072  0.00  0.00    -0.279 N 
ATOM     18  C   UNL     1      -1.447   3.434  24.857  0.00  0.00    +0.095 C 
ATOM     19  C   UNL     1      -1.901   2.745  24.827  0.00  0.00    +0.039 C 
ATOM     20  C   UNL     1      -1.341   4.837  25.101  0.00  0.00    +0.226 C 
ATOM     21  C   UNL     1      -0.538   4.809  24.916  0.00  0.00    +0.095 C 
ATOM     22  O   UNL     1      -1.690   5.554  25.316  0.00  0.00    -0.275 OA
ENDBRANCH  13  14
ENDBRANCH   9  13
TORSDOF 6
ENDMDL
MODEL 3
REMARK VINA RESULT:      -9.2      0.979      1.228
REMARK  Name = 
REMARK  6 active torsions:
REMARK  status: ('A' for Active; 'I' for Inactive)
REMARK    1  A    between atoms: N_2  and  C_4
REMARK    2  A    between atoms: C_4  and  C_5
REMARK    3  A    between atoms: C_7  and  C_8
REMARK    4  A    between atoms: C_8  and  C_9
REMARK    5  A    between atoms: C_9  and  N_13
REMARK    6  A    between atoms: N_13  and  C_14
REMARK                            x       y       z     vdW  Elec       q    Type
REMARK                         _______ _______ _______ _____ _____    ______ ____
ROOT
ATOM      9  C   UNL     1      -3.087   1.581  23.830  0.00  0.00    +0.119 C 
ATOM     10  C   UNL     1      -2.566   1.133  23.374  0.00  0.00    +0.161 C 
ATOM     11  O   UNL     1      -2.683   1.645  22.738  0.00  0.00    -0.351 OA
ATOM     12  C   UNL     1      -3.204   2.093  23.194  0.00  0.00    +0.161 C 
ENDROOT
BRANCH   9   8
ATOM      8  C   UNL     1      -3.609   2.029  24.287  0.00  0.00    +0.070 C 
BRANCH   8   7
ATOM      5  C   UNL     1      -2.789   3.793  25.167  0.00  0.00    +0.170 A 
ATOM      6  C   UNL     1      -2.819   2.971  25.092  0.00  0.00    +0.055 A 
ATOM      7  C   UNL     1      -3.396   2.787  24.532  0.00  0.00    +0.102 A 
ATOM     23  N   UNL     1      -3.723   3.494  24.260  0.00  0.00    -0.082 NA
ATOM     24  O   UNL     1      -3.348   4.116  24.653  0.00  0.00    -0.357 OA
BRANCH   5   4
ATOM      4  C   UNL     1      -2.289   4.216  25.667  0.00  0.00    +0.141 C 
BRANCH   4   2
ATOM      1  C   UNL     1      -0.900   4.068  25.368  0.00  0.00    +0.090 C 
ATOM      2  N   UNL     1      -1.583   4.530  25.376  0.00  0.00    -0.264 NA
ATOM      3  C   UNL     1      -1.562   5.305  25.094  0.00  0.00    +0.090 C 
ENDBRANCH   4   2
ENDBRANCH   5   4
ENDBRANCH   8   7
ENDBRANCH   9   8
BRANCH   9  13
ATOM     13  N   UNL     1      -2.970   1.068  24.467  0.00  0.00    -0.217 NA
BRANCH  13  14
ATOM     14  C   UNL     1      -3.187   0.275  24.403  0.00  0.00    +0.076 C 
ATOM     15  C   UNL     1      -3.949   0.075  24.158  0.00  0.00    +0.039 C 
ATOM     16  C   UNL     1      -4.167  -0.718  24.094  0.00  0.00    +0.095 C 
ATOM     17  N   UNL     1      -3.622  -1.311  24.274  0.00  0.00    -0.279 N 
ATOM     18  C   UNL     1      -2.861  -1.111  24.518  0.00  0.00    +0.095 C 
ATOM     19  C   UNL     1      -2.643  -0.318  24.583  0.00  0.00    +0.039 C 
ATOM     20  C   UNL     1      -3.840  -2.104  24.209  0.00  0.00    +0.226 C 
ATOM     21  C   UNL     1      -3.296  -2.697  24.389  0.00  0.00    +0.095 C 
ATOM     22  O   UNL     1      -4.602  -2.305  23.965  0.00  0.00    -0.275 OA
ENDBRANCH  13  14
ENDBRANCH   9  13
TORSDOF 6
ENDMDL
