REMARK  Name = 
REMARK  4 active torsions:
REMARK  status: ('A' for Active; 'I' for Inactive)
REMARK    1  A    between atoms: O_2  and  C_3
REMARK    2  A    between atoms: C_6  and  C_9
REMARK    3  A    between atoms: N_19  and  C_20
REMARK    4  A    between atoms: C_20  and  C_21
REMARK                            x       y       z     vdW  Elec       q    Type
REMARK                         _______ _______ _______ _____ _____    ______ ____
ROOT
ATOM      9  C   UNL     1       4.067   2.348   0.000  0.00  0.00    +0.249 C 
ATOM     10  O   UNL     1       4.067   3.173   0.000  0.00  0.00    -0.270 OA
ATOM     11  N   UNL     1       3.352   1.935   0.000  0.00  0.00    -0.272 N 
ATOM     12  C   UNL     1       3.352   1.110   0.000  0.00  0.00    +0.115 C 
ATOM     13  C   UNL     1       2.638   0.698   0.000  0.00  0.00    +0.117 C 
ATOM     14  N   UNL     1       1.923   1.110   0.000  0.00  0.00    -0.254 N 
ATOM     15  C   UNL     1       1.923   1.935   0.000  0.00  0.00    +0.174 C 
ATOM     16  C   UNL     1       2.638   2.348   0.000  0.00  0.00    +0.123 C 
ATOM     17  C   UNL     1       1.139   2.190   0.000  0.00  0.00    +0.253 C 
ATOM     18  O   UNL     1       0.884   2.975   0.000  0.00  0.00    -0.273 OA
ATOM     19  N   UNL     1       0.654   1.523   0.000  0.00  0.00    -0.208 N 
ATOM     27  C   UNL     1       1.139   0.856   0.000  0.00  0.00    +0.314 C 
ATOM     28  O   UNL     1       0.884   0.071   0.000  0.00  0.00    -0.252 OA
ENDROOT
BRANCH   9   6
ATOM      3  C   UNL     1       6.210   1.110   0.000  0.00  0.00    +0.139 A 
ATOM      4  C   UNL     1       5.496   0.698   0.000  0.00  0.00    +0.037 A 
ATOM      5  C   UNL     1       4.781   1.110   0.000  0.00  0.00    +0.008 A 
ATOM      6  C   UNL     1       4.781   1.935   0.000  0.00  0.00    +0.054 A 
ATOM      7  C   UNL     1       5.496   2.348   0.000  0.00  0.00    +0.008 A 
ATOM      8  C   UNL     1       6.210   1.935   0.000  0.00  0.00    +0.037 A 
BRANCH   3   2
ATOM      1  C   UNL     1       7.639   1.110   0.000  0.00  0.00    +0.252 C 
ATOM      2  O   UNL     1       6.925   0.698   0.000  0.00  0.00    -0.471 OA
ENDBRANCH   3   2
ENDBRANCH   9   6
BRANCH  19  20
ATOM     20  C   UNL     1      -0.171   1.523   0.000  0.00  0.00    +0.129 C 
BRANCH  20  21
ATOM     21  C   UNL     1      -0.584   2.237   0.000  0.00  0.00    -0.002 A 
ATOM     22  C   UNL     1      -1.409   2.237   0.000  0.00  0.00    -0.003 A 
ATOM     23  C   UNL     1      -1.821   2.952   0.000  0.00  0.00    -0.000 A 
ATOM     24  C   UNL     1      -1.409   3.666   0.000  0.00  0.00    -0.000 A 
ATOM     25  C   UNL     1      -0.584   3.666   0.000  0.00  0.00    -0.000 A 
ATOM     26  C   UNL     1      -0.171   2.952   0.000  0.00  0.00    -0.003 A 
ENDBRANCH  20  21
ENDBRANCH  19  20
TORSDOF 4
