REMARK  Name = 
REMARK  8 active torsions:
REMARK  status: ('A' for Active; 'I' for Inactive)
REMARK    1  A    between atoms: C_2  and  C_3
REMARK    2  A    between atoms: C_8  and  C_9
REMARK    3  A    between atoms: C_9  and  C_10
REMARK    4  A    between atoms: N_12  and  C_14
REMARK    5  A    between atoms: C_14  and  C_15
REMARK    6  A    between atoms: C_15  and  C_16
REMARK    7  A    between atoms: N_20  and  C_21
REMARK    8  A    between atoms: C_23  and  C_27
REMARK                            x       y       z     vdW  Elec       q    Type
REMARK                         _______ _______ _______ _____ _____    ______ ____
ROOT
ATOM      3  C   UNL     1       0.000  -5.775   0.000  0.00  0.00    +0.020 C 
ATOM      4  C   UNL     1      -0.715  -5.362   0.000  0.00  0.00    +0.095 C 
ATOM      5  N   UNL     1      -0.715  -4.537   0.000  0.00  0.00    -0.263 N 
ATOM      6  C   UNL     1       0.000  -4.125   0.000  0.00  0.00    +0.095 C 
ATOM      7  C   UNL     1       0.715  -4.537   0.000  0.00  0.00    +0.022 C 
ATOM      8  C   UNL     1       0.715  -5.362   0.000  0.00  0.00    +0.012 C 
ATOM     18  C   UNL     1      -1.429  -4.125   0.000  0.00  0.00    +0.327 C 
ATOM     19  O   UNL     1      -1.429  -3.300   0.000  0.00  0.00    -0.250 OA
ATOM     20  N   UNL     1      -2.143  -4.537   0.000  0.00  0.00    -0.162 NA
ENDROOT
BRANCH  20  21
ATOM     21  C   UNL     1      -2.858  -4.125   0.000  0.00  0.00    +0.075 A 
ATOM     22  C   UNL     1      -3.572  -4.537   0.000  0.00  0.00    +0.021 A 
ATOM     23  C   UNL     1      -4.287  -4.125   0.000  0.00  0.00    +0.073 A 
ATOM     24  C   UNL     1      -4.287  -3.300   0.000  0.00  0.00    +0.004 A 
ATOM     25  C   UNL     1      -3.572  -2.888   0.000  0.00  0.00    +0.001 A 
ATOM     26  C   UNL     1      -2.858  -3.300   0.000  0.00  0.00    +0.017 A 
BRANCH  23  27
ATOM     27  C   UNL     1      -5.001  -4.537   0.000  0.00  0.00    +0.419 C 
ATOM     28  F   UNL     1      -5.716  -4.950   0.000  0.00  0.00    -0.166 F 
ATOM     29  F   UNL     1      -5.414  -3.823   0.000  0.00  0.00    -0.166 F 
ATOM     30  F   UNL     1      -4.589  -5.252   0.000  0.00  0.00    -0.166 F 
ENDBRANCH  23  27
ENDBRANCH  20  21
BRANCH   3   2
ATOM      1  C   UNL     1       0.715  -7.013   0.000  0.00  0.00    +0.000 C 
ATOM      2  C   UNL     1       0.000  -6.600   0.000  0.00  0.00    +0.002 C 
ENDBRANCH   3   2
BRANCH   8   9
ATOM      9  C   UNL     1       1.429  -5.775   0.000  0.00  0.00    +0.085 C 
BRANCH   9  10
ATOM     10  C   UNL     1       2.143  -5.362   0.000  0.00  0.00    +0.226 C 
ATOM     11  O   UNL     1       2.143  -4.537   0.000  0.00  0.00    -0.275 OA
ATOM     12  N   UNL     1       2.858  -5.775   0.000  0.00  0.00    -0.277 N 
ATOM     13  C   UNL     1       2.858  -6.600   0.000  0.00  0.00    +0.115 C 
BRANCH  12  14
ATOM     14  C   UNL     1       3.572  -5.362   0.000  0.00  0.00    +0.110 C 
BRANCH  14  15
ATOM     15  C   UNL     1       4.287  -5.775   0.000  0.00  0.00    +0.127 C 
BRANCH  15  16
ATOM     16  C   UNL     1       5.001  -5.362   0.000  0.00  0.00    +0.075 C 
ATOM     17  N   UNL     1       5.716  -4.950   0.000  0.00  0.00    -0.196 NA
ENDBRANCH  15  16
ENDBRANCH  14  15
ENDBRANCH  12  14
ENDBRANCH   9  10
ENDBRANCH   8   9
TORSDOF 8
