MODEL 1
REMARK VINA RESULT:     -10.9      0.000      0.000
REMARK  Name = 
REMARK  5 active torsions:
REMARK  status: ('A' for Active; 'I' for Inactive)
REMARK    1  A    between atoms: C_4  and  C_5
REMARK    2  A    between atoms: C_5  and  N_6
REMARK    3  A    between atoms: C_10  and  C_11
REMARK    4  A    between atoms: C_13  and  C_16
REMARK    5  A    between atoms: C_19  and  N_22
REMARK                            x       y       z     vdW  Elec       q    Type
REMARK                         _______ _______ _______ _____ _____    ______ ____
ROOT
ATOM     11  C   UNL     1      -2.310  -0.310  24.785  0.00  0.00    +0.251 A 
ATOM     12  N   UNL     1      -1.753  -0.255  24.179  0.00  0.00    -0.190 NA
ATOM     13  C   UNL     1      -1.018  -0.103  24.521  0.00  0.00    +0.205 A 
ATOM     14  N   UNL     1      -1.120  -0.063  25.339  0.00  0.00    -0.056 NA
ATOM     15  O   UNL     1      -1.919  -0.191  25.502  0.00  0.00    -0.336 OA
ENDROOT
BRANCH  13  16
ATOM     16  C   UNL     1      -0.306  -0.007  24.117  0.00  0.00    +0.058 A 
ATOM     17  C   UNL     1      -0.019   0.750  23.959  0.00  0.00    +0.008 A 
ATOM     18  C   UNL     1       0.694   0.846  23.555  0.00  0.00    +0.034 A 
ATOM     19  C   UNL     1       1.120   0.184  23.308  0.00  0.00    +0.132 A 
ATOM     20  N   UNL     1       0.833  -0.573  23.465  0.00  0.00    -0.229 NA
ATOM     21  C   UNL     1       0.121  -0.669  23.869  0.00  0.00    +0.103 A 
BRANCH  19  22
ATOM     22  N   UNL     1       1.833   0.281  22.903  0.00  0.00    -0.288 N 
ATOM     23  C   UNL     1       1.947  -0.088  22.174  0.00  0.00    +0.124 C 
ATOM     24  C   UNL     1       2.659   0.008  21.770  0.00  0.00    +0.164 C 
ATOM     25  O   UNL     1       3.258   0.473  22.094  0.00  0.00    -0.350 OA
ATOM     26  C   UNL     1       3.145   0.842  22.824  0.00  0.00    +0.164 C 
ATOM     27  C   UNL     1       2.431   0.745  23.228  0.00  0.00    +0.124 C 
ENDBRANCH  19  22
ENDBRANCH  13  16
BRANCH  11  10
ATOM      6  N   UNL     1      -3.704   0.114  24.588  0.00  0.00    -0.263 NA
ATOM      7  C   UNL     1      -4.427  -0.277  24.516  0.00  0.00    +0.073 C 
ATOM      8  C   UNL     1      -4.287  -1.087  24.574  0.00  0.00    +0.019 C 
ATOM      9  C   UNL     1      -3.477  -1.199  24.682  0.00  0.00    +0.027 C 
ATOM     10  C   UNL     1      -3.117  -0.457  24.691  0.00  0.00    +0.138 C 
BRANCH   6   5
ATOM      5  C   UNL     1      -3.589   0.930  24.562  0.00  0.00    +0.101 C 
BRANCH   5   4
ATOM      1  C   UNL     1      -6.118   1.930  25.579  0.00  0.00    +0.130 C 
ATOM      2  N   UNL     1      -5.344   1.898  25.297  0.00  0.00    -0.324 N 
ATOM      3  C   UNL     1      -4.936   1.215  25.078  0.00  0.00    +0.073 A 
ATOM      4  C   UNL     1      -4.181   1.439  24.830  0.00  0.00    +0.012 A 
ATOM     28  C   UNL     1      -4.124   2.258  24.896  0.00  0.00    +0.015 A 
ATOM     29  C   UNL     1      -4.842   2.542  25.185  0.00  0.00    +0.060 A 
ATOM     30  C   UNL     1      -4.946   3.352  25.308  0.00  0.00    +0.017 A 
ATOM     31  C   UNL     1      -4.332   3.876  25.142  0.00  0.00    +0.001 A 
ATOM     32  C   UNL     1      -3.613   3.592  24.853  0.00  0.00    +0.000 A 
ATOM     33  C   UNL     1      -3.508   2.784  24.730  0.00  0.00    +0.001 A 
ENDBRANCH   5   4
ENDBRANCH   6   5
ENDBRANCH  11  10
TORSDOF 5
ENDMDL
MODEL 2
REMARK VINA RESULT:     -10.2      3.017      4.727
REMARK  Name = 
REMARK  5 active torsions:
REMARK  status: ('A' for Active; 'I' for Inactive)
REMARK    1  A    between atoms: C_4  and  C_5
REMARK    2  A    between atoms: C_5  and  N_6
REMARK    3  A    between atoms: C_10  and  C_11
REMARK    4  A    between atoms: C_13  and  C_16
REMARK    5  A    between atoms: C_19  and  N_22
REMARK                            x       y       z     vdW  Elec       q    Type
REMARK                         _______ _______ _______ _____ _____    ______ ____
ROOT
ATOM     11  C   UNL     1      -4.767   2.278  25.096  0.00  0.00    +0.251 A 
ATOM     12  N   UNL     1      -4.240   1.645  25.144  0.00  0.00    -0.190 NA
ATOM     13  C   UNL     1      -4.599   0.987  24.799  0.00  0.00    +0.205 A 
ATOM     14  N   UNL     1      -5.348   1.214  24.538  0.00  0.00    -0.056 NA
ATOM     15  O   UNL     1      -5.452   2.011  24.722  0.00  0.00    -0.336 OA
ENDROOT
BRANCH  13  16
ATOM     16  C   UNL     1      -4.267   0.236  24.728  0.00  0.00    +0.058 A 
ATOM     17  C   UNL     1      -4.086  -0.065  23.982  0.00  0.00    +0.008 A 
ATOM     18  C   UNL     1      -3.754  -0.818  23.910  0.00  0.00    +0.034 A 
ATOM     19  C   UNL     1      -3.605  -1.268  24.584  0.00  0.00    +0.132 A 
ATOM     20  N   UNL     1      -3.786  -0.967  25.331  0.00  0.00    -0.229 NA
ATOM     21  C   UNL     1      -4.117  -0.216  25.402  0.00  0.00    +0.103 A 
BRANCH  19  22
ATOM     22  N   UNL     1      -3.273  -2.021  24.512  0.00  0.00    -0.288 N 
ATOM     23  C   UNL     1      -3.761  -2.681  24.433  0.00  0.00    +0.124 C 
ATOM     24  C   UNL     1      -3.430  -3.433  24.361  0.00  0.00    +0.164 C 
ATOM     25  O   UNL     1      -2.610  -3.525  24.369  0.00  0.00    -0.350 OA
ATOM     26  C   UNL     1      -2.121  -2.865  24.448  0.00  0.00    +0.164 C 
ATOM     27  C   UNL     1      -2.453  -2.112  24.520  0.00  0.00    +0.124 C 
ENDBRANCH  19  22
ENDBRANCH  13  16
BRANCH  11  10
ATOM      6  N   UNL     1      -3.911   3.444  25.355  0.00  0.00    -0.263 NA
ATOM      7  C   UNL     1      -4.026   4.191  25.689  0.00  0.00    +0.073 C 
ATOM      8  C   UNL     1      -4.817   4.250  25.914  0.00  0.00    +0.019 C 
ATOM      9  C   UNL     1      -5.192   3.541  25.719  0.00  0.00    +0.027 C 
ATOM     10  C   UNL     1      -4.631   3.044  25.374  0.00  0.00    +0.138 C 
BRANCH   6   5
ATOM      5  C   UNL     1      -3.199   3.152  25.056  0.00  0.00    +0.101 C 
BRANCH   5   4
ATOM      1  C   UNL     1      -1.363   5.402  25.051  0.00  0.00    +0.130 C 
ATOM      2  N   UNL     1      -1.667   4.638  25.113  0.00  0.00    -0.324 N 
ATOM      3  C   UNL     1      -2.455   4.419  25.000  0.00  0.00    +0.073 A 
ATOM      4  C   UNL     1      -2.511   3.604  25.115  0.00  0.00    +0.012 A 
ATOM     28  C   UNL     1      -1.759   3.320  25.299  0.00  0.00    +0.015 A 
ATOM     29  C   UNL     1      -1.238   3.959  25.298  0.00  0.00    +0.060 A 
ATOM     30  C   UNL     1      -0.439   3.839  25.466  0.00  0.00    +0.017 A 
ATOM     31  C   UNL     1      -0.161   3.082  25.635  0.00  0.00    +0.001 A 
ATOM     32  C   UNL     1      -0.683   2.442  25.636  0.00  0.00    +0.000 A 
ATOM     33  C   UNL     1      -1.482   2.561  25.468  0.00  0.00    +0.001 A 
ENDBRANCH   5   4
ENDBRANCH   6   5
ENDBRANCH  11  10
TORSDOF 5
ENDMDL
MODEL 3
REMARK VINA RESULT:      -9.9      1.515      2.701
REMARK  Name = 
REMARK  5 active torsions:
REMARK  status: ('A' for Active; 'I' for Inactive)
REMARK    1  A    between atoms: C_4  and  C_5
REMARK    2  A    between atoms: C_5  and  N_6
REMARK    3  A    between atoms: C_10  and  C_11
REMARK    4  A    between atoms: C_13  and  C_16
REMARK    5  A    between atoms: C_19  and  N_22
REMARK                            x       y       z     vdW  Elec       q    Type
REMARK                         _______ _______ _______ _____ _____    ______ ____
ROOT
ATOM     11  C   UNL     1      -1.391   3.092  25.396  0.00  0.00    +0.251 A 
ATOM     12  N   UNL     1      -0.978   2.829  24.732  0.00  0.00    -0.190 NA
ATOM     13  C   UNL     1      -0.508   2.190  24.961  0.00  0.00    +0.205 A 
ATOM     14  N   UNL     1      -0.631   2.058  25.766  0.00  0.00    -0.056 NA
ATOM     15  O   UNL     1      -1.177   2.616  26.034  0.00  0.00    -0.336 OA
ENDROOT
BRANCH  13  16
ATOM     16  C   UNL     1      -0.003   1.759  24.471  0.00  0.00    +0.058 A 
ATOM     17  C   UNL     1      -0.250   1.036  24.160  0.00  0.00    +0.008 A 
ATOM     18  C   UNL     1       0.255   0.604  23.670  0.00  0.00    +0.034 A 
ATOM     19  C   UNL     1       1.006   0.896  23.491  0.00  0.00    +0.132 A 
ATOM     20  N   UNL     1       1.252   1.619  23.803  0.00  0.00    -0.229 NA
ATOM     21  C   UNL     1       0.748   2.050  24.292  0.00  0.00    +0.103 A 
BRANCH  19  22
ATOM     22  N   UNL     1       1.510   0.464  23.001  0.00  0.00    -0.288 N 
ATOM     23  C   UNL     1       1.199  -0.079  22.464  0.00  0.00    +0.124 C 
ATOM     24  C   UNL     1       1.703  -0.510  21.975  0.00  0.00    +0.164 C 
ATOM     25  O   UNL     1       2.519  -0.399  22.021  0.00  0.00    -0.350 OA
ATOM     26  C   UNL     1       2.831   0.145  22.558  0.00  0.00    +0.164 C 
ATOM     27  C   UNL     1       2.326   0.577  23.048  0.00  0.00    +0.124 C 
ENDBRANCH  19  22
ENDBRANCH  13  16
BRANCH  11  10
ATOM      6  N   UNL     1      -2.735   3.672  25.263  0.00  0.00    -0.263 NA
ATOM      7  C   UNL     1      -3.054   4.429  25.345  0.00  0.00    +0.073 C 
ATOM      8  C   UNL     1      -2.442   4.944  25.548  0.00  0.00    +0.019 C 
ATOM      9  C   UNL     1      -1.744   4.505  25.592  0.00  0.00    +0.027 C 
ATOM     10  C   UNL     1      -1.926   3.721  25.416  0.00  0.00    +0.138 C 
BRANCH   6   5
ATOM      5  C   UNL     1      -3.152   2.989  25.064  0.00  0.00    +0.101 C 
BRANCH   5   4
ATOM      1  C   UNL     1      -5.893   3.760  25.636  0.00  0.00    +0.130 C 
ATOM      2  N   UNL     1      -5.229   3.312  25.440  0.00  0.00    -0.324 N 
ATOM      3  C   UNL     1      -4.454   3.591  25.387  0.00  0.00    +0.073 A 
ATOM      4  C   UNL     1      -3.969   2.958  25.177  0.00  0.00    +0.012 A 
ATOM     28  C   UNL     1      -4.444   2.288  25.100  0.00  0.00    +0.015 A 
ATOM     29  C   UNL     1      -5.223   2.507  25.263  0.00  0.00    +0.060 A 
ATOM     30  C   UNL     1      -5.825   1.944  25.228  0.00  0.00    +0.017 A 
ATOM     31  C   UNL     1      -5.649   1.163  25.031  0.00  0.00    +0.001 A 
ATOM     32  C   UNL     1      -4.871   0.944  24.869  0.00  0.00    +0.000 A 
ATOM     33  C   UNL     1      -4.268   1.506  24.903  0.00  0.00    +0.001 A 
ENDBRANCH   5   4
ENDBRANCH   6   5
ENDBRANCH  11  10
TORSDOF 5
ENDMDL
MODEL 4
REMARK VINA RESULT:      -9.5      2.381      4.357
REMARK  Name = 
REMARK  5 active torsions:
REMARK  status: ('A' for Active; 'I' for Inactive)
REMARK    1  A    between atoms: C_4  and  C_5
REMARK    2  A    between atoms: C_5  and  N_6
REMARK    3  A    between atoms: C_10  and  C_11
REMARK    4  A    between atoms: C_13  and  C_16
REMARK    5  A    between atoms: C_19  and  N_22
REMARK                            x       y       z     vdW  Elec       q    Type
REMARK                         _______ _______ _______ _____ _____    ______ ____
ROOT
ATOM     11  C   UNL     1      -0.336  -0.340  24.623  0.00  0.00    +0.251 A 
ATOM     12  N   UNL     1      -0.686   0.347  24.918  0.00  0.00    -0.190 NA
ATOM     13  C   UNL     1      -0.373   0.990  24.507  0.00  0.00    +0.205 A 
ATOM     14  N   UNL     1       0.171   0.701  23.958  0.00  0.00    -0.056 NA
ATOM     15  O   UNL     1       0.193  -0.120  24.030  0.00  0.00    -0.336 OA
ENDROOT
BRANCH  13  16
ATOM     16  C   UNL     1      -0.568   1.782  24.624  0.00  0.00    +0.058 A 
ATOM     17  C   UNL     1      -0.325   2.170  25.311  0.00  0.00    +0.008 A 
ATOM     18  C   UNL     1      -0.521   2.963  25.428  0.00  0.00    +0.034 A 
ATOM     19  C   UNL     1      -0.960   3.368  24.859  0.00  0.00    +0.132 A 
ATOM     20  N   UNL     1      -1.203   2.980  24.173  0.00  0.00    -0.229 NA
ATOM     21  C   UNL     1      -1.007   2.188  24.056  0.00  0.00    +0.103 A 
BRANCH  19  22
ATOM     22  N   UNL     1      -1.155   4.162  24.977  0.00  0.00    -0.288 N 
ATOM     23  C   UNL     1      -1.859   4.361  25.359  0.00  0.00    +0.124 C 
ATOM     24  C   UNL     1      -2.054   5.153  25.476  0.00  0.00    +0.164 C 
ATOM     25  O   UNL     1      -1.546   5.747  25.212  0.00  0.00    -0.350 OA
ATOM     26  C   UNL     1      -0.843   5.548  24.829  0.00  0.00    +0.164 C 
ATOM     27  C   UNL     1      -0.647   4.755  24.712  0.00  0.00    +0.124 C 
ENDBRANCH  19  22
ENDBRANCH  13  16
BRANCH  11  10
ATOM      6  N   UNL     1      -1.152  -1.561  24.681  0.00  0.00    -0.263 NA
ATOM      7  C   UNL     1      -1.080  -2.293  25.055  0.00  0.00    +0.073 C 
ATOM      8  C   UNL     1      -0.374  -2.294  25.481  0.00  0.00    +0.019 C 
ATOM      9  C   UNL     1      -0.009  -1.562  25.372  0.00  0.00    +0.027 C 
ATOM     10  C   UNL     1      -0.490  -1.110  24.878  0.00  0.00    +0.138 C 
BRANCH   6   5
ATOM      5  C   UNL     1      -1.776  -1.323  24.197  0.00  0.00    +0.101 C 
BRANCH   5   4
ATOM      1  C   UNL     1      -3.781  -3.411  24.436  0.00  0.00    +0.130 C 
ATOM      2  N   UNL     1      -3.424  -2.672  24.350  0.00  0.00    -0.324 N 
ATOM      3  C   UNL     1      -2.612  -2.524  24.336  0.00  0.00    +0.073 A 
ATOM      4  C   UNL     1      -2.503  -1.713  24.240  0.00  0.00    +0.012 A 
ATOM     28  C   UNL     1      -3.246  -1.359  24.195  0.00  0.00    +0.015 A 
ATOM     29  C   UNL     1      -3.815  -1.952  24.263  0.00  0.00    +0.060 A 
ATOM     30  C   UNL     1      -4.617  -1.758  24.236  0.00  0.00    +0.017 A 
ATOM     31  C   UNL     1      -4.849  -0.973  24.142  0.00  0.00    +0.001 A 
ATOM     32  C   UNL     1      -4.280  -0.380  24.074  0.00  0.00    +0.000 A 
ATOM     33  C   UNL     1      -3.478  -0.572  24.100  0.00  0.00    +0.001 A 
ENDBRANCH   5   4
ENDBRANCH   6   5
ENDBRANCH  11  10
TORSDOF 5
ENDMDL
MODEL 5
REMARK VINA RESULT:      -9.3      1.161      2.888
REMARK  Name = 
REMARK  5 active torsions:
REMARK  status: ('A' for Active; 'I' for Inactive)
REMARK    1  A    between atoms: C_4  and  C_5
REMARK    2  A    between atoms: C_5  and  N_6
REMARK    3  A    between atoms: C_10  and  C_11
REMARK    4  A    between atoms: C_13  and  C_16
REMARK    5  A    between atoms: C_19  and  N_22
REMARK                            x       y       z     vdW  Elec       q    Type
REMARK                         _______ _______ _______ _____ _____    ______ ____
ROOT
ATOM     11  C   UNL     1      -2.200   1.529  24.724  0.00  0.00    +0.251 A 
ATOM     12  N   UNL     1      -1.645   1.278  24.169  0.00  0.00    -0.190 NA
ATOM     13  C   UNL     1      -0.894   1.377  24.495  0.00  0.00    +0.205 A 
ATOM     14  N   UNL     1      -0.985   1.690  25.254  0.00  0.00    -0.056 NA
ATOM     15  O   UNL     1      -1.792   1.784  25.394  0.00  0.00    -0.336 OA
ENDROOT
BRANCH  13  16
ATOM     16  C   UNL     1      -0.178   1.195  24.129  0.00  0.00    +0.058 A 
ATOM     17  C   UNL     1      -0.101   0.496  23.697  0.00  0.00    +0.008 A 
ATOM     18  C   UNL     1       0.616   0.314  23.331  0.00  0.00    +0.034 A 
ATOM     19  C   UNL     1       1.255   0.831  23.396  0.00  0.00    +0.132 A 
ATOM     20  N   UNL     1       1.179   1.530  23.828  0.00  0.00    -0.229 NA
ATOM     21  C   UNL     1       0.463   1.712  24.194  0.00  0.00    +0.103 A 
BRANCH  19  22
ATOM     22  N   UNL     1       1.972   0.649  23.030  0.00  0.00    -0.288 N 
ATOM     23  C   UNL     1       2.017   0.017  22.502  0.00  0.00    +0.124 C 
ATOM     24  C   UNL     1       2.733  -0.165  22.136  0.00  0.00    +0.164 C 
ATOM     25  O   UNL     1       3.405   0.285  22.297  0.00  0.00    -0.350 OA
ATOM     26  C   UNL     1       3.361   0.918  22.825  0.00  0.00    +0.164 C 
ATOM     27  C   UNL     1       2.644   1.100  23.192  0.00  0.00    +0.124 C 
ENDBRANCH  19  22
ENDBRANCH  13  16
BRANCH  11  10
ATOM      6  N   UNL     1      -3.527   0.902  24.810  0.00  0.00    -0.263 NA
ATOM      7  C   UNL     1      -4.296   1.137  24.624  0.00  0.00    +0.073 C 
ATOM      8  C   UNL     1      -4.264   1.904  24.326  0.00  0.00    +0.019 C 
ATOM      9  C   UNL     1      -3.475   2.146  24.327  0.00  0.00    +0.027 C 
ATOM     10  C   UNL     1      -3.020   1.526  24.626  0.00  0.00    +0.138 C 
BRANCH   6   5
ATOM      5  C   UNL     1      -3.305   0.172  25.124  0.00  0.00    +0.101 C 
BRANCH   5   4
ATOM      1  C   UNL     1      -4.716  -1.683  23.392  0.00  0.00    +0.130 C 
ATOM      2  N   UNL     1      -4.236  -1.378  23.989  0.00  0.00    -0.324 N 
ATOM      3  C   UNL     1      -4.100  -0.578  24.142  0.00  0.00    +0.073 A 
ATOM      4  C   UNL     1      -3.587  -0.525  24.785  0.00  0.00    +0.012 A 
ATOM     28  C   UNL     1      -3.405  -1.291  25.029  0.00  0.00    +0.015 A 
ATOM     29  C   UNL     1      -3.806  -1.818  24.537  0.00  0.00    +0.060 A 
ATOM     30  C   UNL     1      -3.727  -2.632  24.653  0.00  0.00    +0.017 A 
ATOM     31  C   UNL     1      -3.248  -2.918  25.260  0.00  0.00    +0.001 A 
ATOM     32  C   UNL     1      -2.847  -2.391  25.752  0.00  0.00    +0.000 A 
ATOM     33  C   UNL     1      -2.925  -1.578  25.638  0.00  0.00    +0.001 A 
ENDBRANCH   5   4
ENDBRANCH   6   5
ENDBRANCH  11  10
TORSDOF 5
ENDMDL
MODEL 6
REMARK VINA RESULT:      -9.2      2.187      3.564
REMARK  Name = 
REMARK  5 active torsions:
REMARK  status: ('A' for Active; 'I' for Inactive)
REMARK    1  A    between atoms: C_4  and  C_5
REMARK    2  A    between atoms: C_5  and  N_6
REMARK    3  A    between atoms: C_10  and  C_11
REMARK    4  A    between atoms: C_13  and  C_16
REMARK    5  A    between atoms: C_19  and  N_22
REMARK                            x       y       z     vdW  Elec       q    Type
REMARK                         _______ _______ _______ _____ _____    ______ ____
ROOT
ATOM     11  C   UNL     1      -1.416   3.157  24.706  0.00  0.00    +0.251 A 
ATOM     12  N   UNL     1      -1.568   2.385  24.954  0.00  0.00    -0.190 NA
ATOM     13  C   UNL     1      -1.041   1.883  24.565  0.00  0.00    +0.205 A 
ATOM     14  N   UNL     1      -0.562   2.346  24.077  0.00  0.00    -0.056 NA
ATOM     15  O   UNL     1      -0.795   3.133  24.165  0.00  0.00    -0.336 OA
ENDROOT
BRANCH  13  16
ATOM     16  C   UNL     1      -0.998   1.065  24.649  0.00  0.00    +0.058 A 
ATOM     17  C   UNL     1      -1.156   0.716  25.380  0.00  0.00    +0.008 A 
ATOM     18  C   UNL     1      -1.113  -0.104  25.465  0.00  0.00    +0.034 A 
ATOM     19  C   UNL     1      -0.913  -0.575  24.818  0.00  0.00    +0.132 A 
ATOM     20  N   UNL     1      -0.756  -0.226  24.086  0.00  0.00    -0.229 NA
ATOM     21  C   UNL     1      -0.798   0.592  24.002  0.00  0.00    +0.103 A 
BRANCH  19  22
ATOM     22  N   UNL     1      -0.871  -1.395  24.902  0.00  0.00    -0.288 N 
ATOM     23  C   UNL     1      -0.222  -1.738  25.280  0.00  0.00    +0.124 C 
ATOM     24  C   UNL     1      -0.180  -2.557  25.364  0.00  0.00    +0.164 C 
ATOM     25  O   UNL     1      -0.786  -3.034  25.071  0.00  0.00    -0.350 OA
ATOM     26  C   UNL     1      -1.434  -2.691  24.693  0.00  0.00    +0.164 C 
ATOM     27  C   UNL     1      -1.477  -1.871  24.609  0.00  0.00    +0.124 C 
ENDBRANCH  19  22
ENDBRANCH  13  16
BRANCH  11  10
ATOM      6  N   UNL     1      -2.631   3.958  24.914  0.00  0.00    -0.263 NA
ATOM      7  C   UNL     1      -2.791   4.705  25.225  0.00  0.00    +0.073 C 
ATOM      8  C   UNL     1      -2.076   5.042  25.460  0.00  0.00    +0.019 C 
ATOM      9  C   UNL     1      -1.474   4.503  25.295  0.00  0.00    +0.027 C 
ATOM     10  C   UNL     1      -1.817   3.834  24.957  0.00  0.00    +0.138 C 
BRANCH   6   5
ATOM      5  C   UNL     1      -3.188   3.429  24.612  0.00  0.00    +0.101 C 
BRANCH   5   4
ATOM      1  C   UNL     1      -5.701   4.367  25.726  0.00  0.00    +0.130 C 
ATOM      2  N   UNL     1      -5.121   3.880  25.399  0.00  0.00    -0.324 N 
ATOM      3  C   UNL     1      -4.355   4.109  25.193  0.00  0.00    +0.073 A 
ATOM      4  C   UNL     1      -3.966   3.449  24.887  0.00  0.00    +0.012 A 
ATOM     28  C   UNL     1      -4.491   2.813  24.904  0.00  0.00    +0.015 A 
ATOM     29  C   UNL     1      -5.205   3.079  25.220  0.00  0.00    +0.060 A 
ATOM     30  C   UNL     1      -5.838   2.558  25.305  0.00  0.00    +0.017 A 
ATOM     31  C   UNL     1      -5.758   1.770  25.073  0.00  0.00    +0.001 A 
ATOM     32  C   UNL     1      -5.045   1.504  24.756  0.00  0.00    +0.000 A 
ATOM     33  C   UNL     1      -4.410   2.025  24.672  0.00  0.00    +0.001 A 
ENDBRANCH   5   4
ENDBRANCH   6   5
ENDBRANCH  11  10
TORSDOF 5
ENDMDL
MODEL 7
REMARK VINA RESULT:      -9.0      1.777      5.657
REMARK  Name = 
REMARK  5 active torsions:
REMARK  status: ('A' for Active; 'I' for Inactive)
REMARK    1  A    between atoms: C_4  and  C_5
REMARK    2  A    between atoms: C_5  and  N_6
REMARK    3  A    between atoms: C_10  and  C_11
REMARK    4  A    between atoms: C_13  and  C_16
REMARK    5  A    between atoms: C_19  and  N_22
REMARK                            x       y       z     vdW  Elec       q    Type
REMARK                         _______ _______ _______ _____ _____    ______ ____
ROOT
ATOM     11  C   UNL     1      -0.695   1.298  24.480  0.00  0.00    +0.251 A 
ATOM     12  N   UNL     1      -1.508   1.438  24.473  0.00  0.00    -0.190 NA
ATOM     13  C   UNL     1      -1.651   2.142  24.878  0.00  0.00    +0.205 A 
ATOM     14  N   UNL     1      -0.925   2.439  25.136  0.00  0.00    -0.056 NA
ATOM     15  O   UNL     1      -0.335   1.917  24.890  0.00  0.00    -0.336 OA
ENDROOT
BRANCH  13  16
ATOM     16  C   UNL     1      -2.388   2.489  25.004  0.00  0.00    +0.058 A 
ATOM     17  C   UNL     1      -2.999   2.365  24.464  0.00  0.00    +0.008 A 
ATOM     18  C   UNL     1      -3.738   2.712  24.590  0.00  0.00    +0.034 A 
ATOM     19  C   UNL     1      -3.863   3.184  25.255  0.00  0.00    +0.132 A 
ATOM     20  N   UNL     1      -3.251   3.308  25.794  0.00  0.00    -0.229 NA
ATOM     21  C   UNL     1      -2.514   2.961  25.669  0.00  0.00    +0.103 A 
BRANCH  19  22
ATOM     22  N   UNL     1      -4.601   3.532  25.380  0.00  0.00    -0.288 N 
ATOM     23  C   UNL     1      -5.241   3.068  25.619  0.00  0.00    +0.124 C 
ATOM     24  C   UNL     1      -5.978   3.415  25.744  0.00  0.00    +0.164 C 
ATOM     25  O   UNL     1      -6.077   4.226  25.631  0.00  0.00    -0.350 OA
ATOM     26  C   UNL     1      -5.438   4.690  25.392  0.00  0.00    +0.164 C 
ATOM     27  C   UNL     1      -4.699   4.343  25.267  0.00  0.00    +0.124 C 
ENDBRANCH  19  22
ENDBRANCH  13  16
BRANCH  11  10
ATOM      6  N   UNL     1      -0.437  -0.140  24.325  0.00  0.00    -0.263 NA
ATOM      7  C   UNL     1       0.062  -0.595  23.850  0.00  0.00    +0.073 C 
ATOM      8  C   UNL     1       0.496  -0.083  23.371  0.00  0.00    +0.019 C 
ATOM      9  C   UNL     1       0.265   0.689  23.548  0.00  0.00    +0.027 C 
ATOM     10  C   UNL     1      -0.311   0.653  24.137  0.00  0.00    +0.138 C 
BRANCH   6   5
ATOM      5  C   UNL     1      -0.967  -0.429  24.887  0.00  0.00    +0.101 C 
BRANCH   5   4
ATOM      1  C   UNL     1      -1.660  -3.060  23.873  0.00  0.00    +0.130 C 
ATOM      2  N   UNL     1      -1.689  -2.345  24.282  0.00  0.00    -0.324 N 
ATOM      3  C   UNL     1      -1.119  -1.748  24.257  0.00  0.00    +0.073 A 
ATOM      4  C   UNL     1      -1.370  -1.135  24.749  0.00  0.00    +0.012 A 
ATOM     28  C   UNL     1      -2.094  -1.353  25.077  0.00  0.00    +0.015 A 
ATOM     29  C   UNL     1      -2.291  -2.100  24.789  0.00  0.00    +0.060 A 
ATOM     30  C   UNL     1      -2.995  -2.461  25.026  0.00  0.00    +0.017 A 
ATOM     31  C   UNL     1      -3.500  -2.075  25.551  0.00  0.00    +0.001 A 
ATOM     32  C   UNL     1      -3.303  -1.328  25.839  0.00  0.00    +0.000 A 
ATOM     33  C   UNL     1      -2.601  -0.966  25.603  0.00  0.00    +0.001 A 
ENDBRANCH   5   4
ENDBRANCH   6   5
ENDBRANCH  11  10
TORSDOF 5
ENDMDL
