MODEL 1
REMARK VINA RESULT:     -12.2      0.000      0.000
REMARK  Name = 
REMARK  7 active torsions:
REMARK  status: ('A' for Active; 'I' for Inactive)
REMARK    1  A    between atoms: C_4  and  C_30
REMARK    2  A    between atoms: C_6  and  C_7
REMARK    3  A    between atoms: C_14  and  C_15
REMARK    4  A    between atoms: C_15  and  O_16
REMARK    5  A    between atoms: O_16  and  C_17
REMARK    6  A    between atoms: N_19  and  C_20
REMARK    7  A    between atoms: C_22  and  C_26
REMARK                            x       y       z     vdW  Elec       q    Type
REMARK                         _______ _______ _______ _____ _____    ______ ____
ROOT
ATOM      7  C   UNL     1      -0.919   0.149  24.280  0.00  0.00    +0.056 C 
ATOM      8  C   UNL     1      -0.661  -0.538  24.022  0.00  0.00    +0.078 C 
ATOM      9  N   UNL     1      -0.275   0.187  23.942  0.00  0.00    -0.270 NA
ATOM     10  C   UNL     1      -0.884   0.911  24.394  0.00  0.00    +0.072 C 
ATOM     11  C   UNL     1      -0.996   1.533  24.563  0.00  0.00    +0.018 C 
ATOM     12  C   UNL     1      -0.534   0.856  24.197  0.00  0.00    +0.010 C 
ATOM     13  C   UNL     1       0.232   1.071  23.825  0.00  0.00    +0.020 C 
ATOM     14  C   UNL     1       0.519   0.417  23.557  0.00  0.00    +0.102 C 
ENDROOT
BRANCH   7   6
ATOM      1  C   UNL     1      -1.321  -0.755  25.776  0.00  0.00    +0.153 C 
ATOM      2  N   UNL     1      -1.831  -0.258  25.358  0.00  0.00    -0.253 N 
ATOM      3  N   UNL     1      -2.614  -0.090  25.554  0.00  0.00    -0.170 NA
ATOM      4  C   UNL     1      -2.913   0.430  24.988  0.00  0.00    +0.102 A 
ATOM      5  C   UNL     1      -2.314   0.582  24.442  0.00  0.00    +0.035 A 
ATOM      6  C   UNL     1      -1.646   0.157  24.670  0.00  0.00    +0.058 A 
BRANCH   4  30
ATOM     30  C   UNL     1      -3.676   0.742  24.971  0.00  0.00    +0.019 A 
ATOM     31  C   UNL     1      -3.809   1.519  25.214  0.00  0.00    +0.002 A 
ATOM     32  C   UNL     1      -4.574   1.831  25.197  0.00  0.00    +0.000 A 
ATOM     33  C   UNL     1      -5.203   1.366  24.937  0.00  0.00    +0.000 A 
ATOM     34  C   UNL     1      -5.967   1.678  24.920  0.00  0.00    +0.000 A 
ATOM     35  C   UNL     1      -6.101   2.455  25.163  0.00  0.00    +0.000 A 
ATOM     36  C   UNL     1      -5.470   2.920  25.422  0.00  0.00    +0.000 A 
ATOM     37  C   UNL     1      -4.707   2.608  25.439  0.00  0.00    +0.000 A 
ATOM     38  C   UNL     1      -5.070   0.588  24.694  0.00  0.00    +0.000 A 
ATOM     39  C   UNL     1      -4.306   0.276  24.711  0.00  0.00    +0.002 A 
ENDBRANCH   4  30
ENDBRANCH   7   6
BRANCH  14  15
ATOM     15  C   UNL     1       1.167   0.103  23.155  0.00  0.00    +0.226 C 
BRANCH  15  16
ATOM     16  O   UNL     1       1.752   0.605  22.859  0.00  0.00    -0.432 OA
BRANCH  16  17
ATOM     17  C   UNL     1       2.534   0.344  22.812  0.00  0.00    +0.425 C 
ATOM     18  O   UNL     1       2.707  -0.377  22.454  0.00  0.00    -0.224 OA
ATOM     19  N   UNL     1       3.142   0.807  23.125  0.00  0.00    -0.142 NA
BRANCH  19  20
ATOM     20  C   UNL     1       3.923   0.547  23.078  0.00  0.00    +0.077 A 
ATOM     21  C   UNL     1       4.277   0.186  23.730  0.00  0.00    +0.021 A 
ATOM     22  C   UNL     1       5.058  -0.074  23.684  0.00  0.00    +0.073 A 
ATOM     23  C   UNL     1       5.486   0.027  22.985  0.00  0.00    +0.004 A 
ATOM     24  C   UNL     1       5.131   0.387  22.333  0.00  0.00    +0.001 A 
ATOM     25  C   UNL     1       4.350   0.647  22.379  0.00  0.00    +0.017 A 
BRANCH  22  26
ATOM     26  C   UNL     1       5.413  -0.435  24.335  0.00  0.00    +0.419 C 
ATOM     27  F   UNL     1       5.767  -0.796  24.987  0.00  0.00    -0.166 F 
ATOM     28  F   UNL     1       5.230  -1.177  24.024  0.00  0.00    -0.166 F 
ATOM     29  F   UNL     1       5.596   0.307  24.647  0.00  0.00    -0.166 F 
ENDBRANCH  22  26
ENDBRANCH  19  20
ENDBRANCH  16  17
ENDBRANCH  15  16
ENDBRANCH  14  15
TORSDOF 7
ENDMDL
MODEL 2
REMARK VINA RESULT:     -10.5      3.474      7.954
REMARK  Name = 
REMARK  7 active torsions:
REMARK  status: ('A' for Active; 'I' for Inactive)
REMARK    1  A    between atoms: C_4  and  C_30
REMARK    2  A    between atoms: C_6  and  C_7
REMARK    3  A    between atoms: C_14  and  C_15
REMARK    4  A    between atoms: C_15  and  O_16
REMARK    5  A    between atoms: O_16  and  C_17
REMARK    6  A    between atoms: N_19  and  C_20
REMARK    7  A    between atoms: C_22  and  C_26
REMARK                            x       y       z     vdW  Elec       q    Type
REMARK                         _______ _______ _______ _____ _____    ______ ____
ROOT
ATOM      7  C   UNL     1       0.280   0.208  23.526  0.00  0.00    +0.056 C 
ATOM      8  C   UNL     1      -0.182  -0.418  23.554  0.00  0.00    +0.078 C 
ATOM      9  N   UNL     1      -0.352   0.327  23.866  0.00  0.00    -0.270 NA
ATOM     10  C   UNL     1       0.472   0.943  23.661  0.00  0.00    +0.072 C 
ATOM     11  C   UNL     1       0.769   1.523  23.698  0.00  0.00    +0.018 C 
ATOM     12  C   UNL     1       0.105   0.935  23.834  0.00  0.00    +0.010 C 
ATOM     13  C   UNL     1      -0.596   1.240  24.265  0.00  0.00    +0.020 C 
ATOM     14  C   UNL     1      -1.078   0.651  24.314  0.00  0.00    +0.102 C 
ENDROOT
BRANCH   7   6
ATOM      1  C   UNL     1       0.536  -0.348  21.839  0.00  0.00    +0.153 C 
ATOM      2  N   UNL     1       1.127  -0.134  22.374  0.00  0.00    -0.253 N 
ATOM      3  N   UNL     1       1.938  -0.138  22.227  0.00  0.00    -0.170 NA
ATOM      4  C   UNL     1       2.322   0.115  22.912  0.00  0.00    +0.102 A 
ATOM      5  C   UNL     1       1.748   0.275  23.481  0.00  0.00    +0.035 A 
ATOM      6  C   UNL     1       1.009   0.121  23.149  0.00  0.00    +0.058 A 
BRANCH   4  30
ATOM     30  C   UNL     1       3.138   0.194  23.010  0.00  0.00    +0.019 A 
ATOM     31  C   UNL     1       3.562  -0.388  23.413  0.00  0.00    +0.002 A 
ATOM     32  C   UNL     1       4.379  -0.309  23.511  0.00  0.00    +0.000 A 
ATOM     33  C   UNL     1       4.768   0.351  23.205  0.00  0.00    +0.000 A 
ATOM     34  C   UNL     1       5.584   0.430  23.303  0.00  0.00    +0.000 A 
ATOM     35  C   UNL     1       6.009  -0.151  23.706  0.00  0.00    +0.000 A 
ATOM     36  C   UNL     1       5.619  -0.811  24.011  0.00  0.00    +0.000 A 
ATOM     37  C   UNL     1       4.803  -0.890  23.913  0.00  0.00    +0.000 A 
ATOM     38  C   UNL     1       4.344   0.933  22.803  0.00  0.00    +0.000 A 
ATOM     39  C   UNL     1       3.527   0.854  22.705  0.00  0.00    +0.002 A 
ENDBRANCH   4  30
ENDBRANCH   7   6
BRANCH  14  15
ATOM     15  C   UNL     1      -1.819   0.433  24.602  0.00  0.00    +0.226 C 
BRANCH  15  16
ATOM     16  O   UNL     1      -2.499   0.610  24.168  0.00  0.00    -0.432 OA
BRANCH  16  17
ATOM     17  C   UNL     1      -3.193   0.825  24.559  0.00  0.00    +0.425 C 
ATOM     18  O   UNL     1      -3.360   0.515  25.304  0.00  0.00    -0.224 OA
ATOM     19  N   UNL     1      -3.720   1.352  24.203  0.00  0.00    -0.142 NA
BRANCH  19  20
ATOM     20  C   UNL     1      -4.413   1.568  24.593  0.00  0.00    +0.077 A 
ATOM     21  C   UNL     1      -4.502   2.335  24.885  0.00  0.00    +0.021 A 
ATOM     22  C   UNL     1      -5.195   2.550  25.275  0.00  0.00    +0.073 A 
ATOM     23  C   UNL     1      -5.802   1.999  25.373  0.00  0.00    +0.004 A 
ATOM     24  C   UNL     1      -5.714   1.232  25.082  0.00  0.00    +0.001 A 
ATOM     25  C   UNL     1      -5.020   1.016  24.691  0.00  0.00    +0.017 A 
BRANCH  22  26
ATOM     26  C   UNL     1      -5.284   3.317  25.566  0.00  0.00    +0.419 C 
ATOM     27  F   UNL     1      -5.372   4.083  25.858  0.00  0.00    -0.166 F 
ATOM     28  F   UNL     1      -5.459   3.013  26.313  0.00  0.00    -0.166 F 
ATOM     29  F   UNL     1      -5.108   3.621  24.820  0.00  0.00    -0.166 F 
ENDBRANCH  22  26
ENDBRANCH  19  20
ENDBRANCH  16  17
ENDBRANCH  15  16
ENDBRANCH  14  15
TORSDOF 7
ENDMDL
