REMARK  Name = 
REMARK  5 active torsions:
REMARK  status: ('A' for Active; 'I' for Inactive)
REMARK    1  A    between atoms: C_2  and  C_5
REMARK    2  A    between atoms: C_9  and  C_10
REMARK    3  A    between atoms: C_10  and  N_11
REMARK    4  A    between atoms: N_14  and  C_15
REMARK    5  A    between atoms: C_15  and  C_16
REMARK                            x       y       z     vdW  Elec       q    Type
REMARK                         _______ _______ _______ _____ _____    ______ ____
ROOT
ATOM     11  N   UNL     1       0.715  -0.412   0.000  0.00  0.00    -0.271 N 
ATOM     12  C   UNL     1       0.000   0.000   0.000  0.00  0.00    +0.120 C 
ATOM     13  C   UNL     1      -0.785  -0.255   0.000  0.00  0.00    +0.095 C 
ATOM     14  N   UNL     1      -1.270   0.412   0.000  0.00  0.00    -0.265 NA
ATOM     22  C   UNL     1      -0.785   1.080   0.000  0.00  0.00    +0.104 C 
ATOM     23  C   UNL     1       0.000   0.825   0.000  0.00  0.00    +0.151 C 
ATOM     24  O   UNL     1       0.715   1.238   0.000  0.00  0.00    -0.344 OA
ATOM     25  C   UNL     1       1.429   0.825   0.000  0.00  0.00    +0.227 C 
ATOM     26  C   UNL     1       1.429   0.000   0.000  0.00  0.00    +0.256 C 
ATOM     27  O   UNL     1       2.143  -0.412   0.000  0.00  0.00    -0.272 OA
ENDROOT
BRANCH  11  10
ATOM     10  C   UNL     1       0.715  -1.238   0.000  0.00  0.00    +0.120 C 
BRANCH  10   9
ATOM      5  C   UNL     1       2.858  -1.650   0.000  0.00  0.00    +0.071 A 
ATOM      6  C   UNL     1       2.858  -2.475   0.000  0.00  0.00    +0.004 A 
ATOM      7  C   UNL     1       2.143  -2.888   0.000  0.00  0.00    -0.000 A 
ATOM      8  C   UNL     1       1.429  -2.475   0.000  0.00  0.00    -0.003 A 
ATOM      9  C   UNL     1       1.429  -1.650   0.000  0.00  0.00    -0.002 A 
ATOM     28  C   UNL     1       2.143  -1.238   0.000  0.00  0.00    +0.001 A 
BRANCH   5   2
ATOM      1  F   UNL     1       4.287  -0.825   0.000  0.00  0.00    -0.166 F 
ATOM      2  C   UNL     1       3.572  -1.238   0.000  0.00  0.00    +0.419 C 
ATOM      3  F   UNL     1       3.160  -0.523   0.000  0.00  0.00    -0.166 F 
ATOM      4  F   UNL     1       3.985  -1.952   0.000  0.00  0.00    -0.166 F 
ENDBRANCH   5   2
ENDBRANCH  10   9
ENDBRANCH  11  10
BRANCH  14  15
ATOM     15  C   UNL     1      -2.095   0.412   0.000  0.00  0.00    +0.101 C 
BRANCH  15  16
ATOM     16  C   UNL     1      -2.507   1.127   0.000  0.00  0.00    +0.013 A 
ATOM     17  C   UNL     1      -3.332   1.127   0.000  0.00  0.00    +0.000 A 
ATOM     18  C   UNL     1      -3.744   1.841   0.000  0.00  0.00    +0.020 A 
ATOM     19  C   UNL     1      -3.332   2.556   0.000  0.00  0.00    +0.099 A 
ATOM     20  N   UNL     1      -2.507   2.556   0.000  0.00  0.00    -0.243 NA
ATOM     21  C   UNL     1      -2.095   1.841   0.000  0.00  0.00    +0.096 A 
ENDBRANCH  15  16
ENDBRANCH  14  15
TORSDOF 5
