REMARK  Name = 
REMARK  9 active torsions:
REMARK  status: ('A' for Active; 'I' for Inactive)
REMARK    1  A    between atoms: O_2  and  C_3
REMARK    2  A    between atoms: C_6  and  C_11
REMARK    3  A    between atoms: C_8  and  O_9
REMARK    4  A    between atoms: C_15  and  C_17
REMARK    5  A    between atoms: C_24  and  C_25
REMARK    6  A    between atoms: C_25  and  O_26
REMARK    7  A    between atoms: O_26  and  C_27
REMARK    8  A    between atoms: N_29  and  C_30
REMARK    9  A    between atoms: C_33  and  C_36
REMARK                            x       y       z     vdW  Elec       q    Type
REMARK                         _______ _______ _______ _____ _____    ______ ____
ROOT
ATOM     17  C   UNL     1       1.661  -1.343   0.000  0.00  0.00    +0.056 C 
ATOM     18  C   UNL     1       1.814  -2.106   0.000  0.00  0.00    +0.078 C 
ATOM     19  N   UNL     1       1.065  -1.759   0.000  0.00  0.00    -0.270 NA
ATOM     20  C   UNL     1       1.205  -0.720   0.000  0.00  0.00    +0.072 C 
ATOM     21  C   UNL     1       0.961  -0.114   0.000  0.00  0.00    +0.018 C 
ATOM     22  C   UNL     1       0.923  -1.010   0.000  0.00  0.00    +0.010 C 
ATOM     23  C   UNL     1       0.119  -1.362   0.000  0.00  0.00    +0.020 C 
ATOM     24  C   UNL     1       0.226  -2.118   0.000  0.00  0.00    +0.102 C 
ENDROOT
BRANCH  17  15
ATOM     11  C   UNL     1       3.043   0.285   0.000  0.00  0.00    +0.102 A 
ATOM     12  N   UNL     1       3.557  -0.360   0.000  0.00  0.00    -0.170 NA
ATOM     13  N   UNL     1       3.102  -1.048   0.000  0.00  0.00    -0.253 N 
ATOM     14  C   UNL     1       3.391  -1.821   0.000  0.00  0.00    +0.153 C 
ATOM     15  C   UNL     1       2.307  -0.828   0.000  0.00  0.00    +0.058 A 
ATOM     16  C   UNL     1       2.270  -0.004   0.000  0.00  0.00    +0.035 A 
BRANCH  11   6
ATOM      3  C   UNL     1       3.702   2.671   0.000  0.00  0.00    +0.172 A 
ATOM      4  C   UNL     1       4.281   2.083   0.000  0.00  0.00    +0.040 A 
ATOM      5  C   UNL     1       4.061   1.288   0.000  0.00  0.00    +0.005 A 
ATOM      6  C   UNL     1       3.263   1.080   0.000  0.00  0.00    +0.023 A 
ATOM      7  C   UNL     1       2.684   1.668   0.000  0.00  0.00    +0.042 A 
ATOM      8  C   UNL     1       2.904   2.464   0.000  0.00  0.00    +0.172 A 
BRANCH   3   2
ATOM      1  C   UNL     1       3.343   4.054   0.000  0.00  0.00    +0.253 C 
ATOM      2  O   UNL     1       3.922   3.466   0.000  0.00  0.00    -0.468 OA
ENDBRANCH   3   2
BRANCH   8   9
ATOM      9  O   UNL     1       2.325   3.052   0.000  0.00  0.00    -0.468 OA
ATOM     10  C   UNL     1       2.545   3.847   0.000  0.00  0.00    +0.253 C 
ENDBRANCH   8   9
ENDBRANCH  11   6
ENDBRANCH  17  15
BRANCH  24  25
ATOM     25  C   UNL     1      -0.179  -2.836   0.000  0.00  0.00    +0.226 C 
BRANCH  25  26
ATOM     26  O   UNL     1       0.241  -3.546   0.000  0.00  0.00    -0.432 OA
BRANCH  26  27
ATOM     27  C   UNL     1      -0.163  -4.265   0.000  0.00  0.00    +0.425 C 
ATOM     28  O   UNL     1      -0.988  -4.274   0.000  0.00  0.00    -0.224 OA
ATOM     29  N   UNL     1       0.257  -4.975   0.000  0.00  0.00    -0.142 NA
BRANCH  29  30
ATOM     30  C   UNL     1      -0.148  -5.694   0.000  0.00  0.00    +0.077 A 
ATOM     31  C   UNL     1       0.272  -6.404   0.000  0.00  0.00    +0.016 A 
ATOM     32  C   UNL     1      -0.133  -7.123   0.000  0.00  0.00    -0.003 A 
ATOM     33  C   UNL     1      -0.958  -7.132   0.000  0.00  0.00    -0.022 A 
ATOM     34  C   UNL     1      -1.378  -6.422   0.000  0.00  0.00    -0.003 A 
ATOM     35  C   UNL     1      -0.973  -5.703   0.000  0.00  0.00    +0.016 A 
BRANCH  33  36
ATOM     36  C   UNL     1      -1.362  -7.851   0.000  0.00  0.00    +0.022 C 
ATOM     37  C   UNL     1      -0.942  -8.561   0.000  0.00  0.00    +0.005 C 
ATOM     38  C   UNL     1      -2.187  -7.859   0.000  0.00  0.00    +0.005 C 
ENDBRANCH  33  36
ENDBRANCH  29  30
ENDBRANCH  26  27
ENDBRANCH  25  26
ENDBRANCH  24  25
TORSDOF 9
