MODEL 1
REMARK VINA RESULT:      -7.8      0.000      0.000
REMARK  Name = 
REMARK  11 active torsions:
REMARK  status: ('A' for Active; 'I' for Inactive)
REMARK    1  A    between atoms: C_2  and  C_3
REMARK    2  A    between atoms: C_3  and  C_4
REMARK    3  A    between atoms: C_3  and  C_6
REMARK    4  A    between atoms: C_8  and  C_36
REMARK    5  A    between atoms: C_10  and  C_12
REMARK    6  A    between atoms: C_19  and  C_20
REMARK    7  A    between atoms: C_20  and  N_21
REMARK    8  A    between atoms: C_22  and  C_24
REMARK    9  A    between atoms: C_26  and  O_27
REMARK   10  A    between atoms: C_29  and  O_30
REMARK   11  A    between atoms: C_32  and  O_33
REMARK                            x       y       z     vdW  Elec       q    Type
REMARK                         _______ _______ _______ _____ _____    ______ ____
ROOT
ATOM     12  C   UNL     1      -1.323   0.562  23.850  0.00  0.00    +0.056 C 
ATOM     13  C   UNL     1      -1.264   0.445  23.083  0.00  0.00    +0.078 C 
ATOM     14  N   UNL     1      -0.641   0.449  23.624  0.00  0.00    -0.272 NA
ATOM     15  C   UNL     1      -1.054   0.633  24.570  0.00  0.00    +0.072 C 
ATOM     16  C   UNL     1      -0.984   0.717  25.214  0.00  0.00    +0.018 C 
ATOM     17  C   UNL     1      -0.707   0.564  24.375  0.00  0.00    +0.010 C 
ATOM     18  C   UNL     1       0.157   0.447  24.269  0.00  0.00    +0.018 C 
ATOM     19  C   UNL     1       0.258   0.329  23.522  0.00  0.00    +0.079 C 
ENDROOT
BRANCH  12  10
ATOM      6  C   UNL     1      -3.306   0.189  24.682  0.00  0.00    +0.061 A 
ATOM      7  N   UNL     1      -3.589   0.960  24.764  0.00  0.00    -0.231 NA
ATOM      8  C   UNL     1      -3.116   1.598  24.541  0.00  0.00    +0.162 A 
ATOM      9  N   UNL     1      -2.361   1.466  24.237  0.00  0.00    -0.231 NA
ATOM     10  C   UNL     1      -2.079   0.694  24.155  0.00  0.00    +0.063 A 
ATOM     11  C   UNL     1      -2.551   0.056  24.377  0.00  0.00    +0.030 A 
BRANCH   8  36
ATOM     36  C   UNL     1      -3.398   2.370  24.623  0.00  0.00    +0.039 A 
ATOM     37  C   UNL     1      -3.377   2.740  25.360  0.00  0.00    +0.024 A 
ATOM     38  C   UNL     1      -3.659   3.511  25.442  0.00  0.00    +0.099 A 
ATOM     39  N   UNL     1      -3.961   3.911  24.786  0.00  0.00    -0.242 NA
ATOM     40  C   UNL     1      -3.982   3.541  24.050  0.00  0.00    +0.099 A 
ATOM     41  C   UNL     1      -3.700   2.769  23.968  0.00  0.00    +0.024 A 
ENDBRANCH   8  36
BRANCH   6   3
ATOM      3  C   UNL     1      -3.780  -0.449  24.905  0.00  0.00    +0.040 C 
BRANCH   3   2
ATOM      1  C   UNL     1      -3.742  -1.592  25.761  0.00  0.00    +0.000 C 
ATOM      2  C   UNL     1      -3.704  -0.774  25.659  0.00  0.00    +0.006 C 
ENDBRANCH   3   2
BRANCH   3   4
ATOM      4  C   UNL     1      -4.328  -0.761  24.374  0.00  0.00    +0.006 C 
ATOM      5  C   UNL     1      -4.282  -1.554  24.150  0.00  0.00    +0.000 C 
ENDBRANCH   3   4
ENDBRANCH   6   3
ENDBRANCH  12  10
BRANCH  19  20
ATOM     20  C   UNL     1       0.838   0.179  22.956  0.00  0.00    +0.131 C 
BRANCH  20  21
ATOM     21  N   UNL     1       1.636   0.213  23.163  0.00  0.00    -0.200 NA
ATOM     22  C   UNL     1       2.214   0.002  22.614  0.00  0.00    +0.265 C 
ATOM     23  O   UNL     1       1.995  -0.243  21.857  0.00  0.00    -0.268 OA
BRANCH  22  24
ATOM     24  C   UNL     1       3.012   0.037  22.821  0.00  0.00    +0.061 A 
ATOM     25  C   UNL     1       3.440   0.732  22.700  0.00  0.00    +0.045 A 
ATOM     26  C   UNL     1       4.238   0.766  22.908  0.00  0.00    +0.176 A 
ATOM     29  C   UNL     1       4.607   0.105  23.236  0.00  0.00    +0.206 A 
ATOM     32  C   UNL     1       4.179  -0.589  23.357  0.00  0.00    +0.176 A 
ATOM     35  C   UNL     1       3.382  -0.624  23.150  0.00  0.00    +0.045 A 
BRANCH  26  27
ATOM     27  O   UNL     1       4.666   1.460  22.787  0.00  0.00    -0.468 OA
ATOM     28  C   UNL     1       4.318   2.098  22.396  0.00  0.00    +0.253 C 
ENDBRANCH  26  27
BRANCH  29  30
ATOM     30  O   UNL     1       5.405   0.139  23.443  0.00  0.00    -0.465 OA
ATOM     31  C   UNL     1       5.623   0.309  24.221  0.00  0.00    +0.253 C 
ENDBRANCH  29  30
BRANCH  32  33
ATOM     33  O   UNL     1       4.549  -1.250  23.685  0.00  0.00    -0.468 OA
ATOM     34  C   UNL     1       4.103  -1.912  23.892  0.00  0.00    +0.253 C 
ENDBRANCH  32  33
ENDBRANCH  22  24
ENDBRANCH  20  21
ENDBRANCH  19  20
TORSDOF 11
ENDMDL
MODEL 2
REMARK VINA RESULT:      -7.7      1.075      2.669
REMARK  Name = 
REMARK  11 active torsions:
REMARK  status: ('A' for Active; 'I' for Inactive)
REMARK    1  A    between atoms: C_2  and  C_3
REMARK    2  A    between atoms: C_3  and  C_4
REMARK    3  A    between atoms: C_3  and  C_6
REMARK    4  A    between atoms: C_8  and  C_36
REMARK    5  A    between atoms: C_10  and  C_12
REMARK    6  A    between atoms: C_19  and  C_20
REMARK    7  A    between atoms: C_20  and  N_21
REMARK    8  A    between atoms: C_22  and  C_24
REMARK    9  A    between atoms: C_26  and  O_27
REMARK   10  A    between atoms: C_29  and  O_30
REMARK   11  A    between atoms: C_32  and  O_33
REMARK                            x       y       z     vdW  Elec       q    Type
REMARK                         _______ _______ _______ _____ _____    ______ ____
ROOT
ATOM     12  C   UNL     1      -1.159   1.392  24.113  0.00  0.00    +0.056 C 
ATOM     13  C   UNL     1      -0.985   1.511  23.364  0.00  0.00    +0.078 C 
ATOM     14  N   UNL     1      -0.613   0.976  23.871  0.00  0.00    -0.272 NA
ATOM     15  C   UNL     1      -1.081   1.059  24.805  0.00  0.00    +0.072 C 
ATOM     16  C   UNL     1      -1.138   0.878  25.430  0.00  0.00    +0.018 C 
ATOM     17  C   UNL     1      -0.789   0.864  24.604  0.00  0.00    +0.010 C 
ATOM     18  C   UNL     1      -0.130   0.301  24.472  0.00  0.00    +0.018 C 
ATOM     19  C   UNL     1       0.072   0.388  23.741  0.00  0.00    +0.079 C 
ENDROOT
BRANCH  12  10
ATOM      6  C   UNL     1      -2.229   3.035  25.070  0.00  0.00    +0.061 A 
ATOM      7  N   UNL     1      -2.998   2.738  25.078  0.00  0.00    -0.231 NA
ATOM      8  C   UNL     1      -3.155   1.991  24.763  0.00  0.00    +0.162 A 
ATOM      9  N   UNL     1      -2.542   1.542  24.442  0.00  0.00    -0.231 NA
ATOM     10  C   UNL     1      -1.773   1.841  24.435  0.00  0.00    +0.063 A 
ATOM     11  C   UNL     1      -1.616   2.587  24.749  0.00  0.00    +0.030 A 
BRANCH   8  36
ATOM     36  C   UNL     1      -3.924   1.693  24.771  0.00  0.00    +0.039 A 
ATOM     37  C   UNL     1      -4.528   2.100  24.384  0.00  0.00    +0.024 A 
ATOM     38  C   UNL     1      -5.297   1.802  24.391  0.00  0.00    +0.099 A 
ATOM     39  N   UNL     1      -5.462   1.096  24.785  0.00  0.00    -0.242 NA
ATOM     40  C   UNL     1      -4.858   0.688  25.172  0.00  0.00    +0.099 A 
ATOM     41  C   UNL     1      -4.089   0.987  25.165  0.00  0.00    +0.024 A 
ENDBRANCH   8  36
BRANCH   6   3
ATOM      3  C   UNL     1      -2.074   3.782  25.385  0.00  0.00    +0.040 C 
BRANCH   3   2
ATOM      1  C   UNL     1      -2.626   4.459  26.516  0.00  0.00    +0.000 C 
ATOM      2  C   UNL     1      -2.107   3.900  26.201  0.00  0.00    +0.006 C 
ENDBRANCH   3   2
BRANCH   3   4
ATOM      4  C   UNL     1      -1.886   4.410  24.884  0.00  0.00    +0.006 C 
ATOM      5  C   UNL     1      -1.285   4.936  25.090  0.00  0.00    +0.000 C 
ENDBRANCH   3   4
ENDBRANCH   6   3
ENDBRANCH  12  10
BRANCH  19  20
ATOM     20  C   UNL     1       0.599   0.112  23.171  0.00  0.00    +0.131 C 
BRANCH  20  21
ATOM     21  N   UNL     1       1.413   0.165  23.300  0.00  0.00    -0.200 NA
ATOM     22  C   UNL     1       1.939  -0.055  22.705  0.00  0.00    +0.265 C 
ATOM     23  O   UNL     1       1.654  -0.327  21.980  0.00  0.00    -0.268 OA
BRANCH  22  24
ATOM     24  C   UNL     1       2.753  -0.003  22.834  0.00  0.00    +0.061 A 
ATOM     25  C   UNL     1       3.162  -0.645  23.151  0.00  0.00    +0.045 A 
ATOM     26  C   UNL     1       3.976  -0.593  23.280  0.00  0.00    +0.176 A 
ATOM     29  C   UNL     1       4.379   0.102  23.093  0.00  0.00    +0.206 A 
ATOM     32  C   UNL     1       3.969   0.745  22.777  0.00  0.00    +0.176 A 
ATOM     35  C   UNL     1       3.157   0.692  22.647  0.00  0.00    +0.045 A 
BRANCH  26  27
ATOM     27  O   UNL     1       4.386  -1.235  23.596  0.00  0.00    -0.468 OA
ATOM     28  C   UNL     1       3.971  -1.880  23.901  0.00  0.00    +0.253 C 
ENDBRANCH  26  27
BRANCH  29  30
ATOM     30  O   UNL     1       5.192   0.155  23.222  0.00  0.00    -0.465 OA
ATOM     31  C   UNL     1       5.479   0.358  23.968  0.00  0.00    +0.253 C 
ENDBRANCH  29  30
BRANCH  32  33
ATOM     33  O   UNL     1       4.373   1.440  22.590  0.00  0.00    -0.468 OA
ATOM     34  C   UNL     1       3.953   2.109  22.351  0.00  0.00    +0.253 C 
ENDBRANCH  32  33
ENDBRANCH  22  24
ENDBRANCH  20  21
ENDBRANCH  19  20
TORSDOF 11
ENDMDL
MODEL 3
REMARK VINA RESULT:      -7.2      3.209      6.868
REMARK  Name = 
REMARK  11 active torsions:
REMARK  status: ('A' for Active; 'I' for Inactive)
REMARK    1  A    between atoms: C_2  and  C_3
REMARK    2  A    between atoms: C_3  and  C_4
REMARK    3  A    between atoms: C_3  and  C_6
REMARK    4  A    between atoms: C_8  and  C_36
REMARK    5  A    between atoms: C_10  and  C_12
REMARK    6  A    between atoms: C_19  and  C_20
REMARK    7  A    between atoms: C_20  and  N_21
REMARK    8  A    between atoms: C_22  and  C_24
REMARK    9  A    between atoms: C_26  and  O_27
REMARK   10  A    between atoms: C_29  and  O_30
REMARK   11  A    between atoms: C_32  and  O_33
REMARK                            x       y       z     vdW  Elec       q    Type
REMARK                         _______ _______ _______ _____ _____    ______ ____
ROOT
ATOM     12  C   UNL     1      -0.894   1.282  24.144  0.00  0.00    +0.056 C 
ATOM     13  C   UNL     1      -1.582   1.343  23.786  0.00  0.00    +0.078 C 
ATOM     14  N   UNL     1      -1.244   1.902  24.290  0.00  0.00    -0.272 NA
ATOM     15  C   UNL     1      -0.320   1.519  24.602  0.00  0.00    +0.072 C 
ATOM     16  C   UNL     1       0.231   1.576  24.948  0.00  0.00    +0.018 C 
ATOM     17  C   UNL     1      -0.569   1.836  24.637  0.00  0.00    +0.010 C 
ATOM     18  C   UNL     1      -0.854   2.619  24.912  0.00  0.00    +0.018 C 
ATOM     19  C   UNL     1      -1.534   2.718  24.580  0.00  0.00    +0.079 C 
ENDROOT
BRANCH  12  10
ATOM      6  C   UNL     1      -0.243  -0.799  24.237  0.00  0.00    +0.061 A 
ATOM      7  N   UNL     1       0.415  -0.780  23.739  0.00  0.00    -0.231 NA
ATOM      8  C   UNL     1       0.636  -0.073  23.376  0.00  0.00    +0.162 A 
ATOM      9  N   UNL     1       0.200   0.614  23.510  0.00  0.00    -0.231 NA
ATOM     10  C   UNL     1      -0.457   0.594  24.009  0.00  0.00    +0.063 A 
ATOM     11  C   UNL     1      -0.679  -0.112  24.372  0.00  0.00    +0.030 A 
BRANCH   8  36
ATOM     36  C   UNL     1       1.294  -0.053  22.877  0.00  0.00    +0.039 A 
ATOM     37  C   UNL     1       1.218  -0.275  22.087  0.00  0.00    +0.024 A 
ATOM     38  C   UNL     1       1.876  -0.255  21.588  0.00  0.00    +0.099 A 
ATOM     39  N   UNL     1       2.608  -0.012  21.881  0.00  0.00    -0.242 NA
ATOM     40  C   UNL     1       2.683   0.210  22.672  0.00  0.00    +0.099 A 
ATOM     41  C   UNL     1       2.026   0.190  23.170  0.00  0.00    +0.024 A 
ENDBRANCH   8  36
BRANCH   6   3
ATOM      3  C   UNL     1      -0.463  -1.506  24.600  0.00  0.00    +0.040 C 
BRANCH   3   2
ATOM      1  C   UNL     1       0.110  -2.448  25.509  0.00  0.00    +0.000 C 
ATOM      2  C   UNL     1      -0.177  -1.691  25.352  0.00  0.00    +0.006 C 
ENDBRANCH   3   2
BRANCH   3   4
ATOM      4  C   UNL     1      -0.970  -2.029  24.212  0.00  0.00    +0.006 C 
ATOM      5  C   UNL     1      -1.637  -2.321  24.599  0.00  0.00    +0.000 C 
ENDBRANCH   3   4
ENDBRANCH   6   3
ENDBRANCH  12  10
BRANCH  19  20
ATOM     20  C   UNL     1      -2.161   3.249  24.519  0.00  0.00    +0.131 C 
BRANCH  20  21
ATOM     21  N   UNL     1      -2.899   3.055  24.834  0.00  0.00    -0.200 NA
ATOM     22  C   UNL     1      -3.580   3.414  24.538  0.00  0.00    +0.265 C 
ATOM     23  O   UNL     1      -3.525   3.966  23.927  0.00  0.00    -0.268 OA
BRANCH  22  24
ATOM     24  C   UNL     1      -4.318   3.220  24.853  0.00  0.00    +0.061 A 
ATOM     25  C   UNL     1      -4.774   3.800  25.221  0.00  0.00    +0.045 A 
ATOM     26  C   UNL     1      -5.512   3.607  25.536  0.00  0.00    +0.176 A 
ATOM     29  C   UNL     1      -5.793   2.833  25.482  0.00  0.00    +0.206 A 
ATOM     32  C   UNL     1      -5.336   2.253  25.113  0.00  0.00    +0.176 A 
ATOM     35  C   UNL     1      -4.600   2.446  24.799  0.00  0.00    +0.045 A 
BRANCH  26  27
ATOM     27  O   UNL     1      -5.969   4.186  25.905  0.00  0.00    -0.468 OA
ATOM     28  C   UNL     1      -5.960   4.961  25.622  0.00  0.00    +0.253 C 
ENDBRANCH  26  27
BRANCH  29  30
ATOM     30  O   UNL     1      -6.530   2.638  25.797  0.00  0.00    -0.465 OA
ATOM     31  C   UNL     1      -6.580   2.219  26.505  0.00  0.00    +0.253 C 
ENDBRANCH  29  30
BRANCH  32  33
ATOM     33  O   UNL     1      -5.618   1.479  25.059  0.00  0.00    -0.468 OA
ATOM     34  C   UNL     1      -5.136   0.886  24.748  0.00  0.00    +0.253 C 
ENDBRANCH  32  33
ENDBRANCH  22  24
ENDBRANCH  20  21
ENDBRANCH  19  20
TORSDOF 11
ENDMDL
MODEL 4
REMARK VINA RESULT:      -6.2      0.614      2.318
REMARK  Name = 
REMARK  11 active torsions:
REMARK  status: ('A' for Active; 'I' for Inactive)
REMARK    1  A    between atoms: C_2  and  C_3
REMARK    2  A    between atoms: C_3  and  C_4
REMARK    3  A    between atoms: C_3  and  C_6
REMARK    4  A    between atoms: C_8  and  C_36
REMARK    5  A    between atoms: C_10  and  C_12
REMARK    6  A    between atoms: C_19  and  C_20
REMARK    7  A    between atoms: C_20  and  N_21
REMARK    8  A    between atoms: C_22  and  C_24
REMARK    9  A    between atoms: C_26  and  O_27
REMARK   10  A    between atoms: C_29  and  O_30
REMARK   11  A    between atoms: C_32  and  O_33
REMARK                            x       y       z     vdW  Elec       q    Type
REMARK                         _______ _______ _______ _____ _____    ______ ____
ROOT
ATOM     12  C   UNL     1      -1.057   0.697  23.748  0.00  0.00    +0.056 C 
ATOM     13  C   UNL     1      -0.969   0.623  22.979  0.00  0.00    +0.078 C 
ATOM     14  N   UNL     1      -0.364   0.633  23.540  0.00  0.00    -0.272 NA
ATOM     15  C   UNL     1      -0.815   0.746  24.480  0.00  0.00    +0.072 C 
ATOM     16  C   UNL     1      -0.769   0.801  25.129  0.00  0.00    +0.018 C 
ATOM     17  C   UNL     1      -0.458   0.706  24.293  0.00  0.00    +0.010 C 
ATOM     18  C   UNL     1       0.413   0.642  24.210  0.00  0.00    +0.018 C 
ATOM     19  C   UNL     1       0.543   0.567  23.461  0.00  0.00    +0.079 C 
ENDROOT
BRANCH  12  10
ATOM      6  C   UNL     1      -2.931   1.596  24.417  0.00  0.00    +0.061 A 
ATOM      7  N   UNL     1      -3.368   0.923  24.607  0.00  0.00    -0.231 NA
ATOM      8  C   UNL     1      -3.036   0.174  24.511  0.00  0.00    +0.162 A 
ATOM      9  N   UNL     1      -2.266   0.099  24.225  0.00  0.00    -0.231 NA
ATOM     10  C   UNL     1      -1.829   0.772  24.035  0.00  0.00    +0.063 A 
ATOM     11  C   UNL     1      -2.161   1.521  24.131  0.00  0.00    +0.030 A 
BRANCH   8  36
ATOM     36  C   UNL     1      -3.473  -0.500  24.701  0.00  0.00    +0.039 A 
ATOM     37  C   UNL     1      -3.931  -0.870  24.123  0.00  0.00    +0.024 A 
ATOM     38  C   UNL     1      -4.368  -1.544  24.313  0.00  0.00    +0.099 A 
ATOM     39  N   UNL     1      -4.346  -1.847  25.080  0.00  0.00    -0.242 NA
ATOM     40  C   UNL     1      -3.888  -1.476  25.658  0.00  0.00    +0.099 A 
ATOM     41  C   UNL     1      -3.451  -0.803  25.468  0.00  0.00    +0.024 A 
ENDBRANCH   8  36
BRANCH   6   3
ATOM      3  C   UNL     1      -3.264   2.344  24.514  0.00  0.00    +0.040 C 
BRANCH   3   2
ATOM      1  C   UNL     1      -3.183   3.473  25.386  0.00  0.00    +0.000 C 
ATOM      2  C   UNL     1      -3.334   2.670  25.269  0.00  0.00    +0.006 C 
ENDBRANCH   3   2
BRANCH   3   4
ATOM      4  C   UNL     1      -3.528   2.767  23.856  0.00  0.00    +0.006 C 
ATOM      5  C   UNL     1      -4.258   3.150  23.878  0.00  0.00    +0.000 C 
ENDBRANCH   3   4
ENDBRANCH   6   3
ENDBRANCH  12  10
BRANCH  19  20
ATOM     20  C   UNL     1       1.147   0.479  22.907  0.00  0.00    +0.131 C 
BRANCH  20  21
ATOM     21  N   UNL     1       1.931   0.420  23.158  0.00  0.00    -0.200 NA
ATOM     22  C   UNL     1       2.506   0.124  22.645  0.00  0.00    +0.265 C 
ATOM     23  O   UNL     1       2.297  -0.113  21.883  0.00  0.00    -0.268 OA
BRANCH  22  24
ATOM     24  C   UNL     1       3.290   0.065  22.895  0.00  0.00    +0.061 A 
ATOM     25  C   UNL     1       3.795   0.713  22.825  0.00  0.00    +0.045 A 
ATOM     26  C   UNL     1       4.579   0.654  23.075  0.00  0.00    +0.176 A 
ATOM     29  C   UNL     1       4.858  -0.053  23.396  0.00  0.00    +0.206 A 
ATOM     32  C   UNL     1       4.352  -0.701  23.466  0.00  0.00    +0.176 A 
ATOM     35  C   UNL     1       3.569  -0.642  23.216  0.00  0.00    +0.045 A 
BRANCH  26  27
ATOM     27  O   UNL     1       5.085   1.301  23.004  0.00  0.00    -0.468 OA
ATOM     28  C   UNL     1       4.811   2.005  22.672  0.00  0.00    +0.253 C 
ENDBRANCH  26  27
BRANCH  29  30
ATOM     30  O   UNL     1       5.641  -0.113  23.646  0.00  0.00    -0.465 OA
ATOM     31  C   UNL     1       5.836   0.033  24.434  0.00  0.00    +0.253 C 
ENDBRANCH  29  30
BRANCH  32  33
ATOM     33  O   UNL     1       4.631  -1.409  23.787  0.00  0.00    -0.468 OA
ATOM     34  C   UNL     1       4.119  -2.049  23.880  0.00  0.00    +0.253 C 
ENDBRANCH  32  33
ENDBRANCH  22  24
ENDBRANCH  20  21
ENDBRANCH  19  20
TORSDOF 11
ENDMDL
MODEL 5
REMARK VINA RESULT:      -6.0      3.248      7.118
REMARK  Name = 
REMARK  11 active torsions:
REMARK  status: ('A' for Active; 'I' for Inactive)
REMARK    1  A    between atoms: C_2  and  C_3
REMARK    2  A    between atoms: C_3  and  C_4
REMARK    3  A    between atoms: C_3  and  C_6
REMARK    4  A    between atoms: C_8  and  C_36
REMARK    5  A    between atoms: C_10  and  C_12
REMARK    6  A    between atoms: C_19  and  C_20
REMARK    7  A    between atoms: C_20  and  N_21
REMARK    8  A    between atoms: C_22  and  C_24
REMARK    9  A    between atoms: C_26  and  O_27
REMARK   10  A    between atoms: C_29  and  O_30
REMARK   11  A    between atoms: C_32  and  O_33
REMARK                            x       y       z     vdW  Elec       q    Type
REMARK                         _______ _______ _______ _____ _____    ______ ____
ROOT
ATOM     12  C   UNL     1      -0.857   1.369  24.111  0.00  0.00    +0.056 C 
ATOM     13  C   UNL     1      -1.547   1.438  23.758  0.00  0.00    +0.078 C 
ATOM     14  N   UNL     1      -1.204   1.988  24.270  0.00  0.00    -0.272 NA
ATOM     15  C   UNL     1      -0.279   1.595  24.570  0.00  0.00    +0.072 C 
ATOM     16  C   UNL     1       0.274   1.644  24.914  0.00  0.00    +0.018 C 
ATOM     17  C   UNL     1      -0.527   1.912  24.612  0.00  0.00    +0.010 C 
ATOM     18  C   UNL     1      -0.806   2.692  24.901  0.00  0.00    +0.018 C 
ATOM     19  C   UNL     1      -1.488   2.799  24.575  0.00  0.00    +0.079 C 
ENDROOT
BRANCH  12  10
ATOM      6  C   UNL     1       0.656   0.018  23.305  0.00  0.00    +0.061 A 
ATOM      7  N   UNL     1       0.440  -0.692  23.664  0.00  0.00    -0.231 NA
ATOM      8  C   UNL     1      -0.210  -0.716  24.173  0.00  0.00    +0.162 A 
ATOM      9  N   UNL     1      -0.642  -0.029  24.322  0.00  0.00    -0.231 NA
ATOM     10  C   UNL     1      -0.424   0.681  23.962  0.00  0.00    +0.063 A 
ATOM     11  C   UNL     1       0.224   0.705  23.454  0.00  0.00    +0.030 A 
BRANCH   8  36
ATOM     36  C   UNL     1      -0.427  -1.426  24.533  0.00  0.00    +0.039 A 
ATOM     37  C   UNL     1      -1.087  -1.840  24.262  0.00  0.00    +0.024 A 
ATOM     38  C   UNL     1      -1.305  -2.550  24.622  0.00  0.00    +0.099 A 
ATOM     39  N   UNL     1      -0.861  -2.845  25.252  0.00  0.00    -0.242 NA
ATOM     40  C   UNL     1      -0.201  -2.432  25.522  0.00  0.00    +0.099 A 
ATOM     41  C   UNL     1       0.016  -1.721  25.163  0.00  0.00    +0.024 A 
ENDBRANCH   8  36
BRANCH   6   3
ATOM      3  C   UNL     1       1.306   0.041  22.797  0.00  0.00    +0.040 C 
BRANCH   3   2
ATOM      1  C   UNL     1       1.631  -0.517  21.522  0.00  0.00    +0.000 C 
ATOM      2  C   UNL     1       1.192   0.010  21.980  0.00  0.00    +0.006 C 
ENDBRANCH   3   2
BRANCH   3   4
ATOM      4  C   UNL     1       2.069   0.094  23.104  0.00  0.00    +0.006 C 
ATOM      5  C   UNL     1       2.677   0.416  22.648  0.00  0.00    +0.000 C 
ENDBRANCH   3   4
ENDBRANCH   6   3
ENDBRANCH  12  10
BRANCH  19  20
ATOM     20  C   UNL     1      -2.114   3.334  24.527  0.00  0.00    +0.131 C 
BRANCH  20  21
ATOM     21  N   UNL     1      -2.852   3.136  24.837  0.00  0.00    -0.200 NA
ATOM     22  C   UNL     1      -3.534   3.488  24.534  0.00  0.00    +0.265 C 
ATOM     23  O   UNL     1      -3.478   4.038  23.922  0.00  0.00    -0.268 OA
BRANCH  22  24
ATOM     24  C   UNL     1      -4.272   3.289  24.844  0.00  0.00    +0.061 A 
ATOM     25  C   UNL     1      -4.550   2.514  24.785  0.00  0.00    +0.045 A 
ATOM     26  C   UNL     1      -5.288   2.316  25.095  0.00  0.00    +0.176 A 
ATOM     29  C   UNL     1      -5.749   2.892  25.464  0.00  0.00    +0.206 A 
ATOM     32  C   UNL     1      -5.472   3.667  25.522  0.00  0.00    +0.176 A 
ATOM     35  C   UNL     1      -4.734   3.865  25.213  0.00  0.00    +0.045 A 
BRANCH  26  27
ATOM     27  O   UNL     1      -5.566   1.542  25.037  0.00  0.00    -0.468 OA
ATOM     28  C   UNL     1      -5.093   0.958  24.696  0.00  0.00    +0.253 C 
ENDBRANCH  26  27
BRANCH  29  30
ATOM     30  O   UNL     1      -6.488   2.694  25.774  0.00  0.00    -0.465 OA
ATOM     31  C   UNL     1      -6.539   2.261  26.474  0.00  0.00    +0.253 C 
ENDBRANCH  29  30
BRANCH  32  33
ATOM     33  O   UNL     1      -5.933   4.243  25.891  0.00  0.00    -0.468 OA
ATOM     34  C   UNL     1      -5.943   5.014  25.597  0.00  0.00    +0.253 C 
ENDBRANCH  32  33
ENDBRANCH  22  24
ENDBRANCH  20  21
ENDBRANCH  19  20
TORSDOF 11
ENDMDL
MODEL 6
REMARK VINA RESULT:      -5.9      1.370      2.025
REMARK  Name = 
REMARK  11 active torsions:
REMARK  status: ('A' for Active; 'I' for Inactive)
REMARK    1  A    between atoms: C_2  and  C_3
REMARK    2  A    between atoms: C_3  and  C_4
REMARK    3  A    between atoms: C_3  and  C_6
REMARK    4  A    between atoms: C_8  and  C_36
REMARK    5  A    between atoms: C_10  and  C_12
REMARK    6  A    between atoms: C_19  and  C_20
REMARK    7  A    between atoms: C_20  and  N_21
REMARK    8  A    between atoms: C_22  and  C_24
REMARK    9  A    between atoms: C_26  and  O_27
REMARK   10  A    between atoms: C_29  and  O_30
REMARK   11  A    between atoms: C_32  and  O_33
REMARK                            x       y       z     vdW  Elec       q    Type
REMARK                         _______ _______ _______ _____ _____    ______ ____
ROOT
ATOM     12  C   UNL     1      -2.022   0.693  24.650  0.00  0.00    +0.056 C 
ATOM     13  C   UNL     1      -1.799   1.039  23.989  0.00  0.00    +0.078 C 
ATOM     14  N   UNL     1      -1.340   0.944  24.669  0.00  0.00    -0.272 NA
ATOM     15  C   UNL     1      -1.931   0.441  25.374  0.00  0.00    +0.072 C 
ATOM     16  C   UNL     1      -2.007   0.177  25.967  0.00  0.00    +0.018 C 
ATOM     17  C   UNL     1      -1.566   0.604  25.312  0.00  0.00    +0.010 C 
ATOM     18  C   UNL     1      -0.742   0.843  25.496  0.00  0.00    +0.018 C 
ATOM     19  C   UNL     1      -0.484   1.190  24.866  0.00  0.00    +0.079 C 
ENDROOT
BRANCH  12  10
ATOM      6  C   UNL     1      -3.692  -0.710  24.561  0.00  0.00    +0.061 A 
ATOM      7  N   UNL     1      -4.326  -0.210  24.733  0.00  0.00    -0.231 NA
ATOM      8  C   UNL     1      -4.192   0.591  24.877  0.00  0.00    +0.162 A 
ATOM      9  N   UNL     1      -3.424   0.892  24.850  0.00  0.00    -0.231 NA
ATOM     10  C   UNL     1      -2.791   0.392  24.678  0.00  0.00    +0.063 A 
ATOM     11  C   UNL     1      -2.925  -0.409  24.533  0.00  0.00    +0.030 A 
BRANCH   8  36
ATOM     36  C   UNL     1      -4.825   1.091  25.049  0.00  0.00    +0.039 A 
ATOM     37  C   UNL     1      -5.297   0.947  25.710  0.00  0.00    +0.024 A 
ATOM     38  C   UNL     1      -5.930   1.447  25.883  0.00  0.00    +0.099 A 
ATOM     39  N   UNL     1      -6.091   2.092  25.393  0.00  0.00    -0.242 NA
ATOM     40  C   UNL     1      -5.619   2.236  24.732  0.00  0.00    +0.099 A 
ATOM     41  C   UNL     1      -4.986   1.736  24.560  0.00  0.00    +0.024 A 
ENDBRANCH   8  36
BRANCH   6   3
ATOM      3  C   UNL     1      -3.827  -1.511  24.417  0.00  0.00    +0.040 C 
BRANCH   3   2
ATOM      1  C   UNL     1      -4.568  -2.396  23.576  0.00  0.00    +0.000 C 
ATOM      2  C   UNL     1      -4.048  -1.763  23.663  0.00  0.00    +0.006 C 
ENDBRANCH   3   2
BRANCH   3   4
ATOM      4  C   UNL     1      -3.742  -2.060  25.026  0.00  0.00    +0.006 C 
ATOM      5  C   UNL     1      -3.466  -2.820  24.862  0.00  0.00    +0.000 C 
ENDBRANCH   3   4
ENDBRANCH   6   3
ENDBRANCH  12  10
BRANCH  19  20
ATOM     20  C   UNL     1       0.179   1.565  24.551  0.00  0.00    +0.131 C 
BRANCH  20  21
ATOM     21  N   UNL     1       0.718   1.138  24.095  0.00  0.00    -0.200 NA
ATOM     22  C   UNL     1       1.369   1.519  23.762  0.00  0.00    +0.265 C 
ATOM     23  O   UNL     1       1.482   2.327  23.886  0.00  0.00    -0.268 OA
BRANCH  22  24
ATOM     24  C   UNL     1       1.908   1.093  23.306  0.00  0.00    +0.061 A 
ATOM     25  C   UNL     1       2.718   1.202  23.415  0.00  0.00    +0.045 A 
ATOM     26  C   UNL     1       3.257   0.775  22.959  0.00  0.00    +0.176 A 
ATOM     29  C   UNL     1       2.986   0.239  22.394  0.00  0.00    +0.206 A 
ATOM     32  C   UNL     1       2.175   0.129  22.286  0.00  0.00    +0.176 A 
ATOM     35  C   UNL     1       1.637   0.555  22.741  0.00  0.00    +0.045 A 
BRANCH  26  27
ATOM     27  O   UNL     1       4.067   0.884  23.067  0.00  0.00    -0.468 OA
ATOM     28  C   UNL     1       4.424   0.658  23.776  0.00  0.00    +0.253 C 
ENDBRANCH  26  27
BRANCH  29  30
ATOM     30  O   UNL     1       3.524  -0.189  21.938  0.00  0.00    -0.465 OA
ATOM     31  C   UNL     1       3.899   0.171  21.297  0.00  0.00    +0.253 C 
ENDBRANCH  29  30
BRANCH  32  33
ATOM     33  O   UNL     1       1.904  -0.408  21.720  0.00  0.00    -0.468 OA
ATOM     34  C   UNL     1       1.105  -0.615  21.699  0.00  0.00    +0.253 C 
ENDBRANCH  32  33
ENDBRANCH  22  24
ENDBRANCH  20  21
ENDBRANCH  19  20
TORSDOF 11
ENDMDL
MODEL 7
REMARK VINA RESULT:      -5.5      1.446      2.971
REMARK  Name = 
REMARK  11 active torsions:
REMARK  status: ('A' for Active; 'I' for Inactive)
REMARK    1  A    between atoms: C_2  and  C_3
REMARK    2  A    between atoms: C_3  and  C_4
REMARK    3  A    between atoms: C_3  and  C_6
REMARK    4  A    between atoms: C_8  and  C_36
REMARK    5  A    between atoms: C_10  and  C_12
REMARK    6  A    between atoms: C_19  and  C_20
REMARK    7  A    between atoms: C_20  and  N_21
REMARK    8  A    between atoms: C_22  and  C_24
REMARK    9  A    between atoms: C_26  and  O_27
REMARK   10  A    between atoms: C_29  and  O_30
REMARK   11  A    between atoms: C_32  and  O_33
REMARK                            x       y       z     vdW  Elec       q    Type
REMARK                         _______ _______ _______ _____ _____    ______ ____
ROOT
ATOM     12  C   UNL     1      -1.994   0.790  24.619  0.00  0.00    +0.056 C 
ATOM     13  C   UNL     1      -1.754   1.124  23.958  0.00  0.00    +0.078 C 
ATOM     14  N   UNL     1      -1.309   1.032  24.647  0.00  0.00    -0.272 NA
ATOM     15  C   UNL     1      -1.919   0.547  25.348  0.00  0.00    +0.072 C 
ATOM     16  C   UNL     1      -2.010   0.293  25.942  0.00  0.00    +0.018 C 
ATOM     17  C   UNL     1      -1.551   0.704  25.291  0.00  0.00    +0.010 C 
ATOM     18  C   UNL     1      -0.727   0.934  25.486  0.00  0.00    +0.018 C 
ATOM     19  C   UNL     1      -0.453   1.269  24.857  0.00  0.00    +0.079 C 
ENDROOT
BRANCH  12  10
ATOM      6  C   UNL     1      -4.168   0.720  24.802  0.00  0.00    +0.061 A 
ATOM      7  N   UNL     1      -4.310  -0.082  24.672  0.00  0.00    -0.231 NA
ATOM      8  C   UNL     1      -3.680  -0.594  24.523  0.00  0.00    +0.162 A 
ATOM      9  N   UNL     1      -2.908  -0.303  24.506  0.00  0.00    -0.231 NA
ATOM     10  C   UNL     1      -2.767   0.499  24.636  0.00  0.00    +0.063 A 
ATOM     11  C   UNL     1      -3.396   1.011  24.785  0.00  0.00    +0.030 A 
BRANCH   8  36
ATOM     36  C   UNL     1      -3.821  -1.396  24.392  0.00  0.00    +0.039 A 
ATOM     37  C   UNL     1      -4.222  -1.639  23.714  0.00  0.00    +0.024 A 
ATOM     38  C   UNL     1      -4.364  -2.441  23.583  0.00  0.00    +0.099 A 
ATOM     39  N   UNL     1      -4.104  -3.000  24.131  0.00  0.00    -0.242 NA
ATOM     40  C   UNL     1      -3.703  -2.758  24.810  0.00  0.00    +0.099 A 
ATOM     41  C   UNL     1      -3.562  -1.955  24.941  0.00  0.00    +0.024 A 
ENDBRANCH   8  36
BRANCH   6   3
ATOM      3  C   UNL     1      -4.798   1.231  24.951  0.00  0.00    +0.040 C 
BRANCH   3   2
ATOM      1  C   UNL     1      -5.187   2.573  24.652  0.00  0.00    +0.000 C 
ATOM      2  C   UNL     1      -4.998   1.811  24.399  0.00  0.00    +0.006 C 
ENDBRANCH   3   2
BRANCH   3   4
ATOM      4  C   UNL     1      -5.230   1.162  25.650  0.00  0.00    +0.006 C 
ATOM      5  C   UNL     1      -5.987   1.485  25.702  0.00  0.00    +0.000 C 
ENDBRANCH   3   4
ENDBRANCH   6   3
ENDBRANCH  12  10
BRANCH  19  20
ATOM     20  C   UNL     1       0.220   1.631  24.549  0.00  0.00    +0.131 C 
BRANCH  20  21
ATOM     21  N   UNL     1       0.756   1.193  24.100  0.00  0.00    -0.200 NA
ATOM     22  C   UNL     1       1.404   1.567  23.751  0.00  0.00    +0.265 C 
ATOM     23  O   UNL     1       1.515   2.378  23.851  0.00  0.00    -0.268 OA
BRANCH  22  24
ATOM     24  C   UNL     1       1.940   1.129  23.302  0.00  0.00    +0.061 A 
ATOM     25  C   UNL     1       2.751   1.235  23.409  0.00  0.00    +0.045 A 
ATOM     26  C   UNL     1       3.287   0.797  22.960  0.00  0.00    +0.176 A 
ATOM     29  C   UNL     1       3.012   0.254  22.404  0.00  0.00    +0.206 A 
ATOM     32  C   UNL     1       2.200   0.148  22.297  0.00  0.00    +0.176 A 
ATOM     35  C   UNL     1       1.665   0.585  22.745  0.00  0.00    +0.045 A 
BRANCH  26  27
ATOM     27  O   UNL     1       4.098   0.902  23.067  0.00  0.00    -0.468 OA
ATOM     28  C   UNL     1       4.461   0.637  23.758  0.00  0.00    +0.253 C 
ENDBRANCH  26  27
BRANCH  29  30
ATOM     30  O   UNL     1       3.547  -0.185  21.954  0.00  0.00    -0.465 OA
ATOM     31  C   UNL     1       3.920   0.160  21.304  0.00  0.00    +0.253 C 
ENDBRANCH  29  30
BRANCH  32  33
ATOM     33  O   UNL     1       1.925  -0.396  21.740  0.00  0.00    -0.468 OA
ATOM     34  C   UNL     1       1.125  -0.596  21.720  0.00  0.00    +0.253 C 
ENDBRANCH  32  33
ENDBRANCH  22  24
ENDBRANCH  20  21
ENDBRANCH  19  20
TORSDOF 11
ENDMDL
