MODEL 1
REMARK VINA RESULT:     -16.3      0.000      0.000
REMARK  Name = 
REMARK  3 active torsions:
REMARK  status: ('A' for Active; 'I' for Inactive)
REMARK    1  A    between atoms: N_9  and  C_10
REMARK    2  A    between atoms: C_10  and  C_11
REMARK    3  A    between atoms: C_24  and  C_25
REMARK                            x       y       z     vdW  Elec       q    Type
REMARK                         _______ _______ _______ _____ _____    ______ ____
ROOT
ATOM      1  O   UNL     1      -2.520   1.770  24.878  0.00  0.00    -0.267 OA
ATOM      2  C   UNL     1      -3.206   2.214  24.995  0.00  0.00    +0.261 A 
ATOM      3  N   UNL     1      -3.940   1.838  25.021  0.00  0.00    -0.299 N 
ATOM      4  C   UNL     1      -4.147   2.639  25.134  0.00  0.00    +0.110 C 
ATOM      5  C   UNL     1      -5.127   2.547  25.217  0.00  0.00    +0.039 C 
ATOM      6  C   UNL     1      -5.932   2.640  25.304  0.00  0.00    +0.011 C 
ATOM      7  C   UNL     1      -5.479   2.115  25.200  0.00  0.00    +0.054 C 
ATOM      8  C   UNL     1      -5.445   1.203  25.092  0.00  0.00    +0.078 C 
ATOM      9  N   UNL     1      -4.643   1.113  25.005  0.00  0.00    -0.266 NA
ATOM     20  C   UNL     1      -5.083   1.595  25.102  0.00  0.00    +0.074 C 
ATOM     21  C   UNL     1      -4.626   2.280  25.138  0.00  0.00    +0.041 A 
ATOM     22  C   UNL     1      -4.578   3.099  25.228  0.00  0.00    +0.013 A 
ATOM     23  C   UNL     1      -3.845   3.474  25.202  0.00  0.00    +0.006 A 
ATOM     24  C   UNL     1      -3.158   3.032  25.085  0.00  0.00    +0.058 A 
ENDROOT
BRANCH  24  25
ATOM     25  C   UNL     1      -2.424   3.408  25.058  0.00  0.00    +0.024 A 
ATOM     26  C   UNL     1      -2.073   3.676  25.755  0.00  0.00    +0.003 A 
ATOM     27  C   UNL     1      -1.339   4.052  25.729  0.00  0.00    +0.021 A 
ATOM     28  C   UNL     1      -0.956   4.159  25.005  0.00  0.00    +0.099 A 
ATOM     29  N   UNL     1      -1.307   3.891  24.309  0.00  0.00    -0.242 NA
ATOM     30  C   UNL     1      -2.041   3.515  24.335  0.00  0.00    +0.099 A 
ENDBRANCH  24  25
BRANCH   9  10
ATOM     10  C   UNL     1      -3.914   0.745  24.893  0.00  0.00    +0.138 C 
BRANCH  10  11
ATOM     11  C   UNL     1      -3.879  -0.072  24.780  0.00  0.00    +0.139 A 
ATOM     12  C   UNL     1      -3.571  -0.621  25.314  0.00  0.00    +0.037 A 
ATOM     13  C   UNL     1      -3.647  -1.372  24.978  0.00  0.00    +0.037 A 
ATOM     14  C   UNL     1      -4.000  -1.286  24.238  0.00  0.00    +0.145 A 
ATOM     15  O   UNL     1      -4.144  -0.483  24.115  0.00  0.00    -0.456 OA
ATOM     16  C   UNL     1      -4.146  -1.950  23.770  0.00  0.00    +0.037 A 
ATOM     17  C   UNL     1      -3.939  -2.700  24.044  0.00  0.00    +0.003 A 
ATOM     18  C   UNL     1      -3.585  -2.787  24.784  0.00  0.00    +0.000 A 
ATOM     19  C   UNL     1      -3.439  -2.122  25.251  0.00  0.00    +0.003 A 
ENDBRANCH  10  11
ENDBRANCH   9  10
TORSDOF 3
ENDMDL
MODEL 2
REMARK VINA RESULT:     -15.3      0.912      4.405
REMARK  Name = 
REMARK  3 active torsions:
REMARK  status: ('A' for Active; 'I' for Inactive)
REMARK    1  A    between atoms: N_9  and  C_10
REMARK    2  A    between atoms: C_10  and  C_11
REMARK    3  A    between atoms: C_24  and  C_25
REMARK                            x       y       z     vdW  Elec       q    Type
REMARK                         _______ _______ _______ _____ _____    ______ ____
ROOT
ATOM      1  O   UNL     1      -2.863   0.559  24.903  0.00  0.00    -0.267 OA
ATOM      2  C   UNL     1      -3.680   0.681  24.916  0.00  0.00    +0.261 A 
ATOM      3  N   UNL     1      -3.982   1.449  24.922  0.00  0.00    -0.299 N 
ATOM      4  C   UNL     1      -4.676   0.985  24.932  0.00  0.00    +0.110 C 
ATOM      5  C   UNL     1      -5.355   1.703  24.943  0.00  0.00    +0.039 C 
ATOM      6  C   UNL     1      -6.025   2.166  24.954  0.00  0.00    +0.011 C 
ATOM      7  C   UNL     1      -5.330   2.261  24.943  0.00  0.00    +0.054 C 
ATOM      8  C   UNL     1      -4.692   2.922  24.934  0.00  0.00    +0.078 C 
ATOM      9  N   UNL     1      -4.026   2.458  24.923  0.00  0.00    -0.266 NA
ATOM     20  C   UNL     1      -4.681   2.388  24.933  0.00  0.00    +0.074 C 
ATOM     21  C   UNL     1      -4.796   1.571  24.934  0.00  0.00    +0.041 A 
ATOM     22  C   UNL     1      -5.310   0.926  24.942  0.00  0.00    +0.013 A 
ATOM     23  C   UNL     1      -5.009   0.159  24.937  0.00  0.00    +0.006 A 
ATOM     24  C   UNL     1      -4.193   0.036  24.924  0.00  0.00    +0.058 A 
ENDROOT
BRANCH  24  25
ATOM     25  C   UNL     1      -3.891  -0.732  24.919  0.00  0.00    +0.024 A 
ATOM     26  C   UNL     1      -3.872  -1.163  24.215  0.00  0.00    +0.003 A 
ATOM     27  C   UNL     1      -3.571  -1.931  24.209  0.00  0.00    +0.021 A 
ATOM     28  C   UNL     1      -3.288  -2.267  24.908  0.00  0.00    +0.099 A 
ATOM     29  N   UNL     1      -3.306  -1.837  25.611  0.00  0.00    -0.242 NA
ATOM     30  C   UNL     1      -3.608  -1.069  25.616  0.00  0.00    +0.099 A 
ENDBRANCH  24  25
BRANCH   9  10
ATOM     10  C   UNL     1      -3.228   2.252  24.910  0.00  0.00    +0.138 C 
BRANCH  10  11
ATOM     11  C   UNL     1      -2.650   2.841  24.904  0.00  0.00    +0.139 A 
ATOM     12  C   UNL     1      -1.930   2.808  24.503  0.00  0.00    +0.037 A 
ATOM     13  C   UNL     1      -1.525   3.513  24.648  0.00  0.00    +0.037 A 
ATOM     14  C   UNL     1      -1.996   3.980  25.139  0.00  0.00    +0.145 A 
ATOM     15  O   UNL     1      -2.691   3.565  25.297  0.00  0.00    -0.456 OA
ATOM     16  C   UNL     1      -1.731   4.725  25.379  0.00  0.00    +0.037 A 
ATOM     17  C   UNL     1      -0.995   5.001  25.128  0.00  0.00    +0.003 A 
ATOM     18  C   UNL     1      -0.524   4.533  24.637  0.00  0.00    +0.000 A 
ATOM     19  C   UNL     1      -0.790   3.790  24.398  0.00  0.00    +0.003 A 
ENDBRANCH  10  11
ENDBRANCH   9  10
TORSDOF 3
ENDMDL
MODEL 3
REMARK VINA RESULT:     -13.7      1.466      2.521
REMARK  Name = 
REMARK  3 active torsions:
REMARK  status: ('A' for Active; 'I' for Inactive)
REMARK    1  A    between atoms: N_9  and  C_10
REMARK    2  A    between atoms: C_10  and  C_11
REMARK    3  A    between atoms: C_24  and  C_25
REMARK                            x       y       z     vdW  Elec       q    Type
REMARK                         _______ _______ _______ _____ _____    ______ ____
ROOT
ATOM      1  O   UNL     1      -4.430   1.487  25.150  0.00  0.00    -0.267 OA
ATOM      2  C   UNL     1      -4.049   1.918  24.558  0.00  0.00    +0.261 A 
ATOM      3  N   UNL     1      -3.581   1.528  24.000  0.00  0.00    -0.299 N 
ATOM      4  C   UNL     1      -3.514   2.326  23.762  0.00  0.00    +0.110 C 
ATOM      5  C   UNL     1      -2.919   2.216  22.981  0.00  0.00    +0.039 C 
ATOM      6  C   UNL     1      -2.442   2.294  22.325  0.00  0.00    +0.011 C 
ATOM      7  C   UNL     1      -2.677   1.776  22.737  0.00  0.00    +0.054 C 
ATOM      8  C   UNL     1      -2.633   0.865  22.845  0.00  0.00    +0.078 C 
ATOM      9  N   UNL     1      -3.108   0.790  23.499  0.00  0.00    -0.266 NA
ATOM     20  C   UNL     1      -2.878   1.264  23.102  0.00  0.00    +0.074 C 
ATOM     21  C   UNL     1      -3.201   1.958  23.409  0.00  0.00    +0.041 A 
ATOM     22  C   UNL     1      -3.287   2.777  23.374  0.00  0.00    +0.013 A 
ATOM     23  C   UNL     1      -3.754   3.167  23.931  0.00  0.00    +0.006 A 
ATOM     24  C   UNL     1      -4.135   2.737  24.523  0.00  0.00    +0.058 A 
ENDROOT
BRANCH  24  25
ATOM     25  C   UNL     1      -4.602   3.127  25.080  0.00  0.00    +0.024 A 
ATOM     26  C   UNL     1      -5.425   3.077  25.037  0.00  0.00    +0.003 A 
ATOM     27  C   UNL     1      -5.892   3.466  25.594  0.00  0.00    +0.021 A 
ATOM     28  C   UNL     1      -5.537   3.906  26.195  0.00  0.00    +0.099 A 
ATOM     29  N   UNL     1      -4.715   3.956  26.239  0.00  0.00    -0.242 NA
ATOM     30  C   UNL     1      -4.247   3.566  25.682  0.00  0.00    +0.099 A 
ENDBRANCH  24  25
BRANCH   9  10
ATOM     10  C   UNL     1      -3.520   0.435  24.119  0.00  0.00    +0.138 C 
BRANCH  10  11
ATOM     11  C   UNL     1      -3.493  -0.384  24.216  0.00  0.00    +0.139 A 
ATOM     12  C   UNL     1      -4.057  -0.922  23.945  0.00  0.00    +0.037 A 
ATOM     13  C   UNL     1      -3.811  -1.680  24.162  0.00  0.00    +0.037 A 
ATOM     14  C   UNL     1      -3.095  -1.609  24.566  0.00  0.00    +0.145 A 
ATOM     15  O   UNL     1      -2.899  -0.808  24.599  0.00  0.00    -0.456 OA
ATOM     16  C   UNL     1      -2.713  -2.283  24.851  0.00  0.00    +0.037 A 
ATOM     17  C   UNL     1      -3.049  -3.028  24.733  0.00  0.00    +0.003 A 
ATOM     18  C   UNL     1      -3.765  -3.099  24.329  0.00  0.00    +0.000 A 
ATOM     19  C   UNL     1      -4.145  -2.424  24.044  0.00  0.00    +0.003 A 
ENDBRANCH  10  11
ENDBRANCH   9  10
TORSDOF 3
ENDMDL
MODEL 4
REMARK VINA RESULT:     -13.4      1.803      2.861
REMARK  Name = 
REMARK  3 active torsions:
REMARK  status: ('A' for Active; 'I' for Inactive)
REMARK    1  A    between atoms: N_9  and  C_10
REMARK    2  A    between atoms: C_10  and  C_11
REMARK    3  A    between atoms: C_24  and  C_25
REMARK                            x       y       z     vdW  Elec       q    Type
REMARK                         _______ _______ _______ _____ _____    ______ ____
ROOT
ATOM      1  O   UNL     1      -2.961   1.794  25.108  0.00  0.00    -0.267 OA
ATOM      2  C   UNL     1      -2.168   1.915  24.913  0.00  0.00    +0.261 A 
ATOM      3  N   UNL     1      -1.706   1.284  24.653  0.00  0.00    -0.299 N 
ATOM      4  C   UNL     1      -1.164   1.919  24.636  0.00  0.00    +0.110 C 
ATOM      5  C   UNL     1      -0.361   1.443  24.313  0.00  0.00    +0.039 C 
ATOM      6  C   UNL     1       0.375   1.203  24.059  0.00  0.00    +0.011 C 
ATOM      7  C   UNL     1      -0.254   0.914  24.172  0.00  0.00    +0.054 C 
ATOM      8  C   UNL     1      -0.697   0.110  24.126  0.00  0.00    +0.078 C 
ATOM      9  N   UNL     1      -1.429   0.352  24.380  0.00  0.00    -0.266 NA
ATOM     20  C   UNL     1      -0.831   0.607  24.268  0.00  0.00    +0.074 C 
ATOM     21  C   UNL     1      -0.914   1.405  24.459  0.00  0.00    +0.041 A 
ATOM     22  C   UNL     1      -0.584   2.157  24.525  0.00  0.00    +0.013 A 
ATOM     23  C   UNL     1      -1.045   2.789  24.786  0.00  0.00    +0.006 A 
ATOM     24  C   UNL     1      -1.838   2.668  24.980  0.00  0.00    +0.058 A 
ENDROOT
BRANCH  24  25
ATOM     25  C   UNL     1      -2.300   3.300  25.241  0.00  0.00    +0.024 A 
ATOM     26  C   UNL     1      -2.258   3.544  26.029  0.00  0.00    +0.003 A 
ATOM     27  C   UNL     1      -2.720   4.176  26.290  0.00  0.00    +0.021 A 
ATOM     28  C   UNL     1      -3.225   4.563  25.763  0.00  0.00    +0.099 A 
ATOM     29  N   UNL     1      -3.267   4.319  24.977  0.00  0.00    -0.242 NA
ATOM     30  C   UNL     1      -2.805   3.687  24.716  0.00  0.00    +0.099 A 
ENDBRANCH  24  25
BRANCH   9  10
ATOM     10  C   UNL     1      -2.225   0.314  24.592  0.00  0.00    +0.138 C 
BRANCH  10  11
ATOM     11  C   UNL     1      -2.636  -0.398  24.526  0.00  0.00    +0.139 A 
ATOM     12  C   UNL     1      -3.286  -0.539  24.038  0.00  0.00    +0.037 A 
ATOM     13  C   UNL     1      -3.521  -1.323  24.145  0.00  0.00    +0.037 A 
ATOM     14  C   UNL     1      -3.016  -1.666  24.700  0.00  0.00    +0.145 A 
ATOM     15  O   UNL     1      -2.469  -1.095  24.935  0.00  0.00    -0.456 OA
ATOM     16  C   UNL     1      -3.119  -2.455  24.920  0.00  0.00    +0.037 A 
ATOM     17  C   UNL     1      -3.728  -2.900  24.585  0.00  0.00    +0.003 A 
ATOM     18  C   UNL     1      -4.233  -2.557  24.030  0.00  0.00    +0.000 A 
ATOM     19  C   UNL     1      -4.129  -1.768  23.811  0.00  0.00    +0.003 A 
ENDBRANCH  10  11
ENDBRANCH   9  10
TORSDOF 3
ENDMDL
MODEL 5
REMARK VINA RESULT:     -12.9      2.092      3.588
REMARK  Name = 
REMARK  3 active torsions:
REMARK  status: ('A' for Active; 'I' for Inactive)
REMARK    1  A    between atoms: N_9  and  C_10
REMARK    2  A    between atoms: C_10  and  C_11
REMARK    3  A    between atoms: C_24  and  C_25
REMARK                            x       y       z     vdW  Elec       q    Type
REMARK                         _______ _______ _______ _____ _____    ______ ____
ROOT
ATOM      1  O   UNL     1      -3.460   1.768  24.994  0.00  0.00    -0.267 OA
ATOM      2  C   UNL     1      -3.249   2.556  25.120  0.00  0.00    +0.261 A 
ATOM      3  N   UNL     1      -2.460   2.788  25.054  0.00  0.00    -0.299 N 
ATOM      4  C   UNL     1      -2.840   3.506  25.250  0.00  0.00    +0.110 C 
ATOM      5  C   UNL     1      -2.058   4.110  25.259  0.00  0.00    +0.039 C 
ATOM      6  C   UNL     1      -1.529   4.727  25.306  0.00  0.00    +0.011 C 
ATOM      7  C   UNL     1      -1.513   4.039  25.167  0.00  0.00    +0.054 C 
ATOM      8  C   UNL     1      -0.932   3.361  24.949  0.00  0.00    +0.078 C 
ATOM      9  N   UNL     1      -1.463   2.748  24.903  0.00  0.00    -0.266 NA
ATOM     20  C   UNL     1      -1.460   3.395  25.031  0.00  0.00    +0.074 C 
ATOM     21  C   UNL     1      -2.250   3.575  25.180  0.00  0.00    +0.041 A 
ATOM     22  C   UNL     1      -2.828   4.130  25.373  0.00  0.00    +0.013 A 
ATOM     23  C   UNL     1      -3.616   3.899  25.439  0.00  0.00    +0.006 A 
ATOM     24  C   UNL     1      -3.827   3.112  25.313  0.00  0.00    +0.058 A 
ENDROOT
BRANCH  24  25
ATOM     25  C   UNL     1      -4.617   2.880  25.380  0.00  0.00    +0.024 A 
ATOM     26  C   UNL     1      -5.012   2.570  24.725  0.00  0.00    +0.003 A 
ATOM     27  C   UNL     1      -5.801   2.338  24.792  0.00  0.00    +0.021 A 
ATOM     28  C   UNL     1      -6.195   2.416  25.513  0.00  0.00    +0.099 A 
ATOM     29  N   UNL     1      -5.799   2.726  26.167  0.00  0.00    -0.242 NA
ATOM     30  C   UNL     1      -5.010   2.958  26.101  0.00  0.00    +0.099 A 
ENDBRANCH  24  25
BRANCH   9  10
ATOM     10  C   UNL     1      -1.754   1.985  24.793  0.00  0.00    +0.138 C 
BRANCH  10  11
ATOM     11  C   UNL     1      -1.247   1.382  24.548  0.00  0.00    +0.139 A 
ATOM     12  C   UNL     1      -1.127   0.663  24.935  0.00  0.00    +0.037 A 
ATOM     13  C   UNL     1      -0.576   0.228  24.499  0.00  0.00    +0.037 A 
ATOM     14  C   UNL     1      -0.357   0.678  23.844  0.00  0.00    +0.145 A 
ATOM     15  O   UNL     1      -0.771   1.391  23.874  0.00  0.00    -0.456 OA
ATOM     16  C   UNL     1       0.192   0.381  23.304  0.00  0.00    +0.037 A 
ATOM     17  C   UNL     1       0.521  -0.366  23.420  0.00  0.00    +0.003 A 
ATOM     18  C   UNL     1       0.302  -0.817  24.075  0.00  0.00    +0.000 A 
ATOM     19  C   UNL     1      -0.247  -0.519  24.615  0.00  0.00    +0.003 A 
ENDBRANCH  10  11
ENDBRANCH   9  10
TORSDOF 3
ENDMDL
MODEL 6
REMARK VINA RESULT:     -12.8      1.859      4.364
REMARK  Name = 
REMARK  3 active torsions:
REMARK  status: ('A' for Active; 'I' for Inactive)
REMARK    1  A    between atoms: N_9  and  C_10
REMARK    2  A    between atoms: C_10  and  C_11
REMARK    3  A    between atoms: C_24  and  C_25
REMARK                            x       y       z     vdW  Elec       q    Type
REMARK                         _______ _______ _______ _____ _____    ______ ____
ROOT
ATOM      1  O   UNL     1      -2.069  -0.040  24.914  0.00  0.00    -0.267 OA
ATOM      2  C   UNL     1      -2.449  -0.727  24.660  0.00  0.00    +0.261 A 
ATOM      3  N   UNL     1      -3.260  -0.717  24.507  0.00  0.00    -0.299 N 
ATOM      4  C   UNL     1      -3.057  -1.510  24.337  0.00  0.00    +0.110 C 
ATOM      5  C   UNL     1      -3.945  -1.856  24.076  0.00  0.00    +0.039 C 
ATOM      6  C   UNL     1      -4.594  -2.287  23.838  0.00  0.00    +0.011 C 
ATOM      7  C   UNL     1      -4.454  -1.629  24.038  0.00  0.00    +0.054 C 
ATOM      8  C   UNL     1      -4.858  -0.816  24.175  0.00  0.00    +0.078 C 
ATOM      9  N   UNL     1      -4.210  -0.389  24.412  0.00  0.00    -0.266 NA
ATOM     20  C   UNL     1      -4.359  -1.002  24.222  0.00  0.00    +0.074 C 
ATOM     21  C   UNL     1      -3.640  -1.403  24.253  0.00  0.00    +0.041 A 
ATOM     22  C   UNL     1      -3.210  -2.100  24.152  0.00  0.00    +0.013 A 
ATOM     23  C   UNL     1      -2.400  -2.110  24.304  0.00  0.00    +0.006 A 
ATOM     24  C   UNL     1      -2.019  -1.424  24.558  0.00  0.00    +0.058 A 
ENDROOT
BRANCH  24  25
ATOM     25  C   UNL     1      -1.208  -1.434  24.710  0.00  0.00    +0.024 A 
ATOM     26  C   UNL     1      -0.921  -1.805  25.389  0.00  0.00    +0.003 A 
ATOM     27  C   UNL     1      -0.110  -1.815  25.542  0.00  0.00    +0.021 A 
ATOM     28  C   UNL     1       0.413  -1.454  25.015  0.00  0.00    +0.099 A 
ATOM     29  N   UNL     1       0.126  -1.082  24.338  0.00  0.00    -0.242 NA
ATOM     30  C   UNL     1      -0.685  -1.072  24.185  0.00  0.00    +0.099 A 
ENDBRANCH  24  25
BRANCH   9  10
ATOM     10  C   UNL     1      -3.758   0.252  24.668  0.00  0.00    +0.138 C 
BRANCH  10  11
ATOM     11  C   UNL     1      -4.119   0.977  24.820  0.00  0.00    +0.139 A 
ATOM     12  C   UNL     1      -3.944   1.693  24.450  0.00  0.00    +0.037 A 
ATOM     13  C   UNL     1      -4.436   2.274  24.770  0.00  0.00    +0.037 A 
ATOM     14  C   UNL     1      -4.916   1.916  25.338  0.00  0.00    +0.145 A 
ATOM     15  O   UNL     1      -4.720   1.115  25.369  0.00  0.00    -0.456 OA
ATOM     16  C   UNL     1      -5.469   2.365  25.754  0.00  0.00    +0.037 A 
ATOM     17  C   UNL     1      -5.542   3.173  25.601  0.00  0.00    +0.003 A 
ATOM     18  C   UNL     1      -5.063   3.531  25.033  0.00  0.00    +0.000 A 
ATOM     19  C   UNL     1      -4.510   3.081  24.618  0.00  0.00    +0.003 A 
ENDBRANCH  10  11
ENDBRANCH   9  10
TORSDOF 3
ENDMDL
MODEL 7
REMARK VINA RESULT:     -12.3      2.139      3.920
REMARK  Name = 
REMARK  3 active torsions:
REMARK  status: ('A' for Active; 'I' for Inactive)
REMARK    1  A    between atoms: N_9  and  C_10
REMARK    2  A    between atoms: C_10  and  C_11
REMARK    3  A    between atoms: C_24  and  C_25
REMARK                            x       y       z     vdW  Elec       q    Type
REMARK                         _______ _______ _______ _____ _____    ______ ____
ROOT
ATOM      1  O   UNL     1      -1.963   0.995  24.393  0.00  0.00    -0.267 OA
ATOM      2  C   UNL     1      -1.479   1.653  24.511  0.00  0.00    +0.261 A 
ATOM      3  N   UNL     1      -1.813   2.377  24.725  0.00  0.00    -0.299 N 
ATOM      4  C   UNL     1      -0.999   2.560  24.691  0.00  0.00    +0.110 C 
ATOM      5  C   UNL     1      -1.034   3.517  24.935  0.00  0.00    +0.039 C 
ATOM      6  C   UNL     1      -0.895   4.299  25.117  0.00  0.00    +0.011 C 
ATOM      7  C   UNL     1      -1.447   3.869  25.064  0.00  0.00    +0.054 C 
ATOM      8  C   UNL     1      -2.362   3.857  25.151  0.00  0.00    +0.078 C 
ATOM      9  N   UNL     1      -2.498   3.077  24.968  0.00  0.00    -0.266 NA
ATOM     20  C   UNL     1      -1.990   3.495  25.023  0.00  0.00    +0.074 C 
ATOM     21  C   UNL     1      -1.331   3.034  24.843  0.00  0.00    +0.041 A 
ATOM     22  C   UNL     1      -0.514   2.969  24.746  0.00  0.00    +0.013 A 
ATOM     23  C   UNL     1      -0.180   2.247  24.532  0.00  0.00    +0.006 A 
ATOM     24  C   UNL     1      -0.663   1.588  24.414  0.00  0.00    +0.058 A 
ENDROOT
BRANCH  24  25
ATOM     25  C   UNL     1      -0.329   0.865  24.200  0.00  0.00    +0.024 A 
ATOM     26  C   UNL     1      -0.392   0.215  24.705  0.00  0.00    +0.003 A 
ATOM     27  C   UNL     1      -0.058  -0.508  24.491  0.00  0.00    +0.021 A 
ATOM     28  C   UNL     1       0.338  -0.582  23.771  0.00  0.00    +0.099 A 
ATOM     29  N   UNL     1       0.401   0.067  23.266  0.00  0.00    -0.242 NA
ATOM     30  C   UNL     1       0.067   0.790  23.480  0.00  0.00    +0.099 A 
ENDBRANCH  24  25
BRANCH   9  10
ATOM     10  C   UNL     1      -2.909   2.376  24.833  0.00  0.00    +0.138 C 
BRANCH  10  11
ATOM     11  C   UNL     1      -3.721   2.341  24.972  0.00  0.00    +0.139 A 
ATOM     12  C   UNL     1      -4.289   2.040  24.455  0.00  0.00    +0.037 A 
ATOM     13  C   UNL     1      -5.028   2.113  24.816  0.00  0.00    +0.037 A 
ATOM     14  C   UNL     1      -4.916   2.460  25.556  0.00  0.00    +0.145 A 
ATOM     15  O   UNL     1      -4.109   2.601  25.653  0.00  0.00    -0.456 OA
ATOM     16  C   UNL     1      -5.564   2.604  26.047  0.00  0.00    +0.037 A 
ATOM     17  C   UNL     1      -6.323   2.400  25.798  0.00  0.00    +0.003 A 
ATOM     18  C   UNL     1      -6.435   2.053  25.057  0.00  0.00    +0.000 A 
ATOM     19  C   UNL     1      -5.787   1.910  24.567  0.00  0.00    +0.003 A 
ENDBRANCH  10  11
ENDBRANCH   9  10
TORSDOF 3
ENDMDL
