REMARK  Name = 
REMARK  5 active torsions:
REMARK  status: ('A' for Active; 'I' for Inactive)
REMARK    1  A    between atoms: C_7  and  N_10
REMARK    2  A    between atoms: N_10  and  C_11
REMARK    3  A    between atoms: C_11  and  C_12
REMARK    4  A    between atoms: C_12  and  C_13
REMARK    5  A    between atoms: C_16  and  C_18
REMARK                            x       y       z     vdW  Elec       q    Type
REMARK                         _______ _______ _______ _____ _____    ______ ____
ROOT
ATOM     11  C   UNL     1       0.732  -3.554   0.000  0.00  0.00    +0.119 C 
ATOM     25  C   UNL     1       1.315  -4.137   0.000  0.00  0.00    +0.161 C 
ATOM     26  O   UNL     1       0.732  -4.721   0.000  0.00  0.00    -0.351 OA
ATOM     27  C   UNL     1       0.148  -4.137   0.000  0.00  0.00    +0.161 C 
ENDROOT
BRANCH  11  10
ATOM     10  N   UNL     1       1.315  -2.970   0.000  0.00  0.00    -0.217 NA
BRANCH  10   7
ATOM      1  C   UNL     1      -0.336   0.431   0.000  0.00  0.00    +0.095 C 
ATOM      2  C   UNL     1       0.461   0.217   0.000  0.00  0.00    +0.226 C 
ATOM      3  O   UNL     1       1.044   0.800   0.000  0.00  0.00    -0.275 OA
ATOM      4  N   UNL     1       0.674  -0.580   0.000  0.00  0.00    -0.279 N 
ATOM      5  C   UNL     1       1.471  -0.793   0.000  0.00  0.00    +0.095 C 
ATOM      6  C   UNL     1       1.685  -1.590   0.000  0.00  0.00    +0.039 C 
ATOM      7  C   UNL     1       1.102  -2.174   0.000  0.00  0.00    +0.076 C 
ATOM      8  C   UNL     1       0.305  -1.960   0.000  0.00  0.00    +0.039 C 
ATOM      9  C   UNL     1       0.091  -1.163   0.000  0.00  0.00    +0.095 C 
ENDBRANCH  10   7
ENDBRANCH  11  10
BRANCH  11  12
ATOM     12  C   UNL     1       0.148  -2.970   0.000  0.00  0.00    +0.070 C 
BRANCH  12  13
ATOM     13  C   UNL     1      -0.648  -3.184   0.000  0.00  0.00    +0.102 A 
ATOM     14  N   UNL     1      -0.944  -3.954   0.000  0.00  0.00    -0.081 NA
ATOM     15  O   UNL     1      -1.768  -3.911   0.000  0.00  0.00    -0.354 OA
ATOM     16  C   UNL     1      -1.982  -3.114   0.000  0.00  0.00    +0.177 A 
ATOM     17  C   UNL     1      -1.290  -2.665   0.000  0.00  0.00    +0.058 A 
BRANCH  16  18
ATOM     18  C   UNL     1      -2.752  -2.818   0.000  0.00  0.00    +0.040 A 
ATOM     19  C   UNL     1      -3.393  -3.338   0.000  0.00  0.00    +0.045 A 
ATOM     20  C   UNL     1      -4.163  -3.042   0.000  0.00  0.00    +0.196 A 
ATOM     21  O   UNL     1      -4.804  -3.561   0.000  0.00  0.00    -0.287 OA
ATOM     22  C   UNL     1      -4.292  -2.227   0.000  0.00  0.00    +0.042 A 
ATOM     23  C   UNL     1      -3.651  -1.708   0.000  0.00  0.00    +0.003 A 
ATOM     24  C   UNL     1      -2.881  -2.004   0.000  0.00  0.00    +0.003 A 
ENDBRANCH  16  18
ENDBRANCH  12  13
ENDBRANCH  11  12
TORSDOF 5
