MODEL 1
REMARK VINA RESULT:      -8.1      0.000      0.000
REMARK  Name = 
REMARK  6 active torsions:
REMARK  status: ('A' for Active; 'I' for Inactive)
REMARK    1  A    between atoms: O_2  and  C_3
REMARK    2  A    between atoms: C_3  and  C_4
REMARK    3  A    between atoms: N_6  and  C_7
REMARK    4  A    between atoms: C_7  and  C_8
REMARK    5  A    between atoms: C_15  and  C_16
REMARK    6  A    between atoms: C_16  and  N_17
REMARK                            x       y       z     vdW  Elec       q    Type
REMARK                         _______ _______ _______ _____ _____    ______ ____
ROOT
ATOM      8  C   UNL     1      -2.975   1.673  24.563  0.00  0.00    +0.079 C 
ATOM      9  C   UNL     1      -3.733   1.616  24.729  0.00  0.00    +0.018 C 
ATOM     10  C   UNL     1      -4.156   0.927  24.772  0.00  0.00    +0.005 C 
ATOM     11  C   UNL     1      -5.016   1.076  24.977  0.00  0.00    +0.017 C 
ATOM     12  C   UNL     1      -4.397   1.242  24.850  0.00  0.00    +0.072 C 
ATOM     13  N   UNL     1      -3.413   0.975  24.608  0.00  0.00    -0.272 NA
ATOM     14  C   UNL     1      -3.182   0.100  24.489  0.00  0.00    +0.073 C 
ATOM     15  C   UNL     1      -3.927   0.088  24.656  0.00  0.00    +0.032 C 
ENDROOT
BRANCH   8   7
ATOM      7  C   UNL     1      -2.279   2.097  24.438  0.00  0.00    +0.131 C 
BRANCH   7   6
ATOM      4  C   UNL     1      -1.465   3.242  24.697  0.00  0.00    +0.272 C 
ATOM      5  O   UNL     1      -0.852   2.906  24.260  0.00  0.00    -0.271 OA
ATOM      6  N   UNL     1      -2.179   2.838  24.786  0.00  0.00    -0.202 NA
BRANCH   4   3
ATOM      3  C   UNL     1      -1.366   3.984  25.045  0.00  0.00    +0.229 C 
BRANCH   3   2
ATOM      1  C   UNL     1      -0.871   5.319  24.937  0.00  0.00    +0.175 C 
ATOM      2  O   UNL     1      -0.835   4.525  24.719  0.00  0.00    -0.342 OA
ENDBRANCH   3   2
ENDBRANCH   4   3
ENDBRANCH   7   6
ENDBRANCH   8   7
BRANCH  15  16
ATOM     16  C   UNL     1      -4.415  -0.576  24.715  0.00  0.00    +0.074 C 
BRANCH  16  17
ATOM     17  N   UNL     1      -4.097  -1.330  24.619  0.00  0.00    -0.268 NA
ATOM     18  C   UNL     1      -4.197  -1.731  23.904  0.00  0.00    +0.105 C 
ATOM     19  C   UNL     1      -3.879  -2.486  23.807  0.00  0.00    +0.159 C 
ATOM     20  O   UNL     1      -3.462  -2.840  24.424  0.00  0.00    -0.351 OA
ATOM     21  C   UNL     1      -3.362  -2.441  25.139  0.00  0.00    +0.159 C 
ATOM     22  C   UNL     1      -3.680  -1.685  25.236  0.00  0.00    +0.105 C 
ENDBRANCH  16  17
ENDBRANCH  15  16
TORSDOF 6
ENDMDL
MODEL 2
REMARK VINA RESULT:      -7.8      1.245      5.006
REMARK  Name = 
REMARK  6 active torsions:
REMARK  status: ('A' for Active; 'I' for Inactive)
REMARK    1  A    between atoms: O_2  and  C_3
REMARK    2  A    between atoms: C_3  and  C_4
REMARK    3  A    between atoms: N_6  and  C_7
REMARK    4  A    between atoms: C_7  and  C_8
REMARK    5  A    between atoms: C_15  and  C_16
REMARK    6  A    between atoms: C_16  and  N_17
REMARK                            x       y       z     vdW  Elec       q    Type
REMARK                         _______ _______ _______ _____ _____    ______ ____
ROOT
ATOM      8  C   UNL     1      -4.599   0.833  24.630  0.00  0.00    +0.079 C 
ATOM      9  C   UNL     1      -5.094   1.273  25.038  0.00  0.00    +0.018 C 
ATOM     10  C   UNL     1      -4.971   2.043  25.255  0.00  0.00    +0.005 C 
ATOM     11  C   UNL     1      -5.662   2.373  25.722  0.00  0.00    +0.017 C 
ATOM     12  C   UNL     1      -5.331   1.918  25.390  0.00  0.00    +0.072 C 
ATOM     13  N   UNL     1      -4.481   1.618  24.854  0.00  0.00    -0.272 NA
ATOM     14  C   UNL     1      -3.789   2.196  24.714  0.00  0.00    +0.073 C 
ATOM     15  C   UNL     1      -4.302   2.594  25.116  0.00  0.00    +0.032 C 
ENDROOT
BRANCH   8   7
ATOM      7  C   UNL     1      -4.370   0.132  24.261  0.00  0.00    +0.131 C 
BRANCH   7   6
ATOM      4  C   UNL     1      -3.992  -1.244  24.346  0.00  0.00    +0.272 C 
ATOM      5  O   UNL     1      -4.005  -1.298  23.523  0.00  0.00    -0.271 OA
ATOM      6  N   UNL     1      -4.175  -0.529  24.715  0.00  0.00    -0.202 NA
BRANCH   4   3
ATOM      3  C   UNL     1      -3.797  -1.904  24.800  0.00  0.00    +0.229 C 
BRANCH   3   2
ATOM      1  C   UNL     1      -3.269  -3.230  24.872  0.00  0.00    +0.175 C 
ATOM      2  O   UNL     1      -3.594  -2.613  24.431  0.00  0.00    -0.342 OA
ENDBRANCH   3   2
ENDBRANCH   4   3
ENDBRANCH   7   6
ENDBRANCH   8   7
BRANCH  15  16
ATOM     16  C   UNL     1      -4.240   3.378  25.368  0.00  0.00    +0.074 C 
BRANCH  16  17
ATOM     17  N   UNL     1      -3.503   3.745  25.393  0.00  0.00    -0.268 NA
ATOM     18  C   UNL     1      -3.098   3.810  26.110  0.00  0.00    +0.105 C 
ATOM     19  C   UNL     1      -2.360   4.178  26.135  0.00  0.00    +0.159 C 
ATOM     20  O   UNL     1      -2.026   4.480  25.444  0.00  0.00    -0.351 OA
ATOM     21  C   UNL     1      -2.429   4.415  24.727  0.00  0.00    +0.159 C 
ATOM     22  C   UNL     1      -3.168   4.047  24.702  0.00  0.00    +0.105 C 
ENDBRANCH  16  17
ENDBRANCH  15  16
TORSDOF 6
ENDMDL
MODEL 3
REMARK VINA RESULT:      -7.7      2.800      3.888
REMARK  Name = 
REMARK  6 active torsions:
REMARK  status: ('A' for Active; 'I' for Inactive)
REMARK    1  A    between atoms: O_2  and  C_3
REMARK    2  A    between atoms: C_3  and  C_4
REMARK    3  A    between atoms: N_6  and  C_7
REMARK    4  A    between atoms: C_7  and  C_8
REMARK    5  A    between atoms: C_15  and  C_16
REMARK    6  A    between atoms: C_16  and  N_17
REMARK                            x       y       z     vdW  Elec       q    Type
REMARK                         _______ _______ _______ _____ _____    ______ ____
ROOT
ATOM      8  C   UNL     1      -2.082   1.381  23.780  0.00  0.00    +0.079 C 
ATOM      9  C   UNL     1      -2.430   1.849  23.265  0.00  0.00    +0.018 C 
ATOM     10  C   UNL     1      -3.144   2.216  23.368  0.00  0.00    +0.005 C 
ATOM     11  C   UNL     1      -3.369   2.714  22.657  0.00  0.00    +0.017 C 
ATOM     12  C   UNL     1      -2.991   2.312  23.006  0.00  0.00    +0.072 C 
ATOM     13  N   UNL     1      -2.810   1.759  23.878  0.00  0.00    -0.272 NA
ATOM     14  C   UNL     1      -3.410   1.759  24.566  0.00  0.00    +0.073 C 
ATOM     15  C   UNL     1      -3.716   2.212  24.033  0.00  0.00    +0.032 C 
ENDROOT
BRANCH   8   7
ATOM      7  C   UNL     1      -1.469   0.891  24.032  0.00  0.00    +0.131 C 
BRANCH   7   6
ATOM      4  C   UNL     1      -0.149   0.376  23.847  0.00  0.00    +0.272 C 
ATOM      5  O   UNL     1      -0.306  -0.223  24.392  0.00  0.00    -0.271 OA
ATOM      6  N   UNL     1      -0.730   0.933  23.667  0.00  0.00    -0.202 NA
BRANCH   4   3
ATOM      3  C   UNL     1       0.590   0.418  23.482  0.00  0.00    +0.229 C 
BRANCH   3   2
ATOM      1  C   UNL     1       1.594  -0.172  22.655  0.00  0.00    +0.175 C 
ATOM      2  O   UNL     1       0.886  -0.234  23.073  0.00  0.00    -0.342 OA
ENDBRANCH   3   2
ENDBRANCH   4   3
ENDBRANCH   7   6
ENDBRANCH   8   7
BRANCH  15  16
ATOM     16  C   UNL     1      -4.436   2.615  24.075  0.00  0.00    +0.074 C 
BRANCH  16  17
ATOM     17  N   UNL     1      -4.848   2.649  24.788  0.00  0.00    -0.268 NA
ATOM     18  C   UNL     1      -4.720   3.276  25.308  0.00  0.00    +0.105 C 
ATOM     19  C   UNL     1      -5.133   3.310  26.022  0.00  0.00    +0.159 C 
ATOM     20  O   UNL     1      -5.673   2.718  26.215  0.00  0.00    -0.351 OA
ATOM     21  C   UNL     1      -5.802   2.090  25.695  0.00  0.00    +0.159 C 
ATOM     22  C   UNL     1      -5.389   2.056  24.982  0.00  0.00    +0.105 C 
ENDBRANCH  16  17
ENDBRANCH  15  16
TORSDOF 6
ENDMDL
MODEL 4
REMARK VINA RESULT:      -7.4      2.145      2.931
REMARK  Name = 
REMARK  6 active torsions:
REMARK  status: ('A' for Active; 'I' for Inactive)
REMARK    1  A    between atoms: O_2  and  C_3
REMARK    2  A    between atoms: C_3  and  C_4
REMARK    3  A    between atoms: N_6  and  C_7
REMARK    4  A    between atoms: C_7  and  C_8
REMARK    5  A    between atoms: C_15  and  C_16
REMARK    6  A    between atoms: C_16  and  N_17
REMARK                            x       y       z     vdW  Elec       q    Type
REMARK                         _______ _______ _______ _____ _____    ______ ____
ROOT
ATOM      8  C   UNL     1      -4.401   0.072  24.819  0.00  0.00    +0.079 C 
ATOM      9  C   UNL     1      -4.450  -0.606  24.440  0.00  0.00    +0.018 C 
ATOM     10  C   UNL     1      -3.846  -1.137  24.345  0.00  0.00    +0.005 C 
ATOM     11  C   UNL     1      -4.105  -1.857  23.877  0.00  0.00    +0.017 C 
ATOM     12  C   UNL     1      -4.181  -1.275  24.165  0.00  0.00    +0.072 C 
ATOM     13  N   UNL     1      -3.791  -0.474  24.717  0.00  0.00    -0.272 NA
ATOM     14  C   UNL     1      -2.920  -0.474  24.991  0.00  0.00    +0.073 C 
ATOM     15  C   UNL     1      -3.010  -1.130  24.611  0.00  0.00    +0.032 C 
ENDROOT
BRANCH   8   7
ATOM      7  C   UNL     1      -4.714   0.781  25.100  0.00  0.00    +0.131 C 
BRANCH   7   6
ATOM      4  C   UNL     1      -4.856   2.199  24.994  0.00  0.00    +0.272 C 
ATOM      5  O   UNL     1      -5.248   2.215  25.719  0.00  0.00    -0.271 OA
ATOM      6  N   UNL     1      -4.589   1.482  24.684  0.00  0.00    -0.202 NA
BRANCH   4   3
ATOM      3  C   UNL     1      -4.731   2.900  24.577  0.00  0.00    +0.229 C 
BRANCH   3   2
ATOM      1  C   UNL     1      -3.937   4.080  24.444  0.00  0.00    +0.175 C 
ATOM      2  O   UNL     1      -4.298   3.512  24.921  0.00  0.00    -0.342 OA
ENDBRANCH   3   2
ENDBRANCH   4   3
ENDBRANCH   7   6
ENDBRANCH   8   7
BRANCH  15  16
ATOM     16  C   UNL     1      -2.439  -1.712  24.479  0.00  0.00    +0.074 C 
BRANCH  16  17
ATOM     17  N   UNL     1      -1.645  -1.553  24.634  0.00  0.00    -0.268 NA
ATOM     18  C   UNL     1      -1.182  -1.174  24.066  0.00  0.00    +0.105 C 
ATOM     19  C   UNL     1      -0.387  -1.015  24.221  0.00  0.00    +0.159 C 
ATOM     20  O   UNL     1      -0.056  -1.235  24.944  0.00  0.00    -0.351 OA
ATOM     21  C   UNL     1      -0.519  -1.613  25.513  0.00  0.00    +0.159 C 
ATOM     22  C   UNL     1      -1.313  -1.773  25.357  0.00  0.00    +0.105 C 
ENDBRANCH  16  17
ENDBRANCH  15  16
TORSDOF 6
ENDMDL
MODEL 5
REMARK VINA RESULT:      -7.0      2.874      3.879
REMARK  Name = 
REMARK  6 active torsions:
REMARK  status: ('A' for Active; 'I' for Inactive)
REMARK    1  A    between atoms: O_2  and  C_3
REMARK    2  A    between atoms: C_3  and  C_4
REMARK    3  A    between atoms: N_6  and  C_7
REMARK    4  A    between atoms: C_7  and  C_8
REMARK    5  A    between atoms: C_15  and  C_16
REMARK    6  A    between atoms: C_16  and  N_17
REMARK                            x       y       z     vdW  Elec       q    Type
REMARK                         _______ _______ _______ _____ _____    ______ ____
ROOT
ATOM      8  C   UNL     1      -2.131   3.124  25.224  0.00  0.00    +0.079 C 
ATOM      9  C   UNL     1      -1.485   3.118  25.658  0.00  0.00    +0.018 C 
ATOM     10  C   UNL     1      -0.885   2.577  25.603  0.00  0.00    +0.005 C 
ATOM     11  C   UNL     1      -0.230   2.745  26.192  0.00  0.00    +0.017 C 
ATOM     12  C   UNL     1      -0.801   2.847  25.892  0.00  0.00    +0.072 C 
ATOM     13  N   UNL     1      -1.515   2.576  25.174  0.00  0.00    -0.272 NA
ATOM     14  C   UNL     1      -1.387   1.848  24.638  0.00  0.00    +0.073 C 
ATOM     15  C   UNL     1      -0.768   1.878  25.085  0.00  0.00    +0.032 C 
ENDROOT
BRANCH   8   7
ATOM      7  C   UNL     1      -2.860   3.434  24.993  0.00  0.00    +0.131 C 
BRANCH   7   6
ATOM      4  C   UNL     1      -4.276   3.510  25.165  0.00  0.00    +0.272 C 
ATOM      5  O   UNL     1      -4.344   3.889  24.436  0.00  0.00    -0.271 OA
ATOM      6  N   UNL     1      -3.533   3.282  25.444  0.00  0.00    -0.202 NA
BRANCH   4   3
ATOM      3  C   UNL     1      -4.950   3.359  25.616  0.00  0.00    +0.229 C 
BRANCH   3   2
ATOM      1  C   UNL     1      -6.044   2.481  25.884  0.00  0.00    +0.175 C 
ATOM      2  O   UNL     1      -5.509   2.814  25.352  0.00  0.00    -0.342 OA
ENDBRANCH   3   2
ENDBRANCH   4   3
ENDBRANCH   7   6
ENDBRANCH   8   7
BRANCH  15  16
ATOM     16  C   UNL     1      -0.125   1.362  25.081  0.00  0.00    +0.074 C 
BRANCH  16  17
ATOM     17  N   UNL     1      -0.143   0.685  24.611  0.00  0.00    -0.268 NA
ATOM     18  C   UNL     1      -0.507  -0.001  24.890  0.00  0.00    +0.105 C 
ATOM     19  C   UNL     1      -0.525  -0.679  24.420  0.00  0.00    +0.159 C 
ATOM     20  O   UNL     1      -0.180  -0.671  23.671  0.00  0.00    -0.351 OA
ATOM     21  C   UNL     1       0.185   0.014  23.391  0.00  0.00    +0.159 C 
ATOM     22  C   UNL     1       0.203   0.692  23.862  0.00  0.00    +0.105 C 
ENDBRANCH  16  17
ENDBRANCH  15  16
TORSDOF 6
ENDMDL
