MODEL 1
REMARK VINA RESULT:     -12.0      0.000      0.000
REMARK  Name = 
REMARK  2 active torsions:
REMARK  status: ('A' for Active; 'I' for Inactive)
REMARK    1  A    between atoms: C_7  and  C_9
REMARK    2  A    between atoms: C_14  and  C_16
REMARK                            x       y       z     vdW  Elec       q    Type
REMARK                         _______ _______ _______ _____ _____    ______ ____
ROOT
ATOM      1  C   UNL     1      -3.679  -2.784  23.946  0.00  0.00    +0.031 C 
ATOM      2  C   UNL     1      -3.740  -2.085  24.378  0.00  0.00    -0.020 A 
ATOM      3  C   UNL     1      -4.116  -1.429  24.050  0.00  0.00    +0.016 A 
ATOM      4  C   UNL     1      -4.177  -0.729  24.483  0.00  0.00    +0.100 A 
ATOM      5  C   UNL     1      -3.863  -0.687  25.245  0.00  0.00    +0.100 A 
ATOM      6  N   UNL     1      -4.005   0.071  25.538  0.00  0.00    -0.229 NA
ATOM      7  C   UNL     1      -4.408   0.497  24.958  0.00  0.00    +0.140 A 
ATOM      8  N   UNL     1      -4.514   0.002  24.306  0.00  0.00    -0.229 NA
ATOM     19  C   UNL     1      -3.487  -1.344  25.573  0.00  0.00    +0.020 A 
ATOM     20  C   UNL     1      -3.426  -2.043  25.140  0.00  0.00    -0.003 A 
ENDROOT
BRANCH   7   9
ATOM      9  C   UNL     1      -4.660   1.280  25.018  0.00  0.00    +0.080 C 
ATOM     10  C   UNL     1      -5.443   1.539  25.020  0.00  0.00    +0.031 C 
ATOM     11  C   UNL     1      -5.441   2.361  25.091  0.00  0.00    +0.094 C 
ATOM     12  N   UNL     1      -4.656   2.610  25.132  0.00  0.00    -0.279 N 
ATOM     13  C   UNL     1      -4.173   1.942  25.087  0.00  0.00    +0.101 C 
ATOM     14  C   UNL     1      -4.398   3.390  25.205  0.00  0.00    +0.225 C 
ATOM     15  O   UNL     1      -4.948   4.005  25.244  0.00  0.00    -0.275 OA
BRANCH  14  16
ATOM     16  C   UNL     1      -3.591   3.557  25.240  0.00  0.00    +0.077 C 
ATOM     17  C   UNL     1      -2.871   3.684  24.858  0.00  0.00    +0.010 C 
ATOM     18  C   UNL     1      -2.913   3.719  25.682  0.00  0.00    +0.010 C 
ENDBRANCH  14  16
ENDBRANCH   7   9
TORSDOF 2
ENDMDL
MODEL 2
REMARK VINA RESULT:     -10.9      2.111      4.399
REMARK  Name = 
REMARK  2 active torsions:
REMARK  status: ('A' for Active; 'I' for Inactive)
REMARK    1  A    between atoms: C_7  and  C_9
REMARK    2  A    between atoms: C_14  and  C_16
REMARK                            x       y       z     vdW  Elec       q    Type
REMARK                         _______ _______ _______ _____ _____    ______ ____
ROOT
ATOM      1  C   UNL     1      -5.691   3.131  25.532  0.00  0.00    +0.031 C 
ATOM      2  C   UNL     1      -5.186   2.598  25.158  0.00  0.00    -0.020 A 
ATOM      3  C   UNL     1      -5.190   1.803  25.378  0.00  0.00    +0.016 A 
ATOM      4  C   UNL     1      -4.685   1.268  25.004  0.00  0.00    +0.100 A 
ATOM      5  C   UNL     1      -4.176   1.529  24.409  0.00  0.00    +0.100 A 
ATOM      6  N   UNL     1      -3.744   0.881  24.140  0.00  0.00    -0.229 NA
ATOM      7  C   UNL     1      -3.985   0.219  24.569  0.00  0.00    +0.140 A 
ATOM      8  N   UNL     1      -4.566   0.459  25.102  0.00  0.00    -0.229 NA
ATOM     19  C   UNL     1      -4.172   2.325  24.188  0.00  0.00    +0.020 A 
ATOM     20  C   UNL     1      -4.678   2.859  24.563  0.00  0.00    -0.003 A 
ENDROOT
BRANCH   7   9
ATOM      9  C   UNL     1      -3.695  -0.549  24.480  0.00  0.00    +0.080 C 
ATOM     10  C   UNL     1      -4.135  -1.211  24.261  0.00  0.00    +0.031 C 
ATOM     11  C   UNL     1      -3.627  -1.861  24.239  0.00  0.00    +0.094 C 
ATOM     12  N   UNL     1      -2.872  -1.599  24.445  0.00  0.00    -0.279 N 
ATOM     13  C   UNL     1      -2.914  -0.789  24.594  0.00  0.00    +0.101 C 
ATOM     14  C   UNL     1      -2.194  -2.066  24.494  0.00  0.00    +0.225 C 
ATOM     15  O   UNL     1      -2.236  -2.874  24.329  0.00  0.00    -0.275 OA
BRANCH  14  16
ATOM     16  C   UNL     1      -1.473  -1.727  24.708  0.00  0.00    +0.077 C 
ATOM     17  C   UNL     1      -0.761  -1.368  24.495  0.00  0.00    +0.010 C 
ATOM     18  C   UNL     1      -0.937  -1.497  25.292  0.00  0.00    +0.010 C 
ENDBRANCH  14  16
ENDBRANCH   7   9
TORSDOF 2
ENDMDL
MODEL 3
REMARK VINA RESULT:     -10.4      1.593      4.528
REMARK  Name = 
REMARK  2 active torsions:
REMARK  status: ('A' for Active; 'I' for Inactive)
REMARK    1  A    between atoms: C_7  and  C_9
REMARK    2  A    between atoms: C_14  and  C_16
REMARK                            x       y       z     vdW  Elec       q    Type
REMARK                         _______ _______ _______ _____ _____    ______ ____
ROOT
ATOM      1  C   UNL     1      -0.897   4.854  24.998  0.00  0.00    +0.031 C 
ATOM      2  C   UNL     1      -1.552   4.369  25.122  0.00  0.00    -0.020 A 
ATOM      3  C   UNL     1      -1.621   3.656  24.712  0.00  0.00    +0.016 A 
ATOM      4  C   UNL     1      -2.276   3.170  24.835  0.00  0.00    +0.100 A 
ATOM      5  C   UNL     1      -2.864   3.398  25.368  0.00  0.00    +0.100 A 
ATOM      6  N   UNL     1      -3.442   2.811  25.376  0.00  0.00    -0.229 NA
ATOM      7  C   UNL     1      -3.213   2.220  24.848  0.00  0.00    +0.140 A 
ATOM      8  N   UNL     1      -2.493   2.443  24.514  0.00  0.00    -0.229 NA
ATOM     19  C   UNL     1      -2.795   4.111  25.778  0.00  0.00    +0.020 A 
ATOM     20  C   UNL     1      -2.139   4.596  25.655  0.00  0.00    -0.003 A 
ENDROOT
BRANCH   7   9
ATOM      9  C   UNL     1      -3.631   1.528  24.683  0.00  0.00    +0.080 C 
ATOM     10  C   UNL     1      -4.358   1.482  24.295  0.00  0.00    +0.031 C 
ATOM     11  C   UNL     1      -4.573   0.686  24.248  0.00  0.00    +0.094 C 
ATOM     12  N   UNL     1      -3.978   0.241  24.607  0.00  0.00    -0.279 N 
ATOM     13  C   UNL     1      -3.396   0.762  24.875  0.00  0.00    +0.101 C 
ATOM     14  C   UNL     1      -3.966  -0.580  24.685  0.00  0.00    +0.225 C 
ATOM     15  O   UNL     1      -4.590  -1.031  24.388  0.00  0.00    -0.275 OA
BRANCH  14  16
ATOM     16  C   UNL     1      -3.331  -0.951  25.059  0.00  0.00    +0.077 C 
ATOM     17  C   UNL     1      -2.599  -1.329  25.017  0.00  0.00    +0.010 C 
ATOM     18  C   UNL     1      -2.963  -1.214  25.749  0.00  0.00    +0.010 C 
ENDBRANCH  14  16
ENDBRANCH   7   9
TORSDOF 2
ENDMDL
MODEL 4
REMARK VINA RESULT:     -10.3      2.766      5.167
REMARK  Name = 
REMARK  2 active torsions:
REMARK  status: ('A' for Active; 'I' for Inactive)
REMARK    1  A    between atoms: C_7  and  C_9
REMARK    2  A    between atoms: C_14  and  C_16
REMARK                            x       y       z     vdW  Elec       q    Type
REMARK                         _______ _______ _______ _____ _____    ______ ____
ROOT
ATOM      1  C   UNL     1      -1.807   4.189  25.395  0.00  0.00    +0.031 C 
ATOM      2  C   UNL     1      -1.474   3.436  25.447  0.00  0.00    -0.020 A 
ATOM      3  C   UNL     1      -1.848   2.794  25.091  0.00  0.00    +0.016 A 
ATOM      4  C   UNL     1      -1.515   2.041  25.143  0.00  0.00    +0.100 A 
ATOM      5  C   UNL     1      -0.807   1.931  25.551  0.00  0.00    +0.100 A 
ATOM      6  N   UNL     1      -0.610   1.131  25.511  0.00  0.00    -0.229 NA
ATOM      7  C   UNL     1      -1.197   0.746  25.077  0.00  0.00    +0.140 A 
ATOM      8  N   UNL     1      -1.755   1.309  24.850  0.00  0.00    -0.229 NA
ATOM     19  C   UNL     1      -0.432   2.574  25.908  0.00  0.00    +0.020 A 
ATOM     20  C   UNL     1      -0.766   3.327  25.856  0.00  0.00    -0.003 A 
ENDROOT
BRANCH   7   9
ATOM      9  C   UNL     1      -1.220  -0.059  24.902  0.00  0.00    +0.080 C 
ATOM     10  C   UNL     1      -0.575  -0.530  24.696  0.00  0.00    +0.031 C 
ATOM     11  C   UNL     1      -0.849  -1.298  24.568  0.00  0.00    +0.094 C 
ATOM     12  N   UNL     1      -1.664  -1.302  24.694  0.00  0.00    -0.279 N 
ATOM     13  C   UNL     1      -1.893  -0.536  24.900  0.00  0.00    +0.101 C 
ATOM     14  C   UNL     1      -2.162  -1.955  24.626  0.00  0.00    +0.225 C 
ATOM     15  O   UNL     1      -1.853  -2.690  24.415  0.00  0.00    -0.275 OA
BRANCH  14  16
ATOM     16  C   UNL     1      -2.971  -1.875  24.770  0.00  0.00    +0.077 C 
ATOM     17  C   UNL     1      -3.738  -1.754  24.491  0.00  0.00    +0.010 C 
ATOM     18  C   UNL     1      -3.604  -1.856  25.299  0.00  0.00    +0.010 C 
ENDBRANCH  14  16
ENDBRANCH   7   9
TORSDOF 2
ENDMDL
MODEL 5
REMARK VINA RESULT:      -9.4      2.742      3.769
REMARK  Name = 
REMARK  2 active torsions:
REMARK  status: ('A' for Active; 'I' for Inactive)
REMARK    1  A    between atoms: C_7  and  C_9
REMARK    2  A    between atoms: C_14  and  C_16
REMARK                            x       y       z     vdW  Elec       q    Type
REMARK                         _______ _______ _______ _____ _____    ______ ____
ROOT
ATOM      1  C   UNL     1       0.612   1.645  24.176  0.00  0.00    +0.031 C 
ATOM      2  C   UNL     1       0.040   1.996  24.656  0.00  0.00    -0.020 A 
ATOM      3  C   UNL     1      -0.704   2.173  24.348  0.00  0.00    +0.016 A 
ATOM      4  C   UNL     1      -1.277   2.524  24.827  0.00  0.00    +0.100 A 
ATOM      5  C   UNL     1      -1.104   2.698  25.615  0.00  0.00    +0.100 A 
ATOM      6  N   UNL     1      -1.773   3.042  25.953  0.00  0.00    -0.229 NA
ATOM      7  C   UNL     1      -2.359   3.081  25.374  0.00  0.00    +0.140 A 
ATOM      8  N   UNL     1      -2.052   2.761  24.679  0.00  0.00    -0.229 NA
ATOM     19  C   UNL     1      -0.359   2.521  25.923  0.00  0.00    +0.020 A 
ATOM     20  C   UNL     1       0.212   2.170  25.443  0.00  0.00    -0.003 A 
ENDROOT
BRANCH   7   9
ATOM      9  C   UNL     1      -3.120   3.386  25.473  0.00  0.00    +0.080 C 
ATOM     10  C   UNL     1      -3.308   4.167  25.656  0.00  0.00    +0.031 C 
ATOM     11  C   UNL     1      -4.130   4.228  25.703  0.00  0.00    +0.094 C 
ATOM     12  N   UNL     1      -4.449   3.483  25.548  0.00  0.00    -0.279 N 
ATOM     13  C   UNL     1      -3.824   2.963  25.406  0.00  0.00    +0.101 C 
ATOM     14  C   UNL     1      -5.251   3.292  25.538  0.00  0.00    +0.225 C 
ATOM     15  O   UNL     1      -5.816   3.873  25.691  0.00  0.00    -0.275 OA
BRANCH  14  16
ATOM     16  C   UNL     1      -5.489   2.519  25.374  0.00  0.00    +0.077 C 
ATOM     17  C   UNL     1      -5.769   1.788  25.633  0.00  0.00    +0.010 C 
ATOM     18  C   UNL     1      -5.622   1.913  24.831  0.00  0.00    +0.010 C 
ENDBRANCH  14  16
ENDBRANCH   7   9
TORSDOF 2
ENDMDL
