MODEL 1
REMARK VINA RESULT:     -14.9      0.000      0.000
REMARK  Name = 
REMARK  1 active torsions:
REMARK  status: ('A' for Active; 'I' for Inactive)
REMARK    1  A    between atoms: C_24  and  N_27
REMARK                            x       y       z     vdW  Elec       q    Type
REMARK                         _______ _______ _______ _____ _____    ______ ____
ROOT
ATOM      1  O   UNL     1      -3.133   1.684  25.016  0.00  0.00    -0.215 OA
ATOM      2  C   UNL     1      -2.339   1.897  24.945  0.00  0.00    +0.235 C 
ATOM      3  C   UNL     1      -1.888   1.233  24.751  0.00  0.00    +0.242 C 
ATOM      4  O   UNL     1      -2.398   0.586  24.697  0.00  0.00    -0.473 OA
ATOM      5  C   UNL     1      -3.163   0.850  24.857  0.00  0.00    +0.136 A 
ATOM      6  C   UNL     1      -3.936   0.567  24.912  0.00  0.00    +0.030 A 
ATOM      7  C   UNL     1      -4.648   1.028  25.103  0.00  0.00    +0.119 C 
ATOM      8  N   UNL     1      -4.526   1.832  25.242  0.00  0.00    -0.204 NA
ATOM      9  C   UNL     1      -5.164   2.319  25.428  0.00  0.00    +0.174 C 
ATOM     10  C   UNL     1      -5.043   3.123  25.568  0.00  0.00    +0.243 C 
ATOM     11  O   UNL     1      -5.682   3.611  25.754  0.00  0.00    -0.273 OA
ATOM     12  N   UNL     1      -4.282   3.440  25.522  0.00  0.00    -0.278 N 
ATOM     13  C   UNL     1      -4.160   4.243  25.662  0.00  0.00    +0.093 C 
ATOM     14  C   UNL     1      -3.400   4.560  25.615  0.00  0.00    +0.022 C 
ATOM     15  C   UNL     1      -2.760   4.072  25.429  0.00  0.00    +0.018 C 
ATOM     16  C   UNL     1      -2.000   4.388  25.383  0.00  0.00    +0.110 C 
ATOM     17  C   UNL     1      -1.361   3.901  25.197  0.00  0.00    +0.317 C 
ATOM     18  O   UNL     1      -0.601   4.216  25.151  0.00  0.00    -0.250 OA
ATOM     19  O   UNL     1      -1.483   3.096  25.057  0.00  0.00    -0.449 OA
ATOM     20  C   UNL     1      -2.244   2.780  25.104  0.00  0.00    +0.204 C 
ATOM     21  C   UNL     1      -2.882   3.268  25.290  0.00  0.00    +0.063 C 
ATOM     22  C   UNL     1      -3.643   2.952  25.336  0.00  0.00    +0.097 C 
ATOM     23  C   UNL     1      -4.092  -0.232  24.778  0.00  0.00    +0.015 A 
ATOM     24  C   UNL     1      -3.476  -0.748  24.589  0.00  0.00    +0.048 A 
ATOM     25  C   UNL     1      -2.703  -0.464  24.535  0.00  0.00    +0.018 A 
ATOM     26  C   UNL     1      -2.547   0.335  24.669  0.00  0.00    +0.038 A 
ENDROOT
BRANCH  24  27
ATOM     27  N   UNL     1      -3.633  -1.547  24.456  0.00  0.00    -0.303 N 
ATOM     28  C   UNL     1      -3.297  -2.120  24.944  0.00  0.00    +0.123 C 
ATOM     29  C   UNL     1      -3.454  -2.919  24.811  0.00  0.00    +0.164 C 
ATOM     30  O   UNL     1      -3.947  -3.144  24.189  0.00  0.00    -0.350 OA
ATOM     31  C   UNL     1      -4.283  -2.570  23.700  0.00  0.00    +0.164 C 
ATOM     32  C   UNL     1      -4.126  -1.772  23.834  0.00  0.00    +0.123 C 
ENDBRANCH  24  27
TORSDOF 1
ENDMDL
MODEL 2
REMARK VINA RESULT:     -14.1      1.466      5.396
REMARK  Name = 
REMARK  1 active torsions:
REMARK  status: ('A' for Active; 'I' for Inactive)
REMARK    1  A    between atoms: C_24  and  N_27
REMARK                            x       y       z     vdW  Elec       q    Type
REMARK                         _______ _______ _______ _____ _____    ______ ____
ROOT
ATOM      1  O   UNL     1      -2.490   0.303  24.716  0.00  0.00    -0.215 OA
ATOM      2  C   UNL     1      -3.251   0.159  24.433  0.00  0.00    +0.235 C 
ATOM      3  C   UNL     1      -3.650   0.874  24.329  0.00  0.00    +0.242 C 
ATOM      4  O   UNL     1      -3.140   1.485  24.547  0.00  0.00    -0.473 OA
ATOM      5  C   UNL     1      -2.426   1.147  24.786  0.00  0.00    +0.136 A 
ATOM      6  C   UNL     1      -1.681   1.365  25.067  0.00  0.00    +0.030 A 
ATOM      7  C   UNL     1      -1.026   0.832  25.274  0.00  0.00    +0.119 C 
ATOM      8  N   UNL     1      -1.176   0.027  25.174  0.00  0.00    -0.204 NA
ATOM      9  C   UNL     1      -0.591  -0.526  25.355  0.00  0.00    +0.174 C 
ATOM     10  C   UNL     1      -0.740  -1.331  25.256  0.00  0.00    +0.243 C 
ATOM     11  O   UNL     1      -0.156  -1.885  25.436  0.00  0.00    -0.273 OA
ATOM     12  N   UNL     1      -1.474  -1.584  24.977  0.00  0.00    -0.278 N 
ATOM     13  C   UNL     1      -1.624  -2.389  24.878  0.00  0.00    +0.093 C 
ATOM     14  C   UNL     1      -2.358  -2.642  24.598  0.00  0.00    +0.022 C 
ATOM     15  C   UNL     1      -2.944  -2.088  24.418  0.00  0.00    +0.018 C 
ATOM     16  C   UNL     1      -3.678  -2.340  24.139  0.00  0.00    +0.110 C 
ATOM     17  C   UNL     1      -4.262  -1.787  23.959  0.00  0.00    +0.317 C 
ATOM     18  O   UNL     1      -4.997  -2.038  23.680  0.00  0.00    -0.250 OA
ATOM     19  O   UNL     1      -4.113  -0.981  24.058  0.00  0.00    -0.449 OA
ATOM     20  C   UNL     1      -3.378  -0.729  24.337  0.00  0.00    +0.204 C 
ATOM     21  C   UNL     1      -2.794  -1.282  24.517  0.00  0.00    +0.063 C 
ATOM     22  C   UNL     1      -2.060  -1.031  24.796  0.00  0.00    +0.097 C 
ATOM     23  C   UNL     1      -1.499   2.162  25.177  0.00  0.00    +0.015 A 
ATOM     24  C   UNL     1      -2.061   2.741  25.007  0.00  0.00    +0.048 A 
ATOM     25  C   UNL     1      -2.806   2.523  24.725  0.00  0.00    +0.018 A 
ATOM     26  C   UNL     1      -2.988   1.726  24.615  0.00  0.00    +0.038 A 
ENDROOT
BRANCH  24  27
ATOM     27  N   UNL     1      -1.879   3.538  25.117  0.00  0.00    -0.303 N 
ATOM     28  C   UNL     1      -2.368   4.013  25.581  0.00  0.00    +0.123 C 
ATOM     29  C   UNL     1      -2.187   4.809  25.692  0.00  0.00    +0.164 C 
ATOM     30  O   UNL     1      -1.514   5.132  25.339  0.00  0.00    -0.350 OA
ATOM     31  C   UNL     1      -1.024   4.657  24.875  0.00  0.00    +0.164 C 
ATOM     32  C   UNL     1      -1.207   3.860  24.764  0.00  0.00    +0.123 C 
ENDBRANCH  24  27
TORSDOF 1
ENDMDL
MODEL 3
REMARK VINA RESULT:     -13.7      0.863      2.316
REMARK  Name = 
REMARK  1 active torsions:
REMARK  status: ('A' for Active; 'I' for Inactive)
REMARK    1  A    between atoms: C_24  and  N_27
REMARK                            x       y       z     vdW  Elec       q    Type
REMARK                         _______ _______ _______ _____ _____    ______ ____
ROOT
ATOM      1  O   UNL     1      -3.534   1.517  25.024  0.00  0.00    -0.215 OA
ATOM      2  C   UNL     1      -4.280   1.867  25.078  0.00  0.00    +0.235 C 
ATOM      3  C   UNL     1      -4.865   1.293  24.981  0.00  0.00    +0.242 C 
ATOM      4  O   UNL     1      -4.493   0.566  24.863  0.00  0.00    -0.473 OA
ATOM      5  C   UNL     1      -3.677   0.690  24.887  0.00  0.00    +0.136 A 
ATOM      6  C   UNL     1      -2.967   0.275  24.822  0.00  0.00    +0.030 A 
ATOM      7  C   UNL     1      -2.164   0.603  24.880  0.00  0.00    +0.119 C 
ATOM      8  N   UNL     1      -2.119   1.416  25.014  0.00  0.00    -0.204 NA
ATOM      9  C   UNL     1      -1.384   1.783  25.078  0.00  0.00    +0.174 C 
ATOM     10  C   UNL     1      -1.338   2.596  25.212  0.00  0.00    +0.243 C 
ATOM     11  O   UNL     1      -0.602   2.964  25.276  0.00  0.00    -0.273 OA
ATOM     12  N   UNL     1      -2.029   3.042  25.282  0.00  0.00    -0.278 N 
ATOM     13  C   UNL     1      -1.984   3.855  25.416  0.00  0.00    +0.093 C 
ATOM     14  C   UNL     1      -2.674   4.300  25.486  0.00  0.00    +0.022 C 
ATOM     15  C   UNL     1      -3.411   3.933  25.422  0.00  0.00    +0.018 C 
ATOM     16  C   UNL     1      -4.102   4.379  25.492  0.00  0.00    +0.110 C 
ATOM     17  C   UNL     1      -4.837   4.012  25.428  0.00  0.00    +0.317 C 
ATOM     18  O   UNL     1      -5.528   4.456  25.498  0.00  0.00    -0.250 OA
ATOM     19  O   UNL     1      -4.882   3.198  25.294  0.00  0.00    -0.449 OA
ATOM     20  C   UNL     1      -4.191   2.753  25.224  0.00  0.00    +0.204 C 
ATOM     21  C   UNL     1      -3.456   3.120  25.288  0.00  0.00    +0.063 C 
ATOM     22  C   UNL     1      -2.765   2.675  25.218  0.00  0.00    +0.097 C 
ATOM     23  C   UNL     1      -2.977  -0.539  24.688  0.00  0.00    +0.015 A 
ATOM     24  C   UNL     1      -3.696  -0.937  24.619  0.00  0.00    +0.048 A 
ATOM     25  C   UNL     1      -4.406  -0.521  24.684  0.00  0.00    +0.018 A 
ATOM     26  C   UNL     1      -4.396   0.293  24.818  0.00  0.00    +0.038 A 
ENDROOT
BRANCH  24  27
ATOM     27  N   UNL     1      -3.705  -1.752  24.485  0.00  0.00    -0.303 N 
ATOM     28  C   UNL     1      -4.074  -2.054  23.812  0.00  0.00    +0.123 C 
ATOM     29  C   UNL     1      -4.083  -2.868  23.677  0.00  0.00    +0.164 C 
ATOM     30  O   UNL     1      -3.723  -3.379  24.216  0.00  0.00    -0.350 OA
ATOM     31  C   UNL     1      -3.354  -3.076  24.889  0.00  0.00    +0.164 C 
ATOM     32  C   UNL     1      -3.345  -2.262  25.023  0.00  0.00    +0.123 C 
ENDBRANCH  24  27
TORSDOF 1
ENDMDL
MODEL 4
REMARK VINA RESULT:     -13.0      1.550      4.974
REMARK  Name = 
REMARK  1 active torsions:
REMARK  status: ('A' for Active; 'I' for Inactive)
REMARK    1  A    between atoms: C_24  and  N_27
REMARK                            x       y       z     vdW  Elec       q    Type
REMARK                         _______ _______ _______ _____ _____    ______ ____
ROOT
ATOM      1  O   UNL     1      -1.931   0.518  24.945  0.00  0.00    -0.215 OA
ATOM      2  C   UNL     1      -1.235   0.113  25.121  0.00  0.00    +0.235 C 
ATOM      3  C   UNL     1      -0.636   0.652  25.299  0.00  0.00    +0.242 C 
ATOM      4  O   UNL     1      -0.950   1.413  25.237  0.00  0.00    -0.473 OA
ATOM      5  C   UNL     1      -1.744   1.343  25.020  0.00  0.00    +0.136 A 
ATOM      6  C   UNL     1      -2.403   1.812  24.857  0.00  0.00    +0.030 A 
ATOM      7  C   UNL     1      -3.196   1.536  24.634  0.00  0.00    +0.119 C 
ATOM      8  N   UNL     1      -3.289   0.718  24.585  0.00  0.00    -0.204 NA
ATOM      9  C   UNL     1      -4.020   0.398  24.378  0.00  0.00    +0.174 C 
ATOM     10  C   UNL     1      -4.114  -0.420  24.328  0.00  0.00    +0.243 C 
ATOM     11  O   UNL     1      -4.845  -0.741  24.121  0.00  0.00    -0.273 OA
ATOM     12  N   UNL     1      -3.476  -0.918  24.485  0.00  0.00    -0.278 N 
ATOM     13  C   UNL     1      -3.568  -1.737  24.435  0.00  0.00    +0.093 C 
ATOM     14  C   UNL     1      -2.930  -2.235  24.593  0.00  0.00    +0.022 C 
ATOM     15  C   UNL     1      -2.198  -1.915  24.800  0.00  0.00    +0.018 C 
ATOM     16  C   UNL     1      -1.559  -2.413  24.957  0.00  0.00    +0.110 C 
ATOM     17  C   UNL     1      -0.828  -2.093  25.164  0.00  0.00    +0.317 C 
ATOM     18  O   UNL     1      -0.189  -2.591  25.321  0.00  0.00    -0.250 OA
ATOM     19  O   UNL     1      -0.735  -1.274  25.214  0.00  0.00    -0.449 OA
ATOM     20  C   UNL     1      -1.374  -0.776  25.056  0.00  0.00    +0.204 C 
ATOM     21  C   UNL     1      -2.105  -1.096  24.850  0.00  0.00    +0.063 C 
ATOM     22  C   UNL     1      -2.744  -0.599  24.692  0.00  0.00    +0.097 C 
ATOM     23  C   UNL     1      -2.344   2.634  24.898  0.00  0.00    +0.015 A 
ATOM     24  C   UNL     1      -1.626   2.987  25.102  0.00  0.00    +0.048 A 
ATOM     25  C   UNL     1      -0.967   2.517  25.265  0.00  0.00    +0.018 A 
ATOM     26  C   UNL     1      -1.027   1.696  25.225  0.00  0.00    +0.038 A 
ENDROOT
BRANCH  24  27
ATOM     27  N   UNL     1      -1.568   3.809  25.142  0.00  0.00    -0.303 N 
ATOM     28  C   UNL     1      -0.928   4.194  24.792  0.00  0.00    +0.123 C 
ATOM     29  C   UNL     1      -0.869   5.016  24.832  0.00  0.00    +0.164 C 
ATOM     30  O   UNL     1      -1.450   5.453  25.223  0.00  0.00    -0.350 OA
ATOM     31  C   UNL     1      -2.090   5.067  25.573  0.00  0.00    +0.164 C 
ATOM     32  C   UNL     1      -2.149   4.245  25.532  0.00  0.00    +0.123 C 
ENDBRANCH  24  27
TORSDOF 1
ENDMDL
MODEL 5
REMARK VINA RESULT:     -12.8      1.578      5.180
REMARK  Name = 
REMARK  1 active torsions:
REMARK  status: ('A' for Active; 'I' for Inactive)
REMARK    1  A    between atoms: C_24  and  N_27
REMARK                            x       y       z     vdW  Elec       q    Type
REMARK                         _______ _______ _______ _____ _____    ______ ____
ROOT
ATOM      1  O   UNL     1      -3.252  -0.084  24.726  0.00  0.00    -0.215 OA
ATOM      2  C   UNL     1      -3.824  -0.670  24.632  0.00  0.00    +0.235 C 
ATOM      3  C   UNL     1      -4.576  -0.332  24.654  0.00  0.00    +0.242 C 
ATOM      4  O   UNL     1      -4.488   0.481  24.763  0.00  0.00    -0.473 OA
ATOM      5  C   UNL     1      -3.680   0.645  24.809  0.00  0.00    +0.136 A 
ATOM      6  C   UNL     1      -3.164   1.281  24.908  0.00  0.00    +0.030 A 
ATOM      7  C   UNL     1      -2.296   1.250  24.929  0.00  0.00    +0.119 C 
ATOM      8  N   UNL     1      -1.964   0.500  24.841  0.00  0.00    -0.204 NA
ATOM      9  C   UNL     1      -1.144   0.408  24.853  0.00  0.00    +0.174 C 
ATOM     10  C   UNL     1      -0.811  -0.342  24.765  0.00  0.00    +0.243 C 
ATOM     11  O   UNL     1       0.009  -0.434  24.777  0.00  0.00    -0.273 OA
ATOM     12  N   UNL     1      -1.298  -1.000  24.664  0.00  0.00    -0.278 N 
ATOM     13  C   UNL     1      -0.966  -1.750  24.576  0.00  0.00    +0.093 C 
ATOM     14  C   UNL     1      -1.453  -2.408  24.475  0.00  0.00    +0.022 C 
ATOM     15  C   UNL     1      -2.274  -2.316  24.462  0.00  0.00    +0.018 C 
ATOM     16  C   UNL     1      -2.761  -2.975  24.361  0.00  0.00    +0.110 C 
ATOM     17  C   UNL     1      -3.580  -2.883  24.349  0.00  0.00    +0.317 C 
ATOM     18  O   UNL     1      -4.067  -3.540  24.248  0.00  0.00    -0.250 OA
ATOM     19  O   UNL     1      -3.913  -2.132  24.437  0.00  0.00    -0.449 OA
ATOM     20  C   UNL     1      -3.425  -1.474  24.538  0.00  0.00    +0.204 C 
ATOM     21  C   UNL     1      -2.606  -1.566  24.551  0.00  0.00    +0.063 C 
ATOM     22  C   UNL     1      -2.118  -0.909  24.652  0.00  0.00    +0.097 C 
ATOM     23  C   UNL     1      -3.464   2.044  24.999  0.00  0.00    +0.015 A 
ATOM     24  C   UNL     1      -4.279   2.172  24.991  0.00  0.00    +0.048 A 
ATOM     25  C   UNL     1      -4.795   1.535  24.892  0.00  0.00    +0.018 A 
ATOM     26  C   UNL     1      -4.495   0.772  24.801  0.00  0.00    +0.038 A 
ENDROOT
BRANCH  24  27
ATOM     27  N   UNL     1      -4.578   2.935  25.082  0.00  0.00    -0.303 N 
ATOM     28  C   UNL     1      -5.199   3.074  25.607  0.00  0.00    +0.123 C 
ATOM     29  C   UNL     1      -5.499   3.837  25.699  0.00  0.00    +0.164 C 
ATOM     30  O   UNL     1      -5.177   4.462  25.266  0.00  0.00    -0.350 OA
ATOM     31  C   UNL     1      -4.556   4.322  24.741  0.00  0.00    +0.164 C 
ATOM     32  C   UNL     1      -4.256   3.559  24.650  0.00  0.00    +0.123 C 
ENDBRANCH  24  27
TORSDOF 1
ENDMDL
MODEL 6
REMARK VINA RESULT:     -12.7      1.313      4.830
REMARK  Name = 
REMARK  1 active torsions:
REMARK  status: ('A' for Active; 'I' for Inactive)
REMARK    1  A    between atoms: C_24  and  N_27
REMARK                            x       y       z     vdW  Elec       q    Type
REMARK                         _______ _______ _______ _____ _____    ______ ____
ROOT
ATOM      1  O   UNL     1      -2.740  -0.077  24.780  0.00  0.00    -0.215 OA
ATOM      2  C   UNL     1      -1.951  -0.083  25.023  0.00  0.00    +0.235 C 
ATOM      3  C   UNL     1      -1.718   0.680  25.232  0.00  0.00    +0.242 C 
ATOM      4  O   UNL     1      -2.362   1.184  25.122  0.00  0.00    -0.473 OA
ATOM      5  C   UNL     1      -2.995   0.731  24.846  0.00  0.00    +0.136 A 
ATOM      6  C   UNL     1      -3.783   0.811  24.616  0.00  0.00    +0.030 A 
ATOM      7  C   UNL     1      -4.312   0.179  24.340  0.00  0.00    +0.119 C 
ATOM      8  N   UNL     1      -3.981  -0.575  24.307  0.00  0.00    -0.204 NA
ATOM      9  C   UNL     1      -4.435  -1.214  24.053  0.00  0.00    +0.174 C 
ATOM     10  C   UNL     1      -4.105  -1.969  24.020  0.00  0.00    +0.243 C 
ATOM     11  O   UNL     1      -4.559  -2.609  23.765  0.00  0.00    -0.273 OA
ATOM     12  N   UNL     1      -3.319  -2.085  24.242  0.00  0.00    -0.278 N 
ATOM     13  C   UNL     1      -2.987  -2.840  24.210  0.00  0.00    +0.093 C 
ATOM     14  C   UNL     1      -2.202  -2.956  24.433  0.00  0.00    +0.022 C 
ATOM     15  C   UNL     1      -1.746  -2.316  24.688  0.00  0.00    +0.018 C 
ATOM     16  C   UNL     1      -0.960  -2.432  24.910  0.00  0.00    +0.110 C 
ATOM     17  C   UNL     1      -0.506  -1.793  25.165  0.00  0.00    +0.317 C 
ATOM     18  O   UNL     1       0.280  -1.908  25.388  0.00  0.00    -0.250 OA
ATOM     19  O   UNL     1      -0.837  -1.037  25.198  0.00  0.00    -0.449 OA
ATOM     20  C   UNL     1      -1.623  -0.922  24.975  0.00  0.00    +0.204 C 
ATOM     21  C   UNL     1      -2.078  -1.561  24.720  0.00  0.00    +0.063 C 
ATOM     22  C   UNL     1      -2.863  -1.446  24.498  0.00  0.00    +0.097 C 
ATOM     23  C   UNL     1      -4.145   1.552  24.637  0.00  0.00    +0.015 A 
ATOM     24  C   UNL     1      -3.718   2.213  24.887  0.00  0.00    +0.048 A 
ATOM     25  C   UNL     1      -2.929   2.132  25.116  0.00  0.00    +0.018 A 
ATOM     26  C   UNL     1      -2.568   1.391  25.096  0.00  0.00    +0.038 A 
ENDROOT
BRANCH  24  27
ATOM     27  N   UNL     1      -4.081   2.954  24.907  0.00  0.00    -0.303 N 
ATOM     28  C   UNL     1      -3.868   3.531  24.357  0.00  0.00    +0.123 C 
ATOM     29  C   UNL     1      -4.230   4.273  24.377  0.00  0.00    +0.164 C 
ATOM     30  O   UNL     1      -4.804   4.436  24.946  0.00  0.00    -0.350 OA
ATOM     31  C   UNL     1      -5.017   3.858  25.496  0.00  0.00    +0.164 C 
ATOM     32  C   UNL     1      -4.654   3.117  25.476  0.00  0.00    +0.123 C 
ENDBRANCH  24  27
TORSDOF 1
ENDMDL
MODEL 7
REMARK VINA RESULT:     -12.6      1.748      3.234
REMARK  Name = 
REMARK  1 active torsions:
REMARK  status: ('A' for Active; 'I' for Inactive)
REMARK    1  A    between atoms: C_24  and  N_27
REMARK                            x       y       z     vdW  Elec       q    Type
REMARK                         _______ _______ _______ _____ _____    ______ ____
ROOT
ATOM      1  O   UNL     1      -3.166   1.750  24.806  0.00  0.00    -0.215 OA
ATOM      2  C   UNL     1      -3.858   1.333  24.641  0.00  0.00    +0.235 C 
ATOM      3  C   UNL     1      -3.671   0.604  24.304  0.00  0.00    +0.242 C 
ATOM      4  O   UNL     1      -2.849   0.550  24.251  0.00  0.00    -0.473 OA
ATOM      5  C   UNL     1      -2.529   1.247  24.556  0.00  0.00    +0.136 A 
ATOM      6  C   UNL     1      -1.798   1.606  24.693  0.00  0.00    +0.030 A 
ATOM      7  C   UNL     1      -1.660   2.389  25.044  0.00  0.00    +0.119 C 
ATOM      8  N   UNL     1      -2.336   2.809  25.258  0.00  0.00    -0.204 NA
ATOM      9  C   UNL     1      -2.267   3.558  25.595  0.00  0.00    +0.174 C 
ATOM     10  C   UNL     1      -2.943   3.979  25.809  0.00  0.00    +0.243 C 
ATOM     11  O   UNL     1      -2.874   4.729  26.147  0.00  0.00    -0.273 OA
ATOM     12  N   UNL     1      -3.689   3.651  25.686  0.00  0.00    -0.278 N 
ATOM     13  C   UNL     1      -4.366   4.071  25.900  0.00  0.00    +0.093 C 
ATOM     14  C   UNL     1      -5.113   3.742  25.777  0.00  0.00    +0.022 C 
ATOM     15  C   UNL     1      -5.183   2.992  25.439  0.00  0.00    +0.018 C 
ATOM     16  C   UNL     1      -5.930   2.663  25.316  0.00  0.00    +0.110 C 
ATOM     17  C   UNL     1      -5.999   1.914  24.979  0.00  0.00    +0.317 C 
ATOM     18  O   UNL     1      -6.745   1.585  24.856  0.00  0.00    -0.250 OA
ATOM     19  O   UNL     1      -5.322   1.493  24.765  0.00  0.00    -0.449 OA
ATOM     20  C   UNL     1      -4.576   1.822  24.888  0.00  0.00    +0.204 C 
ATOM     21  C   UNL     1      -4.506   2.572  25.225  0.00  0.00    +0.063 C 
ATOM     22  C   UNL     1      -3.760   2.901  25.349  0.00  0.00    +0.097 C 
ATOM     23  C   UNL     1      -1.102   1.212  24.491  0.00  0.00    +0.015 A 
ATOM     24  C   UNL     1      -1.136   0.461  24.151  0.00  0.00    +0.048 A 
ATOM     25  C   UNL     1      -1.867   0.103  24.014  0.00  0.00    +0.018 A 
ATOM     26  C   UNL     1      -2.563   0.496  24.217  0.00  0.00    +0.038 A 
ENDROOT
BRANCH  24  27
ATOM     27  N   UNL     1      -0.439   0.068  23.949  0.00  0.00    -0.303 N 
ATOM     28  C   UNL     1       0.070   0.395  23.389  0.00  0.00    +0.123 C 
ATOM     29  C   UNL     1       0.767   0.003  23.186  0.00  0.00    +0.164 C 
ATOM     30  O   UNL     1       0.954  -0.717  23.543  0.00  0.00    -0.350 OA
ATOM     31  C   UNL     1       0.444  -1.045  24.103  0.00  0.00    +0.164 C 
ATOM     32  C   UNL     1      -0.253  -0.652  24.306  0.00  0.00    +0.123 C 
ENDBRANCH  24  27
TORSDOF 1
ENDMDL
MODEL 8
REMARK VINA RESULT:     -11.4      2.815      4.671
REMARK  Name = 
REMARK  1 active torsions:
REMARK  status: ('A' for Active; 'I' for Inactive)
REMARK    1  A    between atoms: C_24  and  N_27
REMARK                            x       y       z     vdW  Elec       q    Type
REMARK                         _______ _______ _______ _____ _____    ______ ____
ROOT
ATOM      1  O   UNL     1      -1.426   0.019  24.217  0.00  0.00    -0.215 OA
ATOM      2  C   UNL     1      -1.568  -0.724  24.547  0.00  0.00    +0.235 C 
ATOM      3  C   UNL     1      -0.892  -1.192  24.479  0.00  0.00    +0.242 C 
ATOM      4  O   UNL     1      -0.309  -0.746  24.102  0.00  0.00    -0.473 OA
ATOM      5  C   UNL     1      -0.625  -0.002  23.937  0.00  0.00    +0.136 A 
ATOM      6  C   UNL     1      -0.413   0.717  23.592  0.00  0.00    +0.030 A 
ATOM      7  C   UNL     1      -0.915   1.422  23.508  0.00  0.00    +0.119 C 
ATOM      8  N   UNL     1      -1.680   1.354  23.809  0.00  0.00    -0.204 NA
ATOM      9  C   UNL     1      -2.201   1.991  23.758  0.00  0.00    +0.174 C 
ATOM     10  C   UNL     1      -2.966   1.924  24.059  0.00  0.00    +0.243 C 
ATOM     11  O   UNL     1      -3.488   2.562  24.008  0.00  0.00    -0.273 OA
ATOM     12  N   UNL     1      -3.210   1.219  24.411  0.00  0.00    -0.278 N 
ATOM     13  C   UNL     1      -3.975   1.151  24.712  0.00  0.00    +0.093 C 
ATOM     14  C   UNL     1      -4.220   0.446  25.064  0.00  0.00    +0.022 C 
ATOM     15  C   UNL     1      -3.698  -0.192  25.115  0.00  0.00    +0.018 C 
ATOM     16  C   UNL     1      -3.942  -0.897  25.467  0.00  0.00    +0.110 C 
ATOM     17  C   UNL     1      -3.421  -1.534  25.517  0.00  0.00    +0.317 C 
ATOM     18  O   UNL     1      -3.665  -2.239  25.869  0.00  0.00    -0.250 OA
ATOM     19  O   UNL     1      -2.655  -1.466  25.216  0.00  0.00    -0.449 OA
ATOM     20  C   UNL     1      -2.412  -0.761  24.865  0.00  0.00    +0.204 C 
ATOM     21  C   UNL     1      -2.933  -0.124  24.814  0.00  0.00    +0.063 C 
ATOM     22  C   UNL     1      -2.689   0.581  24.462  0.00  0.00    +0.097 C 
ATOM     23  C   UNL     1       0.344   0.818  23.281  0.00  0.00    +0.015 A 
ATOM     24  C   UNL     1       0.890   0.200  23.315  0.00  0.00    +0.048 A 
ATOM     25  C   UNL     1       0.678  -0.519  23.661  0.00  0.00    +0.018 A 
ATOM     26  C   UNL     1      -0.079  -0.619  23.971  0.00  0.00    +0.038 A 
ENDROOT
BRANCH  24  27
ATOM     27  N   UNL     1       1.648   0.302  23.005  0.00  0.00    -0.303 N 
ATOM     28  C   UNL     1       1.876  -0.116  22.331  0.00  0.00    +0.123 C 
ATOM     29  C   UNL     1       2.633  -0.015  22.020  0.00  0.00    +0.164 C 
ATOM     30  O   UNL     1       3.163   0.505  22.382  0.00  0.00    -0.350 OA
ATOM     31  C   UNL     1       2.934   0.923  23.056  0.00  0.00    +0.164 C 
ATOM     32  C   UNL     1       2.176   0.821  23.367  0.00  0.00    +0.123 C 
ENDBRANCH  24  27
TORSDOF 1
ENDMDL
MODEL 9
REMARK VINA RESULT:     -11.1      2.596      4.644
REMARK  Name = 
REMARK  1 active torsions:
REMARK  status: ('A' for Active; 'I' for Inactive)
REMARK    1  A    between atoms: C_24  and  N_27
REMARK                            x       y       z     vdW  Elec       q    Type
REMARK                         _______ _______ _______ _____ _____    ______ ____
ROOT
ATOM      1  O   UNL     1      -1.667   0.312  24.227  0.00  0.00    -0.215 OA
ATOM      2  C   UNL     1      -2.025   1.055  24.199  0.00  0.00    +0.235 C 
ATOM      3  C   UNL     1      -1.498   1.607  23.885  0.00  0.00    +0.242 C 
ATOM      4  O   UNL     1      -0.793   1.216  23.711  0.00  0.00    -0.473 OA
ATOM      5  C   UNL     1      -0.884   0.422  23.916  0.00  0.00    +0.136 A 
ATOM      6  C   UNL     1      -0.465  -0.289  23.915  0.00  0.00    +0.030 A 
ATOM      7  C   UNL     1      -0.750  -1.063  24.188  0.00  0.00    +0.119 C 
ATOM      8  N   UNL     1      -1.524  -1.077  24.475  0.00  0.00    -0.204 NA
ATOM      9  C   UNL     1      -1.849  -1.784  24.748  0.00  0.00    +0.174 C 
ATOM     10  C   UNL     1      -2.622  -1.799  25.035  0.00  0.00    +0.243 C 
ATOM     11  O   UNL     1      -2.948  -2.507  25.308  0.00  0.00    -0.273 OA
ATOM     12  N   UNL     1      -3.070  -1.107  25.050  0.00  0.00    -0.278 N 
ATOM     13  C   UNL     1      -3.843  -1.121  25.338  0.00  0.00    +0.093 C 
ATOM     14  C   UNL     1      -4.291  -0.429  25.353  0.00  0.00    +0.022 C 
ATOM     15  C   UNL     1      -3.966   0.279  25.080  0.00  0.00    +0.018 C 
ATOM     16  C   UNL     1      -4.414   0.972  25.095  0.00  0.00    +0.110 C 
ATOM     17  C   UNL     1      -4.088   1.679  24.822  0.00  0.00    +0.317 C 
ATOM     18  O   UNL     1      -4.536   2.372  24.837  0.00  0.00    -0.250 OA
ATOM     19  O   UNL     1      -3.314   1.694  24.534  0.00  0.00    -0.449 OA
ATOM     20  C   UNL     1      -2.867   1.001  24.520  0.00  0.00    +0.204 C 
ATOM     21  C   UNL     1      -3.192   0.294  24.792  0.00  0.00    +0.063 C 
ATOM     22  C   UNL     1      -2.745  -0.399  24.778  0.00  0.00    +0.097 C 
ATOM     23  C   UNL     1       0.311  -0.308  23.635  0.00  0.00    +0.015 A 
ATOM     24  C   UNL     1       0.667   0.381  23.355  0.00  0.00    +0.048 A 
ATOM     25  C   UNL     1       0.246   1.092  23.356  0.00  0.00    +0.018 A 
ATOM     26  C   UNL     1      -0.529   1.112  23.636  0.00  0.00    +0.038 A 
ENDROOT
BRANCH  24  27
ATOM     27  N   UNL     1       1.442   0.361  23.074  0.00  0.00    -0.303 N 
ATOM     28  C   UNL     1       1.629  -0.098  22.415  0.00  0.00    +0.123 C 
ATOM     29  C   UNL     1       2.405  -0.120  22.134  0.00  0.00    +0.164 C 
ATOM     30  O   UNL     1       2.993   0.318  22.512  0.00  0.00    -0.350 OA
ATOM     31  C   UNL     1       2.805   0.777  23.172  0.00  0.00    +0.164 C 
ATOM     32  C   UNL     1       2.030   0.798  23.452  0.00  0.00    +0.123 C 
ENDBRANCH  24  27
TORSDOF 1
ENDMDL
