MODEL 1
REMARK VINA RESULT:     -13.1      0.000      0.000
REMARK  Name = 
REMARK  7 active torsions:
REMARK  status: ('A' for Active; 'I' for Inactive)
REMARK    1  A    between atoms: C_5  and  N_8
REMARK    2  A    between atoms: C_14  and  C_16
REMARK    3  A    between atoms: C_16  and  C_17
REMARK    4  A    between atoms: C_22  and  C_23
REMARK    5  A    between atoms: C_23  and  C_24
REMARK    6  A    between atoms: C_27  and  C_28
REMARK    7  A    between atoms: C_28  and  N_29
REMARK                            x       y       z     vdW  Elec       q    Type
REMARK                         _______ _______ _______ _____ _____    ______ ____
ROOT
ATOM     17  C   UNL     1      -0.838   2.648  25.077  0.00  0.00    +0.012 C 
ATOM     18  C   UNL     1      -0.279   2.729  24.476  0.00  0.00    +0.019 C 
ATOM     19  C   UNL     1      -0.087   3.479  24.191  0.00  0.00    +0.089 C 
ATOM     20  N   UNL     1      -0.454   4.147  24.507  0.00  0.00    -0.218 NA
ATOM     21  C   UNL     1      -1.013   4.065  25.107  0.00  0.00    +0.089 C 
ATOM     22  C   UNL     1      -1.205   3.316  25.393  0.00  0.00    +0.024 C 
ENDROOT
BRANCH  17  16
ATOM     16  C   UNL     1      -1.030   1.898  25.362  0.00  0.00    +0.085 C 
BRANCH  16  14
ATOM      8  N   UNL     1      -2.110  -0.794  24.702  0.00  0.00    -0.304 N 
ATOM      9  C   UNL     1      -1.326  -0.793  24.444  0.00  0.00    +0.112 C 
ATOM     10  C   UNL     1      -0.861  -0.119  24.545  0.00  0.00    +0.115 C 
ATOM     11  N   UNL     1      -1.178   0.553  24.904  0.00  0.00    -0.276 N 
ATOM     12  C   UNL     1      -1.962   0.551  25.161  0.00  0.00    +0.115 C 
ATOM     13  C   UNL     1      -2.428  -0.123  25.061  0.00  0.00    +0.112 C 
ATOM     14  C   UNL     1      -0.712   1.226  25.004  0.00  0.00    +0.226 C 
ATOM     15  O   UNL     1       0.071   1.228  24.746  0.00  0.00    -0.275 OA
BRANCH   8   5
ATOM      1  F   UNL     1      -3.973  -3.488  24.298  0.00  0.00    -0.204 F 
ATOM      2  C   UNL     1      -3.507  -2.815  24.399  0.00  0.00    +0.140 A 
ATOM      3  C   UNL     1      -2.720  -2.889  24.634  0.00  0.00    +0.031 A 
ATOM      4  C   UNL     1      -2.254  -2.216  24.735  0.00  0.00    +0.017 A 
ATOM      5  C   UNL     1      -2.575  -1.468  24.601  0.00  0.00    +0.048 A 
ATOM      6  C   UNL     1      -3.363  -1.393  24.367  0.00  0.00    +0.017 A 
ATOM      7  C   UNL     1      -3.828  -2.067  24.266  0.00  0.00    +0.031 A 
ENDBRANCH   8   5
ENDBRANCH  16  14
ENDBRANCH  17  16
BRANCH  22  23
ATOM     23  C   UNL     1      -1.764   3.234  25.994  0.00  0.00    +0.051 C 
BRANCH  23  24
ATOM     24  C   UNL     1      -2.504   3.590  25.920  0.00  0.00    +0.100 A 
ATOM     25  N   UNL     1      -2.769   4.249  26.339  0.00  0.00    -0.082 NA
ATOM     26  O   UNL     1      -3.539   4.417  26.092  0.00  0.00    -0.357 OA
ATOM     27  C   UNL     1      -3.749   3.861  25.520  0.00  0.00    +0.170 A 
ATOM     35  C   UNL     1      -3.110   3.350  25.413  0.00  0.00    +0.055 A 
BRANCH  27  28
ATOM     28  C   UNL     1      -4.471   3.823  25.123  0.00  0.00    +0.140 C 
BRANCH  28  29
ATOM     29  N   UNL     1      -4.951   3.157  25.203  0.00  0.00    -0.266 NA
ATOM     30  C   UNL     1      -4.947   2.573  24.621  0.00  0.00    +0.072 C 
ATOM     31  C   UNL     1      -5.427   1.906  24.701  0.00  0.00    +0.017 C 
ATOM     32  C   UNL     1      -5.911   1.825  25.364  0.00  0.00    +0.003 C 
ATOM     33  C   UNL     1      -5.915   2.408  25.946  0.00  0.00    +0.017 C 
ATOM     34  C   UNL     1      -5.436   3.074  25.866  0.00  0.00    +0.072 C 
ENDBRANCH  28  29
ENDBRANCH  27  28
ENDBRANCH  23  24
ENDBRANCH  22  23
TORSDOF 7
ENDMDL
MODEL 2
REMARK VINA RESULT:     -12.6      1.262      3.593
REMARK  Name = 
REMARK  7 active torsions:
REMARK  status: ('A' for Active; 'I' for Inactive)
REMARK    1  A    between atoms: C_5  and  N_8
REMARK    2  A    between atoms: C_14  and  C_16
REMARK    3  A    between atoms: C_16  and  C_17
REMARK    4  A    between atoms: C_22  and  C_23
REMARK    5  A    between atoms: C_23  and  C_24
REMARK    6  A    between atoms: C_27  and  C_28
REMARK    7  A    between atoms: C_28  and  N_29
REMARK                            x       y       z     vdW  Elec       q    Type
REMARK                         _______ _______ _______ _____ _____    ______ ____
ROOT
ATOM     17  C   UNL     1      -4.839   2.673  25.099  0.00  0.00    +0.012 C 
ATOM     18  C   UNL     1      -5.499   2.491  25.560  0.00  0.00    +0.019 C 
ATOM     19  C   UNL     1      -5.883   3.087  25.983  0.00  0.00    +0.089 C 
ATOM     20  N   UNL     1      -5.607   3.864  25.944  0.00  0.00    -0.218 NA
ATOM     21  C   UNL     1      -4.948   4.045  25.484  0.00  0.00    +0.089 C 
ATOM     22  C   UNL     1      -4.563   3.450  25.061  0.00  0.00    +0.024 C 
ENDROOT
BRANCH  17  16
ATOM     16  C   UNL     1      -4.455   2.077  24.677  0.00  0.00    +0.085 C 
BRANCH  16  14
ATOM      8  N   UNL     1      -3.283  -0.656  24.613  0.00  0.00    -0.304 N 
ATOM      9  C   UNL     1      -4.102  -0.758  24.598  0.00  0.00    +0.112 C 
ATOM     10  C   UNL     1      -4.599  -0.100  24.611  0.00  0.00    +0.115 C 
ATOM     11  N   UNL     1      -4.278   0.660  24.638  0.00  0.00    -0.276 N 
ATOM     12  C   UNL     1      -3.460   0.761  24.652  0.00  0.00    +0.115 C 
ATOM     13  C   UNL     1      -2.962   0.104  24.639  0.00  0.00    +0.112 C 
ATOM     14  C   UNL     1      -4.776   1.318  24.650  0.00  0.00    +0.226 C 
ATOM     15  O   UNL     1      -5.594   1.216  24.636  0.00  0.00    -0.275 OA
BRANCH   8   5
ATOM      1  F   UNL     1      -1.292  -3.287  24.563  0.00  0.00    -0.204 F 
ATOM      2  C   UNL     1      -1.790  -2.630  24.575  0.00  0.00    +0.140 A 
ATOM      3  C   UNL     1      -2.606  -2.729  24.517  0.00  0.00    +0.031 A 
ATOM      4  C   UNL     1      -3.105  -2.071  24.529  0.00  0.00    +0.017 A 
ATOM      5  C   UNL     1      -2.786  -1.314  24.600  0.00  0.00    +0.048 A 
ATOM      6  C   UNL     1      -1.968  -1.214  24.659  0.00  0.00    +0.017 A 
ATOM      7  C   UNL     1      -1.471  -1.872  24.647  0.00  0.00    +0.031 A 
ENDBRANCH   8   5
ENDBRANCH  16  14
ENDBRANCH  17  16
BRANCH  22  23
ATOM     23  C   UNL     1      -3.904   3.630  24.600  0.00  0.00    +0.051 C 
BRANCH  23  24
ATOM     24  C   UNL     1      -3.208   3.891  24.960  0.00  0.00    +0.100 A 
ATOM     25  N   UNL     1      -3.157   4.322  25.661  0.00  0.00    -0.082 NA
ATOM     26  O   UNL     1      -2.359   4.463  25.816  0.00  0.00    -0.357 OA
ATOM     27  C   UNL     1      -1.917   4.119  25.210  0.00  0.00    +0.170 A 
ATOM     35  C   UNL     1      -2.442   3.765  24.680  0.00  0.00    +0.055 A 
BRANCH  27  28
ATOM     28  C   UNL     1      -1.095   4.127  25.144  0.00  0.00    +0.140 C 
BRANCH  28  29
ATOM     29  N   UNL     1      -0.668   3.425  25.213  0.00  0.00    -0.266 NA
ATOM     30  C   UNL     1      -0.517   3.105  25.958  0.00  0.00    +0.072 C 
ATOM     31  C   UNL     1      -0.090   2.402  26.026  0.00  0.00    +0.017 C 
ATOM     32  C   UNL     1       0.186   2.019  25.349  0.00  0.00    +0.003 C 
ATOM     33  C   UNL     1       0.034   2.339  24.604  0.00  0.00    +0.017 C 
ATOM     34  C   UNL     1      -0.392   3.042  24.536  0.00  0.00    +0.072 C 
ENDBRANCH  28  29
ENDBRANCH  27  28
ENDBRANCH  23  24
ENDBRANCH  22  23
TORSDOF 7
ENDMDL
MODEL 3
REMARK VINA RESULT:     -11.7      1.938      4.843
REMARK  Name = 
REMARK  7 active torsions:
REMARK  status: ('A' for Active; 'I' for Inactive)
REMARK    1  A    between atoms: C_5  and  N_8
REMARK    2  A    between atoms: C_14  and  C_16
REMARK    3  A    between atoms: C_16  and  C_17
REMARK    4  A    between atoms: C_22  and  C_23
REMARK    5  A    between atoms: C_23  and  C_24
REMARK    6  A    between atoms: C_27  and  C_28
REMARK    7  A    between atoms: C_28  and  N_29
REMARK                            x       y       z     vdW  Elec       q    Type
REMARK                         _______ _______ _______ _____ _____    ______ ____
ROOT
ATOM     17  C   UNL     1      -0.309   0.589  24.270  0.00  0.00    +0.012 C 
ATOM     18  C   UNL     1       0.016   0.916  23.585  0.00  0.00    +0.019 C 
ATOM     19  C   UNL     1       0.472   0.447  23.082  0.00  0.00    +0.089 C 
ATOM     20  N   UNL     1       0.604  -0.347  23.263  0.00  0.00    -0.218 NA
ATOM     21  C   UNL     1       0.279  -0.672  23.947  0.00  0.00    +0.089 C 
ATOM     22  C   UNL     1      -0.178  -0.205  24.451  0.00  0.00    +0.024 C 
ENDROOT
BRANCH  17  16
ATOM     16  C   UNL     1      -0.766   1.058  24.772  0.00  0.00    +0.085 C 
BRANCH  16  14
ATOM      8  N   UNL     1      -3.142   2.829  25.031  0.00  0.00    -0.304 N 
ATOM      9  C   UNL     1      -2.549   3.290  24.688  0.00  0.00    +0.112 C 
ATOM     10  C   UNL     1      -1.807   2.961  24.538  0.00  0.00    +0.115 C 
ATOM     11  N   UNL     1      -1.658   2.173  24.730  0.00  0.00    -0.276 N 
ATOM     12  C   UNL     1      -2.250   1.713  25.073  0.00  0.00    +0.115 C 
ATOM     13  C   UNL     1      -2.992   2.041  25.224  0.00  0.00    +0.112 C 
ATOM     14  C   UNL     1      -0.915   1.846  24.580  0.00  0.00    +0.226 C 
ATOM     15  O   UNL     1      -0.323   2.306  24.237  0.00  0.00    -0.275 OA
BRANCH   8   5
ATOM      1  F   UNL     1      -6.111   4.140  25.630  0.00  0.00    -0.204 F 
ATOM      2  C   UNL     1      -5.368   3.812  25.481  0.00  0.00    +0.140 A 
ATOM      3  C   UNL     1      -4.688   4.189  25.755  0.00  0.00    +0.031 A 
ATOM      4  C   UNL     1      -3.945   3.862  25.605  0.00  0.00    +0.017 A 
ATOM      5  C   UNL     1      -3.884   3.157  25.181  0.00  0.00    +0.048 A 
ATOM      6  C   UNL     1      -4.565   2.779  24.906  0.00  0.00    +0.017 A 
ATOM      7  C   UNL     1      -5.306   3.108  25.056  0.00  0.00    +0.031 A 
ENDBRANCH   8   5
ENDBRANCH  16  14
ENDBRANCH  17  16
BRANCH  22  23
ATOM     23  C   UNL     1      -0.503  -0.530  25.135  0.00  0.00    +0.051 C 
BRANCH  23  24
ATOM     24  C   UNL     1      -0.964  -1.213  25.088  0.00  0.00    +0.100 A 
ATOM     25  N   UNL     1      -0.711  -1.951  24.821  0.00  0.00    -0.082 NA
ATOM     26  O   UNL     1      -1.350  -2.472  24.868  0.00  0.00    -0.357 OA
ATOM     27  C   UNL     1      -1.997  -2.055  25.164  0.00  0.00    +0.170 A 
ATOM     35  C   UNL     1      -1.759  -1.277  25.301  0.00  0.00    +0.055 A 
BRANCH  27  28
ATOM     28  C   UNL     1      -2.750  -2.363  25.301  0.00  0.00    +0.140 C 
BRANCH  28  29
ATOM     29  N   UNL     1      -3.352  -2.240  24.751  0.00  0.00    -0.266 NA
ATOM     30  C   UNL     1      -3.762  -1.525  24.739  0.00  0.00    +0.072 C 
ATOM     31  C   UNL     1      -4.364  -1.402  24.189  0.00  0.00    +0.017 C 
ATOM     32  C   UNL     1      -4.556  -1.996  23.649  0.00  0.00    +0.003 C 
ATOM     33  C   UNL     1      -4.146  -2.712  23.660  0.00  0.00    +0.017 C 
ATOM     34  C   UNL     1      -3.544  -2.834  24.210  0.00  0.00    +0.072 C 
ENDBRANCH  28  29
ENDBRANCH  27  28
ENDBRANCH  23  24
ENDBRANCH  22  23
TORSDOF 7
ENDMDL
MODEL 4
REMARK VINA RESULT:     -11.7      1.374      3.521
REMARK  Name = 
REMARK  7 active torsions:
REMARK  status: ('A' for Active; 'I' for Inactive)
REMARK    1  A    between atoms: C_5  and  N_8
REMARK    2  A    between atoms: C_14  and  C_16
REMARK    3  A    between atoms: C_16  and  C_17
REMARK    4  A    between atoms: C_22  and  C_23
REMARK    5  A    between atoms: C_23  and  C_24
REMARK    6  A    between atoms: C_27  and  C_28
REMARK    7  A    between atoms: C_28  and  N_29
REMARK                            x       y       z     vdW  Elec       q    Type
REMARK                         _______ _______ _______ _____ _____    ______ ____
ROOT
ATOM     17  C   UNL     1      -3.799   3.179  24.878  0.00  0.00    +0.012 C 
ATOM     18  C   UNL     1      -4.285   3.359  24.236  0.00  0.00    +0.019 C 
ATOM     19  C   UNL     1      -4.218   4.090  23.861  0.00  0.00    +0.089 C 
ATOM     20  N   UNL     1      -3.666   4.642  24.127  0.00  0.00    -0.218 NA
ATOM     21  C   UNL     1      -3.180   4.463  24.768  0.00  0.00    +0.089 C 
ATOM     22  C   UNL     1      -3.246   3.731  25.145  0.00  0.00    +0.024 C 
ENDROOT
BRANCH  17  16
ATOM     16  C   UNL     1      -3.866   2.448  25.254  0.00  0.00    +0.085 C 
BRANCH  16  14
ATOM      8  N   UNL     1      -4.100  -0.470  24.726  0.00  0.00    -0.304 N 
ATOM      9  C   UNL     1      -4.864  -0.164  24.663  0.00  0.00    +0.112 C 
ATOM     10  C   UNL     1      -4.996   0.642  24.780  0.00  0.00    +0.115 C 
ATOM     11  N   UNL     1      -4.364   1.142  24.959  0.00  0.00    -0.276 N 
ATOM     12  C   UNL     1      -3.601   0.836  25.021  0.00  0.00    +0.115 C 
ATOM     13  C   UNL     1      -3.468   0.030  24.905  0.00  0.00    +0.112 C 
ATOM     14  C   UNL     1      -4.497   1.948  25.075  0.00  0.00    +0.226 C 
ATOM     15  O   UNL     1      -5.260   2.254  25.012  0.00  0.00    -0.275 OA
BRANCH   8   5
ATOM      1  F   UNL     1      -3.573  -3.695  24.263  0.00  0.00    -0.204 F 
ATOM      2  C   UNL     1      -3.705  -2.888  24.378  0.00  0.00    +0.140 A 
ATOM      3  C   UNL     1      -4.123  -2.454  23.816  0.00  0.00    +0.031 A 
ATOM      4  C   UNL     1      -4.255  -1.648  23.931  0.00  0.00    +0.017 A 
ATOM      5  C   UNL     1      -3.968  -1.276  24.610  0.00  0.00    +0.048 A 
ATOM      6  C   UNL     1      -3.550  -1.711  25.173  0.00  0.00    +0.017 A 
ATOM      7  C   UNL     1      -3.419  -2.517  25.057  0.00  0.00    +0.031 A 
ENDBRANCH   8   5
ENDBRANCH  16  14
ENDBRANCH  17  16
BRANCH  22  23
ATOM     23  C   UNL     1      -2.761   3.552  25.786  0.00  0.00    +0.051 C 
BRANCH  23  24
ATOM     24  C   UNL     1      -1.941   3.549  25.695  0.00  0.00    +0.100 A 
ATOM     25  N   UNL     1      -1.471   4.201  25.510  0.00  0.00    -0.082 NA
ATOM     26  O   UNL     1      -0.686   3.948  25.473  0.00  0.00    -0.357 OA
ATOM     27  C   UNL     1      -0.671   3.140  25.635  0.00  0.00    +0.170 A 
ATOM     35  C   UNL     1      -1.447   2.892  25.772  0.00  0.00    +0.055 A 
BRANCH  27  28
ATOM     28  C   UNL     1       0.001   2.662  25.656  0.00  0.00    +0.140 C 
BRANCH  28  29
ATOM     29  N   UNL     1       0.112   2.080  25.083  0.00  0.00    -0.266 NA
ATOM     30  C   UNL     1      -0.161   1.313  25.215  0.00  0.00    +0.072 C 
ATOM     31  C   UNL     1      -0.049   0.730  24.640  0.00  0.00    +0.017 C 
ATOM     32  C   UNL     1       0.334   0.916  23.934  0.00  0.00    +0.003 C 
ATOM     33  C   UNL     1       0.607   1.684  23.802  0.00  0.00    +0.017 C 
ATOM     34  C   UNL     1       0.496   2.265  24.376  0.00  0.00    +0.072 C 
ENDBRANCH  28  29
ENDBRANCH  27  28
ENDBRANCH  23  24
ENDBRANCH  22  23
TORSDOF 7
ENDMDL
MODEL 5
REMARK VINA RESULT:     -11.6      2.949      6.188
REMARK  Name = 
REMARK  7 active torsions:
REMARK  status: ('A' for Active; 'I' for Inactive)
REMARK    1  A    between atoms: C_5  and  N_8
REMARK    2  A    between atoms: C_14  and  C_16
REMARK    3  A    between atoms: C_16  and  C_17
REMARK    4  A    between atoms: C_22  and  C_23
REMARK    5  A    between atoms: C_23  and  C_24
REMARK    6  A    between atoms: C_27  and  C_28
REMARK    7  A    between atoms: C_28  and  N_29
REMARK                            x       y       z     vdW  Elec       q    Type
REMARK                         _______ _______ _______ _____ _____    ______ ____
ROOT
ATOM     17  C   UNL     1      -1.150  -0.481  24.616  0.00  0.00    +0.012 C 
ATOM     18  C   UNL     1      -1.301  -0.979  25.256  0.00  0.00    +0.019 C 
ATOM     19  C   UNL     1      -0.751  -1.556  25.468  0.00  0.00    +0.089 C 
ATOM     20  N   UNL     1      -0.049  -1.634  25.041  0.00  0.00    -0.218 NA
ATOM     21  C   UNL     1       0.102  -1.136  24.402  0.00  0.00    +0.089 C 
ATOM     22  C   UNL     1      -0.448  -0.559  24.189  0.00  0.00    +0.024 C 
ENDROOT
BRANCH  17  16
ATOM     16  C   UNL     1      -1.700   0.096  24.404  0.00  0.00    +0.085 C 
BRANCH  16  14
ATOM      8  N   UNL     1      -4.033   1.841  25.005  0.00  0.00    -0.304 N 
ATOM      9  C   UNL     1      -4.330   1.073  24.946  0.00  0.00    +0.112 C 
ATOM     10  C   UNL     1      -3.821   0.445  24.781  0.00  0.00    +0.115 C 
ATOM     11  N   UNL     1      -3.015   0.585  24.675  0.00  0.00    -0.276 N 
ATOM     12  C   UNL     1      -2.718   1.352  24.734  0.00  0.00    +0.115 C 
ATOM     13  C   UNL     1      -3.227   1.980  24.899  0.00  0.00    +0.112 C 
ATOM     14  C   UNL     1      -2.506  -0.044  24.510  0.00  0.00    +0.226 C 
ATOM     15  O   UNL     1      -2.803  -0.810  24.451  0.00  0.00    -0.275 OA
BRANCH   8   5
ATOM      1  F   UNL     1      -6.069   4.352  25.665  0.00  0.00    -0.204 F 
ATOM      2  C   UNL     1      -5.561   3.724  25.500  0.00  0.00    +0.140 A 
ATOM      3  C   UNL     1      -5.828   2.947  25.568  0.00  0.00    +0.031 A 
ATOM      4  C   UNL     1      -5.319   2.319  25.404  0.00  0.00    +0.017 A 
ATOM      5  C   UNL     1      -4.542   2.468  25.170  0.00  0.00    +0.048 A 
ATOM      6  C   UNL     1      -4.274   3.246  25.101  0.00  0.00    +0.017 A 
ATOM      7  C   UNL     1      -4.784   3.873  25.266  0.00  0.00    +0.031 A 
ENDBRANCH   8   5
ENDBRANCH  16  14
ENDBRANCH  17  16
BRANCH  22  23
ATOM     23  C   UNL     1      -0.297  -0.061  23.550  0.00  0.00    +0.051 C 
BRANCH  23  24
ATOM     24  C   UNL     1       0.478   0.168  23.379  0.00  0.00    +0.100 A 
ATOM     25  N   UNL     1       0.893   0.780  23.743  0.00  0.00    -0.082 NA
ATOM     26  O   UNL     1       1.645   0.815  23.404  0.00  0.00    -0.357 OA
ATOM     27  C   UNL     1       1.694   0.224  22.830  0.00  0.00    +0.170 A 
ATOM     35  C   UNL     1       0.972  -0.176  22.815  0.00  0.00    +0.055 A 
BRANCH  27  28
ATOM     28  C   UNL     1       2.348   0.062  22.355  0.00  0.00    +0.140 C 
BRANCH  28  29
ATOM     29  N   UNL     1       3.110   0.155  22.657  0.00  0.00    -0.266 NA
ATOM     30  C   UNL     1       3.465  -0.459  23.078  0.00  0.00    +0.072 C 
ATOM     31  C   UNL     1       4.228  -0.366  23.380  0.00  0.00    +0.017 C 
ATOM     32  C   UNL     1       4.634   0.342  23.259  0.00  0.00    +0.003 C 
ATOM     33  C   UNL     1       4.279   0.955  22.838  0.00  0.00    +0.017 C 
ATOM     34  C   UNL     1       3.517   0.862  22.537  0.00  0.00    +0.072 C 
ENDBRANCH  28  29
ENDBRANCH  27  28
ENDBRANCH  23  24
ENDBRANCH  22  23
TORSDOF 7
ENDMDL
MODEL 6
REMARK VINA RESULT:     -11.5      2.324      5.897
REMARK  Name = 
REMARK  7 active torsions:
REMARK  status: ('A' for Active; 'I' for Inactive)
REMARK    1  A    between atoms: C_5  and  N_8
REMARK    2  A    between atoms: C_14  and  C_16
REMARK    3  A    between atoms: C_16  and  C_17
REMARK    4  A    between atoms: C_22  and  C_23
REMARK    5  A    between atoms: C_23  and  C_24
REMARK    6  A    between atoms: C_27  and  C_28
REMARK    7  A    between atoms: C_28  and  N_29
REMARK                            x       y       z     vdW  Elec       q    Type
REMARK                         _______ _______ _______ _____ _____    ______ ____
ROOT
ATOM     17  C   UNL     1      -3.959  -0.687  24.690  0.00  0.00    +0.012 C 
ATOM     18  C   UNL     1      -4.572  -0.685  24.138  0.00  0.00    +0.019 C 
ATOM     19  C   UNL     1      -4.755  -1.375  23.724  0.00  0.00    +0.089 C 
ATOM     20  N   UNL     1      -4.327  -2.066  23.863  0.00  0.00    -0.218 NA
ATOM     21  C   UNL     1      -3.714  -2.067  24.415  0.00  0.00    +0.089 C 
ATOM     22  C   UNL     1      -3.530  -1.378  24.829  0.00  0.00    +0.024 C 
ENDROOT
BRANCH  17  16
ATOM     16  C   UNL     1      -3.775   0.003  25.104  0.00  0.00    +0.085 C 
BRANCH  16  14
ATOM      8  N   UNL     1      -2.979   2.869  25.117  0.00  0.00    -0.304 N 
ATOM      9  C   UNL     1      -3.770   2.852  24.879  0.00  0.00    +0.112 C 
ATOM     10  C   UNL     1      -4.165   2.131  24.816  0.00  0.00    +0.115 C 
ATOM     11  N   UNL     1      -3.772   1.428  24.992  0.00  0.00    -0.276 N 
ATOM     12  C   UNL     1      -2.983   1.445  25.229  0.00  0.00    +0.115 C 
ATOM     13  C   UNL     1      -2.586   2.166  25.292  0.00  0.00    +0.112 C 
ATOM     14  C   UNL     1      -4.169   0.707  24.929  0.00  0.00    +0.226 C 
ATOM     15  O   UNL     1      -4.958   0.689  24.691  0.00  0.00    -0.275 OA
BRANCH   8   5
ATOM      1  F   UNL     1      -1.394   5.753  25.365  0.00  0.00    -0.204 F 
ATOM      2  C   UNL     1      -1.791   5.032  25.303  0.00  0.00    +0.140 A 
ATOM      3  C   UNL     1      -2.506   4.919  25.698  0.00  0.00    +0.031 A 
ATOM      4  C   UNL     1      -2.903   4.199  25.636  0.00  0.00    +0.017 A 
ATOM      5  C   UNL     1      -2.584   3.590  25.179  0.00  0.00    +0.048 A 
ATOM      6  C   UNL     1      -1.868   3.703  24.784  0.00  0.00    +0.017 A 
ATOM      7  C   UNL     1      -1.472   4.424  24.846  0.00  0.00    +0.031 A 
ENDBRANCH   8   5
ENDBRANCH  16  14
ENDBRANCH  17  16
BRANCH  22  23
ATOM     23  C   UNL     1      -2.918  -1.379  25.381  0.00  0.00    +0.051 C 
BRANCH  23  24
ATOM     24  C   UNL     1      -2.152  -1.580  25.147  0.00  0.00    +0.100 A 
ATOM     25  N   UNL     1      -1.916  -2.303  24.829  0.00  0.00    -0.082 NA
ATOM     26  O   UNL     1      -1.106  -2.262  24.676  0.00  0.00    -0.357 OA
ATOM     27  C   UNL     1      -0.842  -1.514  24.900  0.00  0.00    +0.170 A 
ATOM     35  C   UNL     1      -1.488  -1.091  25.191  0.00  0.00    +0.055 A 
BRANCH  27  28
ATOM     28  C   UNL     1      -0.067  -1.236  24.842  0.00  0.00    +0.140 C 
BRANCH  28  29
ATOM     29  N   UNL     1       0.125  -0.661  24.282  0.00  0.00    -0.266 NA
ATOM     30  C   UNL     1       0.360  -0.886  23.525  0.00  0.00    +0.072 C 
ATOM     31  C   UNL     1       0.552  -0.311  22.964  0.00  0.00    +0.017 C 
ATOM     32  C   UNL     1       0.508   0.488  23.163  0.00  0.00    +0.003 C 
ATOM     33  C   UNL     1       0.272   0.713  23.920  0.00  0.00    +0.017 C 
ATOM     34  C   UNL     1       0.081   0.139  24.480  0.00  0.00    +0.072 C 
ENDBRANCH  28  29
ENDBRANCH  27  28
ENDBRANCH  23  24
ENDBRANCH  22  23
TORSDOF 7
ENDMDL
MODEL 7
REMARK VINA RESULT:     -11.4      2.558      4.255
REMARK  Name = 
REMARK  7 active torsions:
REMARK  status: ('A' for Active; 'I' for Inactive)
REMARK    1  A    between atoms: C_5  and  N_8
REMARK    2  A    between atoms: C_14  and  C_16
REMARK    3  A    between atoms: C_16  and  C_17
REMARK    4  A    between atoms: C_22  and  C_23
REMARK    5  A    between atoms: C_23  and  C_24
REMARK    6  A    between atoms: C_27  and  C_28
REMARK    7  A    between atoms: C_28  and  N_29
REMARK                            x       y       z     vdW  Elec       q    Type
REMARK                         _______ _______ _______ _____ _____    ______ ____
ROOT
ATOM     17  C   UNL     1      -2.698  -0.463  24.911  0.00  0.00    +0.012 C 
ATOM     18  C   UNL     1      -2.644  -1.000  25.535  0.00  0.00    +0.019 C 
ATOM     19  C   UNL     1      -3.315  -1.186  25.978  0.00  0.00    +0.089 C 
ATOM     20  N   UNL     1      -4.039  -0.835  25.797  0.00  0.00    -0.218 NA
ATOM     21  C   UNL     1      -4.093  -0.299  25.173  0.00  0.00    +0.089 C 
ATOM     22  C   UNL     1      -3.422  -0.112  24.730  0.00  0.00    +0.024 C 
ENDROOT
BRANCH  17  16
ATOM     16  C   UNL     1      -2.027  -0.277  24.468  0.00  0.00    +0.085 C 
BRANCH  16  14
ATOM      8  N   UNL     1       0.758  -0.110  23.436  0.00  0.00    -0.304 N 
ATOM      9  C   UNL     1       0.665  -0.880  23.720  0.00  0.00    +0.112 C 
ATOM     10  C   UNL     1      -0.055  -1.113  24.049  0.00  0.00    +0.115 C 
ATOM     11  N   UNL     1      -0.681  -0.578  24.094  0.00  0.00    -0.276 N 
ATOM     12  C   UNL     1      -0.588   0.190  23.810  0.00  0.00    +0.115 C 
ATOM     13  C   UNL     1       0.131   0.425  23.480  0.00  0.00    +0.112 C 
ATOM     14  C   UNL     1      -1.401  -0.812  24.423  0.00  0.00    +0.226 C 
ATOM     15  O   UNL     1      -1.494  -1.580  24.708  0.00  0.00    -0.275 OA
BRANCH   8   5
ATOM      1  F   UNL     1       3.637   0.825  22.122  0.00  0.00    -0.204 F 
ATOM      2  C   UNL     1       2.917   0.590  22.450  0.00  0.00    +0.140 A 
ATOM      3  C   UNL     1       2.478  -0.011  22.096  0.00  0.00    +0.031 A 
ATOM      4  C   UNL     1       1.758  -0.245  22.424  0.00  0.00    +0.017 A 
ATOM      5  C   UNL     1       1.477   0.123  23.107  0.00  0.00    +0.048 A 
ATOM      6  C   UNL     1       1.917   0.726  23.461  0.00  0.00    +0.017 A 
ATOM      7  C   UNL     1       2.636   0.959  23.132  0.00  0.00    +0.031 A 
ENDBRANCH   8   5
ENDBRANCH  16  14
ENDBRANCH  17  16
BRANCH  22  23
ATOM     23  C   UNL     1      -3.476   0.425  24.106  0.00  0.00    +0.051 C 
BRANCH  23  24
ATOM     24  C   UNL     1      -3.836   1.157  24.223  0.00  0.00    +0.100 A 
ATOM     25  N   UNL     1      -4.630   1.284  24.407  0.00  0.00    -0.082 NA
ATOM     26  O   UNL     1      -4.750   2.098  24.474  0.00  0.00    -0.357 OA
ATOM     27  C   UNL     1      -4.030   2.474  24.330  0.00  0.00    +0.170 A 
ATOM     35  C   UNL     1      -3.465   1.893  24.174  0.00  0.00    +0.055 A 
BRANCH  27  28
ATOM     28  C   UNL     1      -3.899   3.288  24.339  0.00  0.00    +0.140 C 
BRANCH  28  29
ATOM     29  N   UNL     1      -3.468   3.630  24.954  0.00  0.00    -0.266 NA
ATOM     30  C   UNL     1      -2.675   3.828  24.843  0.00  0.00    +0.072 C 
ATOM     31  C   UNL     1      -2.244   4.169  25.458  0.00  0.00    +0.017 C 
ATOM     32  C   UNL     1      -2.607   4.312  26.185  0.00  0.00    +0.003 C 
ATOM     33  C   UNL     1      -3.400   4.114  26.297  0.00  0.00    +0.017 C 
ATOM     34  C   UNL     1      -3.830   3.773  25.682  0.00  0.00    +0.072 C 
ENDBRANCH  28  29
ENDBRANCH  27  28
ENDBRANCH  23  24
ENDBRANCH  22  23
TORSDOF 7
ENDMDL
MODEL 8
REMARK VINA RESULT:     -11.4      2.295      4.709
REMARK  Name = 
REMARK  7 active torsions:
REMARK  status: ('A' for Active; 'I' for Inactive)
REMARK    1  A    between atoms: C_5  and  N_8
REMARK    2  A    between atoms: C_14  and  C_16
REMARK    3  A    between atoms: C_16  and  C_17
REMARK    4  A    between atoms: C_22  and  C_23
REMARK    5  A    between atoms: C_23  and  C_24
REMARK    6  A    between atoms: C_27  and  C_28
REMARK    7  A    between atoms: C_28  and  N_29
REMARK                            x       y       z     vdW  Elec       q    Type
REMARK                         _______ _______ _______ _____ _____    ______ ____
ROOT
ATOM     17  C   UNL     1      -1.007  -0.676  24.996  0.00  0.00    +0.012 C 
ATOM     18  C   UNL     1      -0.475  -1.058  24.494  0.00  0.00    +0.019 C 
ATOM     19  C   UNL     1      -0.631  -1.825  24.235  0.00  0.00    +0.089 C 
ATOM     20  N   UNL     1      -1.319  -2.211  24.478  0.00  0.00    -0.218 NA
ATOM     21  C   UNL     1      -1.851  -1.829  24.979  0.00  0.00    +0.089 C 
ATOM     22  C   UNL     1      -1.695  -1.061  25.238  0.00  0.00    +0.024 C 
ENDROOT
BRANCH  17  16
ATOM     16  C   UNL     1      -0.851   0.092  25.255  0.00  0.00    +0.085 C 
BRANCH  16  14
ATOM      8  N   UNL     1      -0.849   3.047  24.918  0.00  0.00    -0.304 N 
ATOM      9  C   UNL     1      -0.287   2.756  24.388  0.00  0.00    +0.112 C 
ATOM     10  C   UNL     1      -0.147   1.944  24.341  0.00  0.00    +0.115 C 
ATOM     11  N   UNL     1      -0.569   1.424  24.822  0.00  0.00    -0.276 N 
ATOM     12  C   UNL     1      -1.131   1.715  25.351  0.00  0.00    +0.115 C 
ATOM     13  C   UNL     1      -1.271   2.527  25.399  0.00  0.00    +0.112 C 
ATOM     14  C   UNL     1      -0.429   0.612  24.774  0.00  0.00    +0.226 C 
ATOM     15  O   UNL     1       0.132   0.321  24.245  0.00  0.00    -0.275 OA
BRANCH   8   5
ATOM      1  F   UNL     1      -1.404   6.295  25.107  0.00  0.00    -0.204 F 
ATOM      2  C   UNL     1      -1.266   5.482  25.060  0.00  0.00    +0.140 A 
ATOM      3  C   UNL     1      -1.810   4.952  25.379  0.00  0.00    +0.031 A 
ATOM      4  C   UNL     1      -1.672   4.140  25.332  0.00  0.00    +0.017 A 
ATOM      5  C   UNL     1      -0.988   3.859  24.966  0.00  0.00    +0.048 A 
ATOM      6  C   UNL     1      -0.443   4.390  24.646  0.00  0.00    +0.017 A 
ATOM      7  C   UNL     1      -0.582   5.201  24.694  0.00  0.00    +0.031 A 
ENDBRANCH   8   5
ENDBRANCH  16  14
ENDBRANCH  17  16
BRANCH  22  23
ATOM     23  C   UNL     1      -2.227  -0.680  25.740  0.00  0.00    +0.051 C 
BRANCH  23  24
ATOM     24  C   UNL     1      -3.030  -0.659  25.550  0.00  0.00    +0.100 A 
ATOM     25  N   UNL     1      -3.605  -1.187  25.815  0.00  0.00    -0.082 NA
ATOM     26  O   UNL     1      -4.329  -0.960  25.491  0.00  0.00    -0.357 OA
ATOM     27  C   UNL     1      -4.202  -0.291  25.026  0.00  0.00    +0.170 A 
ATOM     35  C   UNL     1      -3.399  -0.104  25.062  0.00  0.00    +0.055 A 
BRANCH  27  28
ATOM     28  C   UNL     1      -4.776   0.120  24.600  0.00  0.00    +0.140 C 
BRANCH  28  29
ATOM     29  N   UNL     1      -4.954   0.901  24.794  0.00  0.00    -0.266 NA
ATOM     30  C   UNL     1      -5.486   1.063  25.403  0.00  0.00    +0.072 C 
ATOM     31  C   UNL     1      -5.665   1.845  25.598  0.00  0.00    +0.017 C 
ATOM     32  C   UNL     1      -5.311   2.464  25.182  0.00  0.00    +0.003 C 
ATOM     33  C   UNL     1      -4.779   2.302  24.573  0.00  0.00    +0.017 C 
ATOM     34  C   UNL     1      -4.601   1.521  24.379  0.00  0.00    +0.072 C 
ENDBRANCH  28  29
ENDBRANCH  27  28
ENDBRANCH  23  24
ENDBRANCH  22  23
TORSDOF 7
ENDMDL
