REMARK  Name = 
REMARK  5 active torsions:
REMARK  status: ('A' for Active; 'I' for Inactive)
REMARK    1  A    between atoms: N_6  and  C_7
REMARK    2  A    between atoms: C_7  and  C_8
REMARK    3  A    between atoms: C_20  and  C_21
REMARK    4  A    between atoms: C_21  and  C_22
REMARK    5  A    between atoms: C_22  and  C_23
REMARK                            x       y       z     vdW  Elec       q    Type
REMARK                         _______ _______ _______ _____ _____    ______ ____
ROOT
ATOM      1  C   UNL     1       2.905  -5.176   0.000  0.00  0.00    +0.090 C 
ATOM      2  N   UNL     1       2.267  -4.652   0.000  0.00  0.00    -0.271 NA
ATOM      3  C   UNL     1       1.519  -4.998   0.000  0.00  0.00    +0.083 C 
ATOM      4  C   UNL     1       1.396  -5.814   0.000  0.00  0.00    +0.035 C 
ATOM      5  C   UNL     1       0.582  -5.949   0.000  0.00  0.00    +0.074 C 
ATOM      6  N   UNL     1       0.202  -5.217   0.000  0.00  0.00    -0.262 NA
ATOM     15  C   UNL     1       0.781  -4.629   0.000  0.00  0.00    +0.151 C 
ATOM     16  C   UNL     1       0.609  -3.822   0.000  0.00  0.00    +0.257 C 
ATOM     17  O   UNL     1      -0.192  -3.627   0.000  0.00  0.00    -0.272 OA
ATOM     18  N   UNL     1       1.133  -3.185   0.000  0.00  0.00    -0.203 NA
ATOM     19  C   UNL     1       1.958  -3.197   0.000  0.00  0.00    +0.131 C 
ATOM     20  C   UNL     1       2.463  -3.850   0.000  0.00  0.00    +0.080 C 
ENDROOT
BRANCH   6   7
ATOM      7  C   UNL     1      -0.614  -5.094   0.000  0.00  0.00    +0.100 C 
BRANCH   7   8
ATOM      8  C   UNL     1      -1.128  -5.739   0.000  0.00  0.00    -0.005 A 
ATOM      9  C   UNL     1      -0.827  -6.507   0.000  0.00  0.00    -0.003 A 
ATOM     10  C   UNL     1      -1.341  -7.152   0.000  0.00  0.00    +0.001 A 
ATOM     11  C   UNL     1      -2.157  -7.029   0.000  0.00  0.00    +0.011 A 
ATOM     12  C   UNL     1      -2.458  -6.261   0.000  0.00  0.00    +0.057 A 
ATOM     13 CL   UNL     1      -3.274  -6.138   0.000  0.00  0.00    -0.082 Cl
ATOM     14  C   UNL     1      -1.944  -5.616   0.000  0.00  0.00    +0.008 A 
ENDBRANCH   7   8
ENDBRANCH   6   7
BRANCH  20  21
ATOM     21  C   UNL     1       3.270  -3.679   0.000  0.00  0.00    +0.027 C 
BRANCH  21  22
ATOM     22  C   UNL     1       3.525  -2.894   0.000  0.00  0.00    +0.087 C 
BRANCH  22  23
ATOM     23  C   UNL     1       4.332  -2.722   0.000  0.00  0.00    +0.229 C 
ATOM     24  O   UNL     1       4.884  -3.336   0.000  0.00  0.00    -0.275 OA
ATOM     25  N   UNL     1       4.587  -1.938   0.000  0.00  0.00    -0.259 N 
ATOM     26  C   UNL     1       4.102  -1.270   0.000  0.00  0.00    +0.103 C 
ATOM     27  C   UNL     1       4.587  -0.603   0.000  0.00  0.00    +0.049 C 
ATOM     28  C   UNL     1       5.371  -0.858   0.000  0.00  0.00    -0.007 A 
ATOM     29  C   UNL     1       6.086  -0.445   0.000  0.00  0.00    -0.003 A 
ATOM     30  C   UNL     1       6.800  -0.858   0.000  0.00  0.00    -0.000 A 
ATOM     31  C   UNL     1       6.800  -1.683   0.000  0.00  0.00    +0.001 A 
ATOM     32  C   UNL     1       6.086  -2.095   0.000  0.00  0.00    +0.015 A 
ATOM     33  C   UNL     1       5.371  -1.683   0.000  0.00  0.00    +0.050 A 
ENDBRANCH  22  23
ENDBRANCH  21  22
ENDBRANCH  20  21
TORSDOF 5
