REMARK  Name = 
REMARK  4 active torsions:
REMARK  status: ('A' for Active; 'I' for Inactive)
REMARK    1  A    between atoms: C_4  and  C_8
REMARK    2  A    between atoms: N_10  and  C_11
REMARK    3  A    between atoms: C_14  and  C_17
REMARK    4  A    between atoms: CA_23  and  C_24
REMARK                            x       y       z     vdW  Elec       q    Type
REMARK                         _______ _______ _______ _____ _____    ______ ____
ROOT
ATOM     11  C   UNL     1       3.632  -7.468   0.000  0.00  0.00    +0.074 A 
ATOM     12  C   UNL     1       4.452  -7.382   0.000  0.00  0.00    +0.016 A 
ATOM     13  C   UNL     1       4.937  -8.049   0.000  0.00  0.00    -0.001 A 
ATOM     14  C   UNL     1       4.602  -8.803   0.000  0.00  0.00    +0.006 A 
ATOM     15  C   UNL     1       3.781  -8.889   0.000  0.00  0.00    -0.001 A 
ATOM     16  C   UNL     1       3.296  -8.222   0.000  0.00  0.00    +0.016 A 
ENDROOT
BRANCH  14  17
ATOM     17  C   UNL     1       5.087  -9.470   0.000  0.00  0.00    +0.160 C 
ATOM     18  O   UNL     1       5.907  -9.384   0.000  0.00  0.00    -0.341 OA
ATOM     19  C   UNL     1       6.392 -10.052   0.000  0.00  0.00    +0.229 C 
ATOM     20  C   UNL     1       6.056 -10.805   0.000  0.00  0.00    +0.272 C 
ATOM     21  O   UNL     1       6.541 -11.473   0.000  0.00  0.00    -0.271 OA
ATOM     22  N   UNL     1       5.236 -10.892   0.000  0.00  0.00    -0.199 NA
ATOM     23  CA  UNL     1       4.751 -10.224   0.000  0.00  0.00    +0.159 C 
BRANCH  23  24
ATOM     24  C   UNL     1       3.930 -10.310   0.000  0.00  0.00    +0.206 C 
ATOM     25  O   UNL     1       3.446  -9.643   0.000  0.00  0.00    -0.218 OA
ENDBRANCH  23  24
ENDBRANCH  14  17
BRANCH  11  10
ATOM      8  C   UNL     1       2.326  -6.887   0.000  0.00  0.00    +0.288 C 
ATOM      9  O   UNL     1       1.991  -7.641   0.000  0.00  0.00    -0.266 OA
ATOM     10  N   UNL     1       3.147  -6.801   0.000  0.00  0.00    -0.174 NA
BRANCH   8   4
ATOM      1  C   UNL     1       1.429  -4.125   0.000  0.00  0.00    +0.153 C 
ATOM      2  N   UNL     1       1.429  -4.950   0.000  0.00  0.00    -0.253 N 
ATOM      3  N   UNL     1       2.096  -5.435   0.000  0.00  0.00    -0.165 NA
ATOM      4  C   UNL     1       1.841  -6.220   0.000  0.00  0.00    +0.157 A 
ATOM      5  C   UNL     1       1.016  -6.220   0.000  0.00  0.00    +0.040 A 
ATOM      6  C   UNL     1       0.761  -5.435   0.000  0.00  0.00    +0.058 A 
ATOM      7  C   UNL     1      -0.023  -5.180   0.000  0.00  0.00    +0.052 C 
ENDBRANCH   8   4
ENDBRANCH  11  10
TORSDOF 4
