MODEL 1
REMARK VINA RESULT:     -11.8      0.000      0.000
REMARK  Name = 
REMARK  7 active torsions:
REMARK  status: ('A' for Active; 'I' for Inactive)
REMARK    1  A    between atoms: C_2  and  C_4
REMARK    2  A    between atoms: C_4  and  C_5
REMARK    3  A    between atoms: C_7  and  C_25
REMARK    4  A    between atoms: N_11  and  C_12
REMARK    5  A    between atoms: C_12  and  C_13
REMARK    6  A    between atoms: N_27  and  C_28
REMARK    7  A    between atoms: C_28  and  C_29
REMARK                            x       y       z     vdW  Elec       q    Type
REMARK                         _______ _______ _______ _____ _____    ______ ____
ROOT
ATOM      5  C   UNL     1      -3.461  -0.481  24.933  0.00  0.00    +0.095 C 
ATOM      6  N   UNL     1      -2.652  -0.640  24.893  0.00  0.00    -0.207 NA
ATOM      7  C   UNL     1      -2.025  -0.106  24.842  0.00  0.00    +0.155 C 
ATOM      8  C   UNL     1      -2.052   0.718  24.819  0.00  0.00    +0.055 C 
ATOM      9  C   UNL     1      -2.713   1.212  24.840  0.00  0.00    -0.002 A 
ATOM     10  C   UNL     1      -2.666   2.035  24.813  0.00  0.00    +0.072 A 
ATOM     11  N   UNL     1      -3.434   2.336  24.846  0.00  0.00    -0.322 N 
ATOM     19  C   UNL     1      -3.956   1.698  24.894  0.00  0.00    +0.060 A 
ATOM     20  C   UNL     1      -3.510   1.003  24.891  0.00  0.00    +0.011 A 
ATOM     21  C   UNL     1      -3.842   0.249  24.932  0.00  0.00    -0.005 A 
ATOM     22  C   UNL     1      -4.709   0.233  24.980  0.00  0.00    -0.003 A 
ATOM     23  C   UNL     1      -5.155   0.927  24.984  0.00  0.00    +0.001 A 
ATOM     24  C   UNL     1      -4.778   1.660  24.941  0.00  0.00    +0.017 A 
ENDROOT
BRANCH   7  25
ATOM     25  C   UNL     1      -1.271  -0.440  24.811  0.00  0.00    +0.258 C 
ATOM     26  O   UNL     1      -0.977  -0.856  25.461  0.00  0.00    -0.272 OA
ATOM     27  N   UNL     1      -0.812  -0.359  24.130  0.00  0.00    -0.190 NA
BRANCH  27  28
ATOM     28  C   UNL     1      -0.059  -0.694  24.100  0.00  0.00    +0.191 C 
BRANCH  28  29
ATOM     29  C   UNL     1       0.467  -0.473  23.503  0.00  0.00    -0.054 C 
ATOM     30  C   UNL     1       0.992  -0.252  22.907  0.00  0.00    -0.012 C 
ENDBRANCH  28  29
ENDBRANCH  27  28
ENDBRANCH   7  25
BRANCH   5   4
ATOM      4  C   UNL     1      -3.952  -1.142  24.980  0.00  0.00    +0.022 C 
BRANCH   4   2
ATOM      1  C   UNL     1      -3.943  -1.836  23.731  0.00  0.00    +0.000 C 
ATOM      2  C   UNL     1      -3.778  -1.818  24.539  0.00  0.00    +0.002 C 
ATOM      3  C   UNL     1      -3.439  -2.475  24.906  0.00  0.00    +0.000 C 
ENDBRANCH   4   2
ENDBRANCH   5   4
BRANCH  11  12
ATOM     12  C   UNL     1      -3.645   3.133  24.834  0.00  0.00    +0.133 C 
BRANCH  12  13
ATOM     13  C   UNL     1      -3.135   3.700  25.150  0.00  0.00    +0.003 A 
ATOM     14  C   UNL     1      -2.572   4.061  24.668  0.00  0.00    +0.018 A 
ATOM     15  C   UNL     1      -2.062   4.629  24.985  0.00  0.00    +0.099 A 
ATOM     16  N   UNL     1      -2.117   4.833  25.782  0.00  0.00    -0.242 NA
ATOM     17  C   UNL     1      -2.681   4.471  26.263  0.00  0.00    +0.099 A 
ATOM     18  C   UNL     1      -3.190   3.904  25.947  0.00  0.00    +0.018 A 
ENDBRANCH  12  13
ENDBRANCH  11  12
TORSDOF 7
ENDMDL
MODEL 2
REMARK VINA RESULT:     -11.6      1.593      4.286
REMARK  Name = 
REMARK  7 active torsions:
REMARK  status: ('A' for Active; 'I' for Inactive)
REMARK    1  A    between atoms: C_2  and  C_4
REMARK    2  A    between atoms: C_4  and  C_5
REMARK    3  A    between atoms: C_7  and  C_25
REMARK    4  A    between atoms: N_11  and  C_12
REMARK    5  A    between atoms: C_12  and  C_13
REMARK    6  A    between atoms: N_27  and  C_28
REMARK    7  A    between atoms: C_28  and  C_29
REMARK                            x       y       z     vdW  Elec       q    Type
REMARK                         _______ _______ _______ _____ _____    ______ ____
ROOT
ATOM      5  C   UNL     1      -3.267   2.836  24.948  0.00  0.00    +0.095 C 
ATOM      6  N   UNL     1      -2.447   2.743  24.969  0.00  0.00    -0.207 NA
ATOM      7  C   UNL     1      -2.007   2.046  24.926  0.00  0.00    +0.155 C 
ATOM      8  C   UNL     1      -2.279   1.271  24.852  0.00  0.00    +0.055 C 
ATOM      9  C   UNL     1      -3.057   1.000  24.802  0.00  0.00    -0.002 A 
ATOM     10  C   UNL     1      -3.257   0.204  24.729  0.00  0.00    +0.072 A 
ATOM     11  N   UNL     1      -4.080   0.149  24.696  0.00  0.00    -0.322 N 
ATOM     19  C   UNL     1      -4.388   0.913  24.749  0.00  0.00    +0.060 A 
ATOM     20  C   UNL     1      -3.756   1.439  24.815  0.00  0.00    +0.011 A 
ATOM     21  C   UNL     1      -3.848   2.257  24.880  0.00  0.00    -0.005 A 
ATOM     22  C   UNL     1      -4.672   2.533  24.874  0.00  0.00    -0.003 A 
ATOM     23  C   UNL     1      -5.304   2.008  24.809  0.00  0.00    +0.001 A 
ATOM     24  C   UNL     1      -5.162   1.197  24.746  0.00  0.00    +0.017 A 
ENDROOT
BRANCH   7  25
ATOM     25  C   UNL     1      -1.188   2.138  24.962  0.00  0.00    +0.258 C 
ATOM     26  O   UNL     1      -0.751   2.212  24.266  0.00  0.00    -0.272 OA
ATOM     27  N   UNL     1      -0.807   2.154  25.693  0.00  0.00    -0.190 NA
BRANCH  27  28
ATOM     28  C   UNL     1       0.013   2.246  25.728  0.00  0.00    +0.191 C 
BRANCH  28  29
ATOM     29  C   UNL     1       0.377   2.429  26.445  0.00  0.00    -0.054 C 
ATOM     30  C   UNL     1       0.741   2.613  27.163  0.00  0.00    -0.012 C 
ENDBRANCH  28  29
ENDBRANCH  27  28
ENDBRANCH   7  25
BRANCH   5   4
ATOM      4  C   UNL     1      -3.540   3.613  25.004  0.00  0.00    +0.022 C 
BRANCH   4   2
ATOM      1  C   UNL     1      -2.647   4.724  25.105  0.00  0.00    +0.000 C 
ATOM      2  C   UNL     1      -3.131   4.162  25.466  0.00  0.00    +0.002 C 
ATOM      3  C   UNL     1      -3.207   4.147  26.287  0.00  0.00    +0.000 C 
ENDBRANCH   4   2
ENDBRANCH   5   4
BRANCH  11  12
ATOM     12  C   UNL     1      -4.518  -0.546  24.623  0.00  0.00    +0.133 C 
BRANCH  12  13
ATOM     13  C   UNL     1      -4.134  -1.274  24.587  0.00  0.00    +0.003 A 
ATOM     14  C   UNL     1      -4.087  -1.681  23.871  0.00  0.00    +0.018 A 
ATOM     15  C   UNL     1      -3.703  -2.411  23.836  0.00  0.00    +0.099 A 
ATOM     16  N   UNL     1      -3.365  -2.732  24.516  0.00  0.00    -0.242 NA
ATOM     17  C   UNL     1      -3.412  -2.325  25.232  0.00  0.00    +0.099 A 
ATOM     18  C   UNL     1      -3.796  -1.596  25.268  0.00  0.00    +0.018 A 
ENDBRANCH  12  13
ENDBRANCH  11  12
TORSDOF 7
ENDMDL
MODEL 3
REMARK VINA RESULT:     -11.4      1.207      4.100
REMARK  Name = 
REMARK  7 active torsions:
REMARK  status: ('A' for Active; 'I' for Inactive)
REMARK    1  A    between atoms: C_2  and  C_4
REMARK    2  A    between atoms: C_4  and  C_5
REMARK    3  A    between atoms: C_7  and  C_25
REMARK    4  A    between atoms: N_11  and  C_12
REMARK    5  A    between atoms: C_12  and  C_13
REMARK    6  A    between atoms: N_27  and  C_28
REMARK    7  A    between atoms: C_28  and  C_29
REMARK                            x       y       z     vdW  Elec       q    Type
REMARK                         _______ _______ _______ _____ _____    ______ ____
ROOT
ATOM      5  C   UNL     1      -2.713   2.816  24.879  0.00  0.00    +0.095 C 
ATOM      6  N   UNL     1      -1.915   2.618  24.943  0.00  0.00    -0.207 NA
ATOM      7  C   UNL     1      -1.574   1.867  24.988  0.00  0.00    +0.155 C 
ATOM      8  C   UNL     1      -1.947   1.132  24.981  0.00  0.00    +0.055 C 
ATOM      9  C   UNL     1      -2.752   0.964  24.927  0.00  0.00    -0.002 A 
ATOM     10  C   UNL     1      -3.058   0.198  24.925  0.00  0.00    +0.072 A 
ATOM     11  N   UNL     1      -3.879   0.250  24.863  0.00  0.00    -0.322 N 
ATOM     19  C   UNL     1      -4.081   1.049  24.827  0.00  0.00    +0.060 A 
ATOM     20  C   UNL     1      -3.385   1.491  24.866  0.00  0.00    +0.011 A 
ATOM     21  C   UNL     1      -3.367   2.315  24.845  0.00  0.00    -0.005 A 
ATOM     22  C   UNL     1      -4.144   2.697  24.778  0.00  0.00    -0.003 A 
ATOM     23  C   UNL     1      -4.840   2.257  24.739  0.00  0.00    +0.001 A 
ATOM     24  C   UNL     1      -4.809   1.433  24.764  0.00  0.00    +0.017 A 
ENDROOT
BRANCH   7  25
ATOM     25  C   UNL     1      -0.751   1.852  25.049  0.00  0.00    +0.258 C 
ATOM     26  O   UNL     1      -0.389   1.984  25.779  0.00  0.00    -0.272 OA
ATOM     27  N   UNL     1      -0.291   1.704  24.380  0.00  0.00    -0.190 NA
BRANCH  27  28
ATOM     28  C   UNL     1       0.532   1.688  24.442  0.00  0.00    +0.191 C 
BRANCH  28  29
ATOM     29  C   UNL     1       0.980   1.293  23.874  0.00  0.00    -0.054 C 
ATOM     30  C   UNL     1       1.429   0.897  23.305  0.00  0.00    -0.012 C 
ENDBRANCH  28  29
ENDBRANCH  27  28
ENDBRANCH   7  25
BRANCH   5   4
ATOM      4  C   UNL     1      -2.878   3.624  24.846  0.00  0.00    +0.022 C 
BRANCH   4   2
ATOM      1  C   UNL     1      -1.855   4.610  24.997  0.00  0.00    +0.000 C 
ATOM      2  C   UNL     1      -2.459   4.151  25.323  0.00  0.00    +0.002 C 
ATOM      3  C   UNL     1      -2.643   4.219  26.124  0.00  0.00    +0.000 C 
ENDBRANCH   4   2
ENDBRANCH   5   4
BRANCH  11  12
ATOM     12  C   UNL     1      -4.406  -0.384  24.842  0.00  0.00    +0.133 C 
BRANCH  12  13
ATOM     13  C   UNL     1      -4.138  -1.138  24.643  0.00  0.00    +0.003 A 
ATOM     14  C   UNL     1      -3.768  -1.606  25.212  0.00  0.00    +0.018 A 
ATOM     15  C   UNL     1      -3.499  -2.361  25.014  0.00  0.00    +0.099 A 
ATOM     16  N   UNL     1      -3.600  -2.646  24.246  0.00  0.00    -0.242 NA
ATOM     17  C   UNL     1      -3.970  -2.176  23.677  0.00  0.00    +0.099 A 
ATOM     18  C   UNL     1      -4.239  -1.422  23.876  0.00  0.00    +0.018 A 
ENDBRANCH  12  13
ENDBRANCH  11  12
TORSDOF 7
ENDMDL
MODEL 4
REMARK VINA RESULT:     -11.0      1.730      3.209
REMARK  Name = 
REMARK  7 active torsions:
REMARK  status: ('A' for Active; 'I' for Inactive)
REMARK    1  A    between atoms: C_2  and  C_4
REMARK    2  A    between atoms: C_4  and  C_5
REMARK    3  A    between atoms: C_7  and  C_25
REMARK    4  A    between atoms: N_11  and  C_12
REMARK    5  A    between atoms: C_12  and  C_13
REMARK    6  A    between atoms: N_27  and  C_28
REMARK    7  A    between atoms: C_28  and  C_29
REMARK                            x       y       z     vdW  Elec       q    Type
REMARK                         _______ _______ _______ _____ _____    ______ ____
ROOT
ATOM      5  C   UNL     1      -4.782   2.063  24.851  0.00  0.00    +0.095 C 
ATOM      6  N   UNL     1      -4.665   1.293  24.580  0.00  0.00    -0.207 NA
ATOM      7  C   UNL     1      -3.953   0.907  24.418  0.00  0.00    +0.155 C 
ATOM      8  C   UNL     1      -3.184   1.197  24.489  0.00  0.00    +0.055 C 
ATOM      9  C   UNL     1      -2.936   1.943  24.738  0.00  0.00    -0.002 A 
ATOM     10  C   UNL     1      -2.143   2.167  24.784  0.00  0.00    +0.072 A 
ATOM     11  N   UNL     1      -2.113   2.946  25.053  0.00  0.00    -0.322 N 
ATOM     19  C   UNL     1      -2.888   3.205  25.173  0.00  0.00    +0.060 A 
ATOM     20  C   UNL     1      -3.396   2.585  24.978  0.00  0.00    +0.011 A 
ATOM     21  C   UNL     1      -4.219   2.638  25.028  0.00  0.00    -0.005 A 
ATOM     22  C   UNL     1      -4.520   3.403  25.305  0.00  0.00    -0.003 A 
ATOM     23  C   UNL     1      -4.012   4.024  25.500  0.00  0.00    +0.001 A 
ATOM     24  C   UNL     1      -3.196   3.924  25.434  0.00  0.00    +0.017 A 
ENDROOT
BRANCH   7  25
ATOM     25  C   UNL     1      -4.021   0.129  24.151  0.00  0.00    +0.258 C 
ATOM     26  O   UNL     1      -4.201  -0.021  23.360  0.00  0.00    -0.272 OA
ATOM     27  N   UNL     1      -3.907  -0.497  24.675  0.00  0.00    -0.190 NA
BRANCH  27  28
ATOM     28  C   UNL     1      -3.975  -1.275  24.407  0.00  0.00    +0.191 C 
BRANCH  28  29
ATOM     29  C   UNL     1      -3.682  -1.896  24.866  0.00  0.00    -0.054 C 
ATOM     30  C   UNL     1      -3.390  -2.516  25.324  0.00  0.00    -0.012 C 
ENDBRANCH  28  29
ENDBRANCH  27  28
ENDBRANCH   7  25
BRANCH   5   4
ATOM      4  C   UNL     1      -5.569   2.288  24.959  0.00  0.00    +0.022 C 
BRANCH   4   2
ATOM      1  C   UNL     1      -6.664   1.401  24.723  0.00  0.00    +0.000 C 
ATOM      2  C   UNL     1      -6.119   1.740  25.241  0.00  0.00    +0.002 C 
ATOM      3  C   UNL     1      -6.123   1.533  26.040  0.00  0.00    +0.000 C 
ENDBRANCH   4   2
ENDBRANCH   5   4
BRANCH  11  12
ATOM     12  C   UNL     1      -1.430   3.390  25.180  0.00  0.00    +0.133 C 
BRANCH  12  13
ATOM     13  C   UNL     1      -0.722   3.013  25.374  0.00  0.00    +0.003 A 
ATOM     14  C   UNL     1      -0.202   2.783  24.777  0.00  0.00    +0.018 A 
ATOM     15  C   UNL     1       0.507   2.406  24.970  0.00  0.00    +0.099 A 
ATOM     16  N   UNL     1       0.693   2.258  25.760  0.00  0.00    -0.242 NA
ATOM     17  C   UNL     1       0.171   2.488  26.357  0.00  0.00    +0.099 A 
ATOM     18  C   UNL     1      -0.537   2.865  26.164  0.00  0.00    +0.018 A 
ENDBRANCH  12  13
ENDBRANCH  11  12
TORSDOF 7
ENDMDL
MODEL 5
REMARK VINA RESULT:     -10.8      1.673      2.736
REMARK  Name = 
REMARK  7 active torsions:
REMARK  status: ('A' for Active; 'I' for Inactive)
REMARK    1  A    between atoms: C_2  and  C_4
REMARK    2  A    between atoms: C_4  and  C_5
REMARK    3  A    between atoms: C_7  and  C_25
REMARK    4  A    between atoms: N_11  and  C_12
REMARK    5  A    between atoms: C_12  and  C_13
REMARK    6  A    between atoms: N_27  and  C_28
REMARK    7  A    between atoms: C_28  and  C_29
REMARK                            x       y       z     vdW  Elec       q    Type
REMARK                         _______ _______ _______ _____ _____    ______ ____
ROOT
ATOM      5  C   UNL     1      -1.956  -0.444  24.577  0.00  0.00    +0.095 C 
ATOM      6  N   UNL     1      -1.406   0.168  24.648  0.00  0.00    -0.207 NA
ATOM      7  C   UNL     1      -1.544   0.979  24.714  0.00  0.00    +0.155 C 
ATOM      8  C   UNL     1      -2.266   1.378  24.724  0.00  0.00    +0.055 C 
ATOM      9  C   UNL     1      -3.028   1.066  24.671  0.00  0.00    -0.002 A 
ATOM     10  C   UNL     1      -3.711   1.528  24.688  0.00  0.00    +0.072 A 
ATOM     11  N   UNL     1      -4.361   1.025  24.622  0.00  0.00    -0.322 N 
ATOM     19  C   UNL     1      -4.080   0.251  24.564  0.00  0.00    +0.060 A 
ATOM     20  C   UNL     1      -3.256   0.276  24.595  0.00  0.00    +0.011 A 
ATOM     21  C   UNL     1      -2.778  -0.395  24.553  0.00  0.00    -0.005 A 
ATOM     22  C   UNL     1      -3.207  -1.146  24.473  0.00  0.00    -0.003 A 
ATOM     23  C   UNL     1      -4.031  -1.172  24.443  0.00  0.00    +0.001 A 
ATOM     24  C   UNL     1      -4.468  -0.473  24.488  0.00  0.00    +0.017 A 
ENDROOT
BRANCH   7  25
ATOM     25  C   UNL     1      -0.871   1.452  24.778  0.00  0.00    +0.258 C 
ATOM     26  O   UNL     1      -0.429   1.633  24.105  0.00  0.00    -0.272 OA
ATOM     27  N   UNL     1      -0.642   1.745  25.514  0.00  0.00    -0.190 NA
BRANCH  27  28
ATOM     28  C   UNL     1       0.031   2.218  25.577  0.00  0.00    +0.191 C 
BRANCH  28  29
ATOM     29  C   UNL     1       0.297   2.461  26.320  0.00  0.00    -0.054 C 
ATOM     30  C   UNL     1       0.562   2.703  27.062  0.00  0.00    -0.012 C 
ENDBRANCH  28  29
ENDBRANCH  27  28
ENDBRANCH   7  25
BRANCH   5   4
ATOM      4  C   UNL     1      -1.639  -1.203  24.522  0.00  0.00    +0.022 C 
BRANCH   4   2
ATOM      1  C   UNL     1      -0.846  -1.496  25.674  0.00  0.00    +0.000 C 
ATOM      2  C   UNL     1      -0.905  -1.370  24.861  0.00  0.00    +0.002 C 
ATOM      3  C   UNL     1      -0.231  -1.411  24.386  0.00  0.00    +0.000 C 
ENDBRANCH   4   2
ENDBRANCH   5   4
BRANCH  11  12
ATOM     12  C   UNL     1      -5.154   1.253  24.615  0.00  0.00    +0.133 C 
BRANCH  12  13
ATOM     13  C   UNL     1      -5.409   1.873  25.096  0.00  0.00    +0.003 A 
ATOM     14  C   UNL     1      -5.269   2.654  24.871  0.00  0.00    +0.018 A 
ATOM     15  C   UNL     1      -5.525   3.274  25.353  0.00  0.00    +0.099 A 
ATOM     16  N   UNL     1      -5.920   3.111  26.059  0.00  0.00    -0.242 NA
ATOM     17  C   UNL     1      -6.060   2.329  26.283  0.00  0.00    +0.099 A 
ATOM     18  C   UNL     1      -5.804   1.710  25.802  0.00  0.00    +0.018 A 
ENDBRANCH  12  13
ENDBRANCH  11  12
TORSDOF 7
ENDMDL
MODEL 6
REMARK VINA RESULT:     -10.7      1.825      5.213
REMARK  Name = 
REMARK  7 active torsions:
REMARK  status: ('A' for Active; 'I' for Inactive)
REMARK    1  A    between atoms: C_2  and  C_4
REMARK    2  A    between atoms: C_4  and  C_5
REMARK    3  A    between atoms: C_7  and  C_25
REMARK    4  A    between atoms: N_11  and  C_12
REMARK    5  A    between atoms: C_12  and  C_13
REMARK    6  A    between atoms: N_27  and  C_28
REMARK    7  A    between atoms: C_28  and  C_29
REMARK                            x       y       z     vdW  Elec       q    Type
REMARK                         _______ _______ _______ _____ _____    ______ ____
ROOT
ATOM      5  C   UNL     1      -1.875   3.216  25.422  0.00  0.00    +0.095 C 
ATOM      6  N   UNL     1      -2.639   3.158  25.118  0.00  0.00    -0.207 NA
ATOM      7  C   UNL     1      -2.991   2.522  24.727  0.00  0.00    +0.155 C 
ATOM      8  C   UNL     1      -2.663   1.787  24.544  0.00  0.00    +0.055 C 
ATOM      9  C   UNL     1      -1.905   1.507  24.707  0.00  0.00    -0.002 A 
ATOM     10  C   UNL     1      -1.642   0.754  24.493  0.00  0.00    +0.072 A 
ATOM     11  N   UNL     1      -0.861   0.675  24.746  0.00  0.00    -0.322 N 
ATOM     19  C   UNL     1      -0.640   1.378  25.117  0.00  0.00    +0.060 A 
ATOM     20  C   UNL     1      -1.285   1.892  25.093  0.00  0.00    +0.011 A 
ATOM     21  C   UNL     1      -1.273   2.654  25.411  0.00  0.00    -0.005 A 
ATOM     22  C   UNL     1      -0.521   2.883  25.781  0.00  0.00    -0.003 A 
ATOM     23  C   UNL     1       0.124   2.370  25.806  0.00  0.00    +0.001 A 
ATOM     24  C   UNL     1       0.064   1.617  25.473  0.00  0.00    +0.017 A 
ENDROOT
BRANCH   7  25
ATOM     25  C   UNL     1      -3.772   2.636  24.488  0.00  0.00    +0.258 C 
ATOM     26  O   UNL     1      -3.933   2.974  23.752  0.00  0.00    -0.272 OA
ATOM     27  N   UNL     1      -4.392   2.412  24.984  0.00  0.00    -0.190 NA
BRANCH  27  28
ATOM     28  C   UNL     1      -5.173   2.527  24.743  0.00  0.00    +0.191 C 
BRANCH  28  29
ATOM     29  C   UNL     1      -5.793   2.235  25.203  0.00  0.00    -0.054 C 
ATOM     30  C   UNL     1      -6.413   1.943  25.663  0.00  0.00    -0.012 C 
ENDBRANCH  28  29
ENDBRANCH  27  28
ENDBRANCH   7  25
BRANCH   5   4
ATOM      4  C   UNL     1      -1.689   3.933  25.786  0.00  0.00    +0.022 C 
BRANCH   4   2
ATOM      1  C   UNL     1      -2.626   5.011  25.746  0.00  0.00    +0.000 C 
ATOM      2  C   UNL     1      -1.948   4.643  25.454  0.00  0.00    +0.002 C 
ATOM      3  C   UNL     1      -1.529   4.985  24.831  0.00  0.00    +0.000 C 
ENDBRANCH   4   2
ENDBRANCH   5   4
BRANCH  11  12
ATOM     12  C   UNL     1      -0.384   0.009  24.647  0.00  0.00    +0.133 C 
BRANCH  12  13
ATOM     13  C   UNL     1      -0.712  -0.746  24.700  0.00  0.00    +0.003 A 
ATOM     14  C   UNL     1      -0.966  -1.133  24.018  0.00  0.00    +0.018 A 
ATOM     15  C   UNL     1      -1.295  -1.889  24.071  0.00  0.00    +0.099 A 
ATOM     16  N   UNL     1      -1.367  -2.256  24.807  0.00  0.00    -0.242 NA
ATOM     17  C   UNL     1      -1.112  -1.868  25.489  0.00  0.00    +0.099 A 
ATOM     18  C   UNL     1      -0.784  -1.112  25.436  0.00  0.00    +0.018 A 
ENDBRANCH  12  13
ENDBRANCH  11  12
TORSDOF 7
ENDMDL
MODEL 7
REMARK VINA RESULT:     -10.4      1.387      4.273
REMARK  Name = 
REMARK  7 active torsions:
REMARK  status: ('A' for Active; 'I' for Inactive)
REMARK    1  A    between atoms: C_2  and  C_4
REMARK    2  A    between atoms: C_4  and  C_5
REMARK    3  A    between atoms: C_7  and  C_25
REMARK    4  A    between atoms: N_11  and  C_12
REMARK    5  A    between atoms: C_12  and  C_13
REMARK    6  A    between atoms: N_27  and  C_28
REMARK    7  A    between atoms: C_28  and  C_29
REMARK                            x       y       z     vdW  Elec       q    Type
REMARK                         _______ _______ _______ _____ _____    ______ ____
ROOT
ATOM      5  C   UNL     1      -4.331   2.311  24.988  0.00  0.00    +0.095 C 
ATOM      6  N   UNL     1      -3.786   2.868  25.260  0.00  0.00    -0.207 NA
ATOM      7  C   UNL     1      -2.970   2.786  25.353  0.00  0.00    +0.155 C 
ATOM      8  C   UNL     1      -2.499   2.127  25.197  0.00  0.00    +0.055 C 
ATOM      9  C   UNL     1      -2.726   1.388  24.910  0.00  0.00    -0.002 A 
ATOM     10  C   UNL     1      -2.197   0.769  24.777  0.00  0.00    +0.072 A 
ATOM     11  N   UNL     1      -2.624   0.124  24.492  0.00  0.00    -0.322 N 
ATOM     19  C   UNL     1      -3.419   0.343  24.450  0.00  0.00    +0.060 A 
ATOM     20  C   UNL     1      -3.482   1.124  24.708  0.00  0.00    +0.011 A 
ATOM     21  C   UNL     1      -4.196   1.536  24.743  0.00  0.00    -0.005 A 
ATOM     22  C   UNL     1      -4.892   1.085  24.485  0.00  0.00    -0.003 A 
ATOM     23  C   UNL     1      -4.830   0.304  24.227  0.00  0.00    +0.001 A 
ATOM     24  C   UNL     1      -4.092  -0.067  24.209  0.00  0.00    +0.017 A 
ENDROOT
BRANCH   7  25
ATOM     25  C   UNL     1      -2.574   3.451  25.640  0.00  0.00    +0.258 C 
ATOM     26  O   UNL     1      -2.553   3.600  26.451  0.00  0.00    -0.272 OA
ATOM     27  N   UNL     1      -2.200   3.965  25.115  0.00  0.00    -0.190 NA
BRANCH  27  28
ATOM     28  C   UNL     1      -1.804   4.630  25.403  0.00  0.00    +0.191 C 
BRANCH  28  29
ATOM     29  C   UNL     1      -1.227   4.997  24.942  0.00  0.00    -0.054 C 
ATOM     30  C   UNL     1      -0.650   5.365  24.481  0.00  0.00    -0.012 C 
ENDBRANCH  28  29
ENDBRANCH  27  28
ENDBRANCH   7  25
BRANCH   5   4
ATOM      4  C   UNL     1      -5.116   2.564  24.959  0.00  0.00    +0.022 C 
BRANCH   4   2
ATOM      1  C   UNL     1      -5.653   2.681  26.278  0.00  0.00    +0.000 C 
ATOM      2  C   UNL     1      -5.422   3.031  25.568  0.00  0.00    +0.002 C 
ATOM      3  C   UNL     1      -5.497   3.846  25.465  0.00  0.00    +0.000 C 
ENDBRANCH   4   2
ENDBRANCH   5   4
BRANCH  11  12
ATOM     12  C   UNL     1      -2.314  -0.612  24.286  0.00  0.00    +0.133 C 
BRANCH  12  13
ATOM     13  C   UNL     1      -1.597  -0.863  24.609  0.00  0.00    +0.003 A 
ATOM     14  C   UNL     1      -0.891  -0.716  24.207  0.00  0.00    +0.018 A 
ATOM     15  C   UNL     1      -0.174  -0.967  24.530  0.00  0.00    +0.099 A 
ATOM     16  N   UNL     1      -0.163  -1.364  25.253  0.00  0.00    -0.242 NA
ATOM     17  C   UNL     1      -0.870  -1.510  25.654  0.00  0.00    +0.099 A 
ATOM     18  C   UNL     1      -1.587  -1.259  25.332  0.00  0.00    +0.018 A 
ENDBRANCH  12  13
ENDBRANCH  11  12
TORSDOF 7
ENDMDL
MODEL 8
REMARK VINA RESULT:     -10.2      1.703      3.472
REMARK  Name = 
REMARK  7 active torsions:
REMARK  status: ('A' for Active; 'I' for Inactive)
REMARK    1  A    between atoms: C_2  and  C_4
REMARK    2  A    between atoms: C_4  and  C_5
REMARK    3  A    between atoms: C_7  and  C_25
REMARK    4  A    between atoms: N_11  and  C_12
REMARK    5  A    between atoms: C_12  and  C_13
REMARK    6  A    between atoms: N_27  and  C_28
REMARK    7  A    between atoms: C_28  and  C_29
REMARK                            x       y       z     vdW  Elec       q    Type
REMARK                         _______ _______ _______ _____ _____    ______ ____
ROOT
ATOM      5  C   UNL     1      -2.595  -1.241  24.538  0.00  0.00    +0.095 C 
ATOM      6  N   UNL     1      -3.321  -0.851  24.525  0.00  0.00    -0.207 NA
ATOM      7  C   UNL     1      -3.469  -0.038  24.524  0.00  0.00    +0.155 C 
ATOM      8  C   UNL     1      -2.926   0.582  24.535  0.00  0.00    +0.055 C 
ATOM      9  C   UNL     1      -2.102   0.546  24.550  0.00  0.00    -0.002 A 
ATOM     10  C   UNL     1      -1.617   1.213  24.560  0.00  0.00    +0.072 A 
ATOM     11  N   UNL     1      -0.832   0.958  24.574  0.00  0.00    -0.322 N 
ATOM     19  C   UNL     1      -0.832   0.133  24.573  0.00  0.00    +0.060 A 
ATOM     20  C   UNL     1      -1.617  -0.122  24.558  0.00  0.00    +0.011 A 
ATOM     21  C   UNL     1      -1.837  -0.918  24.553  0.00  0.00    -0.005 A 
ATOM     22  C   UNL     1      -1.176  -1.481  24.564  0.00  0.00    -0.003 A 
ATOM     23  C   UNL     1      -0.392  -1.227  24.579  0.00  0.00    +0.001 A 
ATOM     24  C   UNL     1      -0.220  -0.419  24.583  0.00  0.00    +0.017 A 
ENDROOT
BRANCH   7  25
ATOM     25  C   UNL     1      -4.264   0.181  24.509  0.00  0.00    +0.258 C 
ATOM     26  O   UNL     1      -4.764  -0.118  23.923  0.00  0.00    -0.272 OA
ATOM     27  N   UNL     1      -4.560   0.698  25.079  0.00  0.00    -0.190 NA
BRANCH  27  28
ATOM     28  C   UNL     1      -5.355   0.917  25.064  0.00  0.00    +0.191 C 
BRANCH  28  29
ATOM     29  C   UNL     1      -5.608   1.583  25.481  0.00  0.00    -0.054 C 
ATOM     30  C   UNL     1      -5.860   2.248  25.898  0.00  0.00    -0.012 C 
ENDBRANCH  28  29
ENDBRANCH  27  28
ENDBRANCH   7  25
BRANCH   5   4
ATOM      4  C   UNL     1      -2.633  -2.065  24.536  0.00  0.00    +0.022 C 
BRANCH   4   2
ATOM      1  C   UNL     1      -3.858  -2.782  24.370  0.00  0.00    +0.000 C 
ATOM      2  C   UNL     1      -3.287  -2.449  24.863  0.00  0.00    +0.002 C 
ATOM      3  C   UNL     1      -3.368  -2.499  25.683  0.00  0.00    +0.000 C 
ENDBRANCH   4   2
ENDBRANCH   5   4
BRANCH  11  12
ATOM     12  C   UNL     1      -0.165   1.442  24.587  0.00  0.00    +0.133 C 
BRANCH  12  13
ATOM     13  C   UNL     1      -0.223   2.218  24.860  0.00  0.00    +0.003 A 
ATOM     14  C   UNL     1      -0.131   2.381  25.663  0.00  0.00    +0.018 A 
ATOM     15  C   UNL     1      -0.189   3.158  25.936  0.00  0.00    +0.099 A 
ATOM     16  N   UNL     1      -0.338   3.771  25.404  0.00  0.00    -0.242 NA
ATOM     17  C   UNL     1      -0.430   3.608  24.601  0.00  0.00    +0.099 A 
ATOM     18  C   UNL     1      -0.372   2.831  24.328  0.00  0.00    +0.018 A 
ENDBRANCH  12  13
ENDBRANCH  11  12
TORSDOF 7
ENDMDL
MODEL 9
REMARK VINA RESULT:      -8.1     15.635     18.364
REMARK  Name = 
REMARK  7 active torsions:
REMARK  status: ('A' for Active; 'I' for Inactive)
REMARK    1  A    between atoms: C_2  and  C_4
REMARK    2  A    between atoms: C_4  and  C_5
REMARK    3  A    between atoms: C_7  and  C_25
REMARK    4  A    between atoms: N_11  and  C_12
REMARK    5  A    between atoms: C_12  and  C_13
REMARK    6  A    between atoms: N_27  and  C_28
REMARK    7  A    between atoms: C_28  and  C_29
REMARK                            x       y       z     vdW  Elec       q    Type
REMARK                         _______ _______ _______ _____ _____    ______ ____
ROOT
ATOM      5  C   UNL     1      13.398   8.095  17.857  0.00  0.00    +0.095 C 
ATOM      6  N   UNL     1      14.104   8.018  18.275  0.00  0.00    -0.207 NA
ATOM      7  C   UNL     1      14.234   8.102  19.086  0.00  0.00    +0.155 C 
ATOM      8  C   UNL     1      13.689   8.282  19.678  0.00  0.00    +0.055 C 
ATOM      9  C   UNL     1      12.879   8.424  19.606  0.00  0.00    -0.002 A 
ATOM     10  C   UNL     1      12.389   8.601  20.246  0.00  0.00    +0.072 A 
ATOM     11  N   UNL     1      11.623   8.706  19.959  0.00  0.00    -0.322 N 
ATOM     19  C   UNL     1      11.638   8.595  19.142  0.00  0.00    +0.060 A 
ATOM     20  C   UNL     1      12.415   8.420  18.923  0.00  0.00    +0.011 A 
ATOM     21  C   UNL     1      12.647   8.273  18.145  0.00  0.00    -0.005 A 
ATOM     22  C   UNL     1      12.007   8.315  17.559  0.00  0.00    -0.003 A 
ATOM     23  C   UNL     1      11.231   8.489  17.776  0.00  0.00    +0.001 A 
ATOM     24  C   UNL     1      11.047   8.629  18.569  0.00  0.00    +0.017 A 
ENDROOT
BRANCH   7  25
ATOM     25  C   UNL     1      15.012   7.989  19.338  0.00  0.00    +0.258 C 
ATOM     26  O   UNL     1      15.467   8.638  19.570  0.00  0.00    -0.272 OA
ATOM     27  N   UNL     1      15.334   7.230  19.357  0.00  0.00    -0.190 NA
BRANCH  27  28
ATOM     28  C   UNL     1      16.112   7.119  19.608  0.00  0.00    +0.191 C 
BRANCH  28  29
ATOM     29  C   UNL     1      16.531   6.451  19.368  0.00  0.00    -0.054 C 
ATOM     30  C   UNL     1      16.951   5.782  19.128  0.00  0.00    -0.012 C 
ENDBRANCH  28  29
ENDBRANCH  27  28
ENDBRANCH   7  25
BRANCH   5   4
ATOM      4  C   UNL     1      13.450   7.977  17.042  0.00  0.00    +0.022 C 
BRANCH   4   2
ATOM      1  C   UNL     1      14.671   7.770  16.328  0.00  0.00    +0.000 C 
ATOM      2  C   UNL     1      14.094   8.280  16.622  0.00  0.00    +0.002 C 
ATOM      3  C   UNL     1      14.158   9.093  16.497  0.00  0.00    +0.000 C 
ENDBRANCH   4   2
ENDBRANCH   5   4
BRANCH  11  12
ATOM     12  C   UNL     1      10.957   8.891  20.410  0.00  0.00    +0.133 C 
BRANCH  12  13
ATOM     13  C   UNL     1      10.878   8.588  21.173  0.00  0.00    +0.003 A 
ATOM     14  C   UNL     1      11.053   9.062  21.825  0.00  0.00    +0.018 A 
ATOM     15  C   UNL     1      10.973   8.759  22.589  0.00  0.00    +0.099 A 
ATOM     16  N   UNL     1      10.720   7.982  22.700  0.00  0.00    -0.242 NA
ATOM     17  C   UNL     1      10.546   7.508  22.047  0.00  0.00    +0.099 A 
ATOM     18  C   UNL     1      10.625   7.810  21.284  0.00  0.00    +0.018 A 
ENDBRANCH  12  13
ENDBRANCH  11  12
TORSDOF 7
ENDMDL
