REMARK  Name = 
REMARK  7 active torsions:
REMARK  status: ('A' for Active; 'I' for Inactive)
REMARK    1  A    between atoms: O_2  and  C_3
REMARK    2  A    between atoms: C_5  and  N_11
REMARK    3  A    between atoms: C_7  and  O_8
REMARK    4  A    between atoms: C_16  and  N_22
REMARK    5  A    between atoms: C_23  and  C_25
REMARK    6  A    between atoms: C_28  and  S_29
REMARK    7  A    between atoms: C_32  and  O_33
REMARK                            x       y       z     vdW  Elec       q    Type
REMARK                         _______ _______ _______ _____ _____    ______ ____
ROOT
ATOM     11  N   UNL     1       0.654  -0.698   0.000  0.00  0.00    -0.191 N 
ATOM     12  C   UNL     1       1.139  -0.030   0.000  0.00  0.00    +0.254 C 
ATOM     13  O   UNL     1       0.884   0.754   0.000  0.00  0.00    -0.272 OA
ATOM     14  C   UNL     1       1.923  -0.285   0.000  0.00  0.00    +0.156 C 
ATOM     15  C   UNL     1       2.638   0.127   0.000  0.00  0.00    +0.051 C 
ATOM     16  C   UNL     1       3.352  -0.285   0.000  0.00  0.00    +0.099 C 
ATOM     17  C   UNL     1       3.352  -1.110   0.000  0.00  0.00    +0.043 C 
ATOM     18  C   UNL     1       2.638  -1.523   0.000  0.00  0.00    +0.097 C 
ATOM     19  N   UNL     1       1.923  -1.110   0.000  0.00  0.00    -0.257 N 
ATOM     20  C   UNL     1       1.139  -1.365   0.000  0.00  0.00    +0.317 C 
ATOM     21  O   UNL     1       0.884  -2.150   0.000  0.00  0.00    -0.252 OA
ENDROOT
BRANCH  11   5
ATOM      3  C   UNL     1      -1.409   0.017   0.000  0.00  0.00    +0.143 A 
ATOM      4  C   UNL     1      -0.584   0.017   0.000  0.00  0.00    +0.052 A 
ATOM      5  C   UNL     1      -0.171  -0.698   0.000  0.00  0.00    +0.068 A 
ATOM      6  C   UNL     1      -0.584  -1.412   0.000  0.00  0.00    +0.052 A 
ATOM      7  C   UNL     1      -1.409  -1.412   0.000  0.00  0.00    +0.143 A 
ATOM     10  C   UNL     1      -1.821  -0.698   0.000  0.00  0.00    +0.074 A 
BRANCH   3   2
ATOM      1  C   UNL     1      -2.646   0.731   0.000  0.00  0.00    +0.252 C 
ATOM      2  O   UNL     1      -1.821   0.731   0.000  0.00  0.00    -0.471 OA
ENDBRANCH   3   2
BRANCH   7   8
ATOM      8  O   UNL     1      -1.821  -2.127   0.000  0.00  0.00    -0.471 OA
ATOM      9  C   UNL     1      -2.646  -2.127   0.000  0.00  0.00    +0.252 C 
ENDBRANCH   7   8
ENDBRANCH  11   5
BRANCH  16  22
ATOM     22  N   UNL     1       4.067   0.127   0.000  0.00  0.00    -0.203 NA
ATOM     23  C   UNL     1       4.067   0.952   0.000  0.00  0.00    +0.268 C 
ATOM     24  O   UNL     1       3.352   1.365   0.000  0.00  0.00    -0.268 OA
BRANCH  23  25
ATOM     25  C   UNL     1       4.781   1.365   0.000  0.00  0.00    +0.089 A 
ATOM     26  C   UNL     1       4.781   2.190   0.000  0.00  0.00    +0.008 A 
ATOM     27  C   UNL     1       5.496   2.602   0.000  0.00  0.00    +0.006 A 
ATOM     28  C   UNL     1       6.210   2.190   0.000  0.00  0.00    +0.028 A 
ATOM     31  C   UNL     1       6.210   1.365   0.000  0.00  0.00    +0.043 A 
ATOM     32  C   UNL     1       5.496   0.952   0.000  0.00  0.00    +0.144 A 
BRANCH  28  29
ATOM     29  S   UNL     1       6.925   2.602   0.000  0.00  0.00    -0.113 S 
ATOM     30  C   UNL     1       6.925   3.427   0.000  0.00  0.00    +0.074 C 
ENDBRANCH  28  29
BRANCH  32  33
ATOM     33  O   UNL     1       5.496   0.127   0.000  0.00  0.00    -0.471 OA
ATOM     34  C   UNL     1       4.781  -0.285   0.000  0.00  0.00    +0.252 C 
ENDBRANCH  32  33
ENDBRANCH  23  25
ENDBRANCH  16  22
TORSDOF 7
