MODEL 1
REMARK VINA RESULT:      -9.1      0.000      0.000
REMARK  Name = 
REMARK  8 active torsions:
REMARK  status: ('A' for Active; 'I' for Inactive)
REMARK    1  A    between atoms: O_2  and  C_3
REMARK    2  A    between atoms: C_6  and  C_11
REMARK    3  A    between atoms: C_8  and  O_9
REMARK    4  A    between atoms: C_15  and  C_17
REMARK    5  A    between atoms: C_24  and  C_25
REMARK    6  A    between atoms: C_25  and  O_26
REMARK    7  A    between atoms: O_26  and  C_27
REMARK    8  A    between atoms: N_29  and  C_30
REMARK                            x       y       z     vdW  Elec       q    Type
REMARK                         _______ _______ _______ _____ _____    ______ ____
ROOT
ATOM     11  C   UNL     1      -2.350   1.571  24.816  0.00  0.00    +0.102 A 
ATOM     12  N   UNL     1      -1.853   1.738  25.452  0.00  0.00    -0.170 NA
ATOM     13  N   UNL     1      -1.087   1.516  25.241  0.00  0.00    -0.253 N 
ATOM     14  C   UNL     1      -0.414   1.587  25.714  0.00  0.00    +0.153 C 
ATOM     15  C   UNL     1      -1.111   1.212  24.475  0.00  0.00    +0.058 A 
ATOM     16  C   UNL     1      -1.892   1.245  24.211  0.00  0.00    +0.035 A 
ENDROOT
BRANCH  15  17
ATOM     17  C   UNL     1      -0.466   0.923  24.047  0.00  0.00    +0.056 C 
ATOM     18  C   UNL     1       0.022   1.447  23.742  0.00  0.00    +0.078 C 
ATOM     19  N   UNL     1       0.086   0.627  23.679  0.00  0.00    -0.270 NA
ATOM     20  C   UNL     1      -0.725   0.212  24.197  0.00  0.00    +0.072 C 
ATOM     21  C   UNL     1      -1.061  -0.310  24.403  0.00  0.00    +0.018 C 
ATOM     22  C   UNL     1      -0.396   0.119  23.981  0.00  0.00    +0.010 C 
ATOM     23  C   UNL     1       0.197  -0.388  23.580  0.00  0.00    +0.020 C 
ATOM     24  C   UNL     1       0.699   0.093  23.265  0.00  0.00    +0.102 C 
BRANCH  24  25
ATOM     25  C   UNL     1       1.390   0.116  22.815  0.00  0.00    +0.226 C 
BRANCH  25  26
ATOM     26  O   UNL     1       2.108  -0.111  23.151  0.00  0.00    -0.432 OA
BRANCH  26  27
ATOM     27  C   UNL     1       2.819   0.132  22.810  0.00  0.00    +0.421 C 
ATOM     28  O   UNL     1       2.895   0.155  21.989  0.00  0.00    -0.225 OA
ATOM     29  N   UNL     1       3.453   0.352  23.290  0.00  0.00    -0.170 NA
BRANCH  29  30
ATOM     30  C   UNL     1       4.164   0.595  22.948  0.00  0.00    +0.099 C 
ATOM     31  C   UNL     1       4.177   1.248  22.444  0.00  0.00    +0.024 C 
ATOM     32  C   UNL     1       4.861   0.185  23.109  0.00  0.00    +0.024 C 
ENDBRANCH  29  30
ENDBRANCH  26  27
ENDBRANCH  25  26
ENDBRANCH  24  25
ENDBRANCH  15  17
BRANCH  11   6
ATOM      3  C   UNL     1      -4.791   1.975  24.732  0.00  0.00    +0.172 A 
ATOM      4  C   UNL     1      -4.503   1.239  24.969  0.00  0.00    +0.040 A 
ATOM      5  C   UNL     1      -3.689   1.105  24.997  0.00  0.00    +0.005 A 
ATOM      6  C   UNL     1      -3.164   1.705  24.788  0.00  0.00    +0.023 A 
ATOM      7  C   UNL     1      -3.452   2.441  24.550  0.00  0.00    +0.042 A 
ATOM      8  C   UNL     1      -4.267   2.576  24.523  0.00  0.00    +0.172 A 
BRANCH   3   2
ATOM      1  C   UNL     1      -6.124   1.570  25.052  0.00  0.00    +0.253 C 
ATOM      2  O   UNL     1      -5.605   2.110  24.704  0.00  0.00    -0.468 OA
ENDBRANCH   3   2
BRANCH   8   9
ATOM      9  O   UNL     1      -4.555   3.312  24.285  0.00  0.00    -0.468 OA
ATOM     10  C   UNL     1      -4.061   3.972  24.301  0.00  0.00    +0.253 C 
ENDBRANCH   8   9
ENDBRANCH  11   6
TORSDOF 8
ENDMDL
MODEL 2
REMARK VINA RESULT:      -8.8      1.139      1.604
REMARK  Name = 
REMARK  8 active torsions:
REMARK  status: ('A' for Active; 'I' for Inactive)
REMARK    1  A    between atoms: O_2  and  C_3
REMARK    2  A    between atoms: C_6  and  C_11
REMARK    3  A    between atoms: C_8  and  O_9
REMARK    4  A    between atoms: C_15  and  C_17
REMARK    5  A    between atoms: C_24  and  C_25
REMARK    6  A    between atoms: C_25  and  O_26
REMARK    7  A    between atoms: O_26  and  C_27
REMARK    8  A    between atoms: N_29  and  C_30
REMARK                            x       y       z     vdW  Elec       q    Type
REMARK                         _______ _______ _______ _____ _____    ______ ____
ROOT
ATOM     11  C   UNL     1      -3.370   1.870  24.109  0.00  0.00    +0.102 A 
ATOM     12  N   UNL     1      -3.329   2.044  23.304  0.00  0.00    -0.170 NA
ATOM     13  N   UNL     1      -2.560   1.892  23.049  0.00  0.00    -0.253 N 
ATOM     14  C   UNL     1      -2.275   1.990  22.281  0.00  0.00    +0.153 C 
ATOM     15  C   UNL     1      -2.125   1.623  23.697  0.00  0.00    +0.058 A 
ATOM     16  C   UNL     1      -2.626   1.609  24.353  0.00  0.00    +0.035 A 
ENDROOT
BRANCH  15  17
ATOM     17  C   UNL     1      -1.328   1.406  23.690  0.00  0.00    +0.056 C 
ATOM     18  C   UNL     1      -1.131   0.791  23.256  0.00  0.00    +0.078 C 
ATOM     19  N   UNL     1      -0.619   1.250  23.713  0.00  0.00    -0.270 NA
ATOM     20  C   UNL     1      -1.196   1.996  24.171  0.00  0.00    +0.072 C 
ATOM     21  C   UNL     1      -1.245   2.516  24.562  0.00  0.00    +0.018 C 
ATOM     22  C   UNL     1      -0.820   1.852  24.135  0.00  0.00    +0.010 C 
ATOM     23  C   UNL     1       0.046   1.799  24.269  0.00  0.00    +0.020 C 
ATOM     24  C   UNL     1       0.281   1.201  23.856  0.00  0.00    +0.102 C 
BRANCH  24  25
ATOM     25  C   UNL     1       0.953   0.767  23.657  0.00  0.00    +0.226 C 
BRANCH  25  26
ATOM     26  O   UNL     1       1.658   1.158  23.480  0.00  0.00    -0.432 OA
BRANCH  26  27
ATOM     27  C   UNL     1       2.287   0.742  23.145  0.00  0.00    +0.421 C 
ATOM     28  O   UNL     1       2.175  -0.029  22.877  0.00  0.00    -0.225 OA
ATOM     29  N   UNL     1       3.029   1.098  23.080  0.00  0.00    -0.170 NA
BRANCH  29  30
ATOM     30  C   UNL     1       3.658   0.682  22.745  0.00  0.00    +0.099 C 
ATOM     31  C   UNL     1       4.319   0.496  23.203  0.00  0.00    +0.024 C 
ATOM     32  C   UNL     1       3.626   0.452  21.954  0.00  0.00    +0.024 C 
ENDBRANCH  29  30
ENDBRANCH  26  27
ENDBRANCH  25  26
ENDBRANCH  24  25
ENDBRANCH  15  17
BRANCH  11   6
ATOM      3  C   UNL     1      -5.374   2.090  25.546  0.00  0.00    +0.172 A 
ATOM      4  C   UNL     1      -5.124   1.344  25.298  0.00  0.00    +0.040 A 
ATOM      5  C   UNL     1      -4.456   1.271  24.820  0.00  0.00    +0.005 A 
ATOM      6  C   UNL     1      -4.038   1.943  24.588  0.00  0.00    +0.023 A 
ATOM      7  C   UNL     1      -4.288   2.689  24.835  0.00  0.00    +0.042 A 
ATOM      8  C   UNL     1      -4.957   2.763  25.314  0.00  0.00    +0.172 A 
BRANCH   3   2
ATOM      1  C   UNL     1      -6.393   1.490  26.348  0.00  0.00    +0.253 C 
ATOM      2  O   UNL     1      -6.042   2.163  26.024  0.00  0.00    -0.468 OA
ENDBRANCH   3   2
BRANCH   8   9
ATOM      9  O   UNL     1      -5.208   3.509  25.562  0.00  0.00    -0.468 OA
ATOM     10  C   UNL     1      -4.729   4.168  25.432  0.00  0.00    +0.253 C 
ENDBRANCH   8   9
ENDBRANCH  11   6
TORSDOF 8
ENDMDL
MODEL 3
REMARK VINA RESULT:      -6.9      1.116      6.467
REMARK  Name = 
REMARK  8 active torsions:
REMARK  status: ('A' for Active; 'I' for Inactive)
REMARK    1  A    between atoms: O_2  and  C_3
REMARK    2  A    between atoms: C_6  and  C_11
REMARK    3  A    between atoms: C_8  and  O_9
REMARK    4  A    between atoms: C_15  and  C_17
REMARK    5  A    between atoms: C_24  and  C_25
REMARK    6  A    between atoms: C_25  and  O_26
REMARK    7  A    between atoms: O_26  and  C_27
REMARK    8  A    between atoms: N_29  and  C_30
REMARK                            x       y       z     vdW  Elec       q    Type
REMARK                         _______ _______ _______ _____ _____    ______ ____
ROOT
ATOM     11  C   UNL     1       0.334   0.489  23.762  0.00  0.00    +0.102 A 
ATOM     12  N   UNL     1      -0.005  -0.112  24.213  0.00  0.00    -0.170 NA
ATOM     13  N   UNL     1      -0.728   0.162  24.500  0.00  0.00    -0.253 N 
ATOM     14  C   UNL     1      -1.253  -0.260  24.978  0.00  0.00    +0.153 C 
ATOM     15  C   UNL     1      -0.836   0.933  24.227  0.00  0.00    +0.058 A 
ATOM     16  C   UNL     1      -0.180   1.135  23.770  0.00  0.00    +0.035 A 
ENDROOT
BRANCH  15  17
ATOM     17  C   UNL     1      -1.487   1.417  24.383  0.00  0.00    +0.056 C 
ATOM     18  C   UNL     1      -2.160   1.229  24.041  0.00  0.00    +0.078 C 
ATOM     19  N   UNL     1      -2.032   1.868  24.547  0.00  0.00    -0.270 NA
ATOM     20  C   UNL     1      -1.024   1.840  24.833  0.00  0.00    +0.072 C 
ATOM     21  C   UNL     1      -0.521   2.089  25.168  0.00  0.00    +0.018 C 
ATOM     22  C   UNL     1      -1.369   2.046  24.879  0.00  0.00    +0.010 C 
ATOM     23  C   UNL     1      -1.909   2.672  25.173  0.00  0.00    +0.020 C 
ATOM     24  C   UNL     1      -2.588   2.522  24.857  0.00  0.00    +0.102 C 
BRANCH  24  25
ATOM     25  C   UNL     1      -3.366   2.793  24.819  0.00  0.00    +0.226 C 
BRANCH  25  26
ATOM     26  O   UNL     1      -3.848   2.757  25.487  0.00  0.00    -0.432 OA
BRANCH  26  27
ATOM     27  C   UNL     1      -4.669   2.749  25.404  0.00  0.00    +0.421 C 
ATOM     28  O   UNL     1      -5.057   3.406  25.090  0.00  0.00    -0.225 OA
ATOM     29  N   UNL     1      -5.101   2.085  25.634  0.00  0.00    -0.170 NA
BRANCH  29  30
ATOM     30  C   UNL     1      -5.922   2.078  25.551  0.00  0.00    +0.099 C 
ATOM     31  C   UNL     1      -6.262   1.853  24.834  0.00  0.00    +0.024 C 
ATOM     32  C   UNL     1      -6.403   2.297  26.185  0.00  0.00    +0.024 C 
ENDBRANCH  29  30
ENDBRANCH  26  27
ENDBRANCH  25  26
ENDBRANCH  24  25
ENDBRANCH  15  17
BRANCH  11   6
ATOM      3  C   UNL     1       2.510   0.375  22.587  0.00  0.00    +0.172 A 
ATOM      4  C   UNL     1       2.449   0.778  23.305  0.00  0.00    +0.040 A 
ATOM      5  C   UNL     1       1.723   0.816  23.696  0.00  0.00    +0.005 A 
ATOM      6  C   UNL     1       1.059   0.451  23.371  0.00  0.00    +0.023 A 
ATOM      7  C   UNL     1       1.120   0.049  22.653  0.00  0.00    +0.042 A 
ATOM      8  C   UNL     1       1.846   0.011  22.261  0.00  0.00    +0.172 A 
BRANCH   3   2
ATOM      1  C   UNL     1       3.910   0.658  22.547  0.00  0.00    +0.253 C 
ATOM      2  O   UNL     1       3.235   0.338  22.196  0.00  0.00    -0.468 OA
ENDBRANCH   3   2
BRANCH   8   9
ATOM      9  O   UNL     1       1.907  -0.392  21.543  0.00  0.00    -0.468 OA
ATOM     10  C   UNL     1       1.236  -0.729  21.202  0.00  0.00    +0.253 C 
ENDBRANCH   8   9
ENDBRANCH  11   6
TORSDOF 8
ENDMDL
MODEL 4
REMARK VINA RESULT:      -6.4      1.667      6.223
REMARK  Name = 
REMARK  8 active torsions:
REMARK  status: ('A' for Active; 'I' for Inactive)
REMARK    1  A    between atoms: O_2  and  C_3
REMARK    2  A    between atoms: C_6  and  C_11
REMARK    3  A    between atoms: C_8  and  O_9
REMARK    4  A    between atoms: C_15  and  C_17
REMARK    5  A    between atoms: C_24  and  C_25
REMARK    6  A    between atoms: C_25  and  O_26
REMARK    7  A    between atoms: O_26  and  C_27
REMARK    8  A    between atoms: N_29  and  C_30
REMARK                            x       y       z     vdW  Elec       q    Type
REMARK                         _______ _______ _______ _____ _____    ______ ____
ROOT
ATOM     11  C   UNL     1      -0.901  -0.189  24.318  0.00  0.00    +0.102 A 
ATOM     12  N   UNL     1      -1.057  -0.872  24.752  0.00  0.00    -0.170 NA
ATOM     13  N   UNL     1      -1.838  -0.834  25.016  0.00  0.00    -0.253 N 
ATOM     14  C   UNL     1      -2.224  -1.403  25.471  0.00  0.00    +0.153 C 
ATOM     15  C   UNL     1      -2.164  -0.127  24.745  0.00  0.00    +0.058 A 
ATOM     16  C   UNL     1      -1.586   0.272  24.313  0.00  0.00    +0.035 A 
ENDROOT
BRANCH  15  17
ATOM     17  C   UNL     1      -2.936   0.135  24.881  0.00  0.00    +0.056 C 
ATOM     18  C   UNL     1      -3.081   0.472  25.568  0.00  0.00    +0.078 C 
ATOM     19  N   UNL     1      -3.625   0.350  24.960  0.00  0.00    -0.270 NA
ATOM     20  C   UNL     1      -3.115  -0.125  24.177  0.00  0.00    +0.072 C 
ATOM     21  C   UNL     1      -3.110  -0.387  23.579  0.00  0.00    +0.018 C 
ATOM     22  C   UNL     1      -3.476   0.019  24.290  0.00  0.00    +0.010 C 
ATOM     23  C   UNL     1      -4.329   0.215  24.225  0.00  0.00    +0.020 C 
ATOM     24  C   UNL     1      -4.513   0.551  24.885  0.00  0.00    +0.102 C 
BRANCH  24  25
ATOM     25  C   UNL     1      -5.143   0.894  25.292  0.00  0.00    +0.226 C 
BRANCH  25  26
ATOM     26  O   UNL     1      -5.539   1.540  24.968  0.00  0.00    -0.432 OA
BRANCH  26  27
ATOM     27  C   UNL     1      -5.619   2.236  25.403  0.00  0.00    +0.421 C 
ATOM     28  O   UNL     1      -5.999   2.223  26.135  0.00  0.00    -0.225 OA
ATOM     29  N   UNL     1      -5.320   2.946  25.107  0.00  0.00    -0.170 NA
BRANCH  29  30
ATOM     30  C   UNL     1      -5.401   3.642  25.542  0.00  0.00    +0.099 C 
ATOM     31  C   UNL     1      -4.748   3.963  25.931  0.00  0.00    +0.024 C 
ATOM     32  C   UNL     1      -6.134   4.016  25.590  0.00  0.00    +0.024 C 
ENDBRANCH  29  30
ENDBRANCH  26  27
ENDBRANCH  25  26
ENDBRANCH  24  25
ENDBRANCH  15  17
BRANCH  11   6
ATOM      3  C   UNL     1       1.243   0.382  23.222  0.00  0.00    +0.172 A 
ATOM      4  C   UNL     1       0.888  -0.349  23.078  0.00  0.00    +0.040 A 
ATOM      5  C   UNL     1       0.174  -0.539  23.444  0.00  0.00    +0.005 A 
ATOM      6  C   UNL     1      -0.187   0.001  23.953  0.00  0.00    +0.023 A 
ATOM      7  C   UNL     1       0.168   0.732  24.096  0.00  0.00    +0.042 A 
ATOM      8  C   UNL     1       0.884   0.922  23.730  0.00  0.00    +0.172 A 
BRANCH   3   2
ATOM      1  C   UNL     1       2.406  -0.019  22.494  0.00  0.00    +0.253 C 
ATOM      2  O   UNL     1       1.958   0.572  22.856  0.00  0.00    -0.468 OA
ENDBRANCH   3   2
BRANCH   8   9
ATOM      9  O   UNL     1       1.239   1.653  23.874  0.00  0.00    -0.468 OA
ATOM     10  C   UNL     1       0.790   2.279  24.169  0.00  0.00    +0.253 C 
ENDBRANCH   8   9
ENDBRANCH  11   6
TORSDOF 8
ENDMDL
MODEL 5
REMARK VINA RESULT:      -6.2      3.626      5.320
REMARK  Name = 
REMARK  8 active torsions:
REMARK  status: ('A' for Active; 'I' for Inactive)
REMARK    1  A    between atoms: O_2  and  C_3
REMARK    2  A    between atoms: C_6  and  C_11
REMARK    3  A    between atoms: C_8  and  O_9
REMARK    4  A    between atoms: C_15  and  C_17
REMARK    5  A    between atoms: C_24  and  C_25
REMARK    6  A    between atoms: C_25  and  O_26
REMARK    7  A    between atoms: O_26  and  C_27
REMARK    8  A    between atoms: N_29  and  C_30
REMARK                            x       y       z     vdW  Elec       q    Type
REMARK                         _______ _______ _______ _____ _____    ______ ____
ROOT
ATOM     11  C   UNL     1      -3.476  -0.297  24.033  0.00  0.00    +0.102 A 
ATOM     12  N   UNL     1      -3.377   0.089  23.311  0.00  0.00    -0.170 NA
ATOM     13  N   UNL     1      -3.354   0.900  23.457  0.00  0.00    -0.253 N 
ATOM     14  C   UNL     1      -3.262   1.493  22.891  0.00  0.00    +0.153 C 
ATOM     15  C   UNL     1      -3.438   1.015  24.270  0.00  0.00    +0.058 A 
ATOM     16  C   UNL     1      -3.514   0.275  24.626  0.00  0.00    +0.035 A 
ENDROOT
BRANCH  15  17
ATOM     17  C   UNL     1      -3.445   1.744  24.658  0.00  0.00    +0.056 C 
ATOM     18  C   UNL     1      -2.764   2.113  24.735  0.00  0.00    +0.078 C 
ATOM     19  N   UNL     1      -3.496   2.381  25.006  0.00  0.00    -0.270 NA
ATOM     20  C   UNL     1      -4.207   1.655  24.745  0.00  0.00    +0.072 C 
ATOM     21  C   UNL     1      -4.824   1.440  24.739  0.00  0.00    +0.018 C 
ATOM     22  C   UNL     1      -4.160   2.013  24.927  0.00  0.00    +0.010 C 
ATOM     23  C   UNL     1      -4.390   2.744  25.355  0.00  0.00    +0.020 C 
ATOM     24  C   UNL     1      -3.743   3.138  25.451  0.00  0.00    +0.102 C 
BRANCH  24  25
ATOM     25  C   UNL     1      -3.444   3.837  25.770  0.00  0.00    +0.226 C 
BRANCH  25  26
ATOM     26  O   UNL     1      -3.184   4.440  25.271  0.00  0.00    -0.432 OA
BRANCH  26  27
ATOM     27  C   UNL     1      -2.454   4.799  25.403  0.00  0.00    +0.421 C 
ATOM     28  O   UNL     1      -2.231   5.010  26.168  0.00  0.00    -0.225 OA
ATOM     29  N   UNL     1      -1.946   4.947  24.769  0.00  0.00    -0.170 NA
BRANCH  29  30
ATOM     30  C   UNL     1      -1.215   5.307  24.902  0.00  0.00    +0.099 C 
ATOM     31  C   UNL     1      -1.162   6.129  24.946  0.00  0.00    +0.024 C 
ATOM     32  C   UNL     1      -0.538   4.845  24.991  0.00  0.00    +0.024 C 
ENDBRANCH  29  30
ENDBRANCH  26  27
ENDBRANCH  25  26
ENDBRANCH  24  25
ENDBRANCH  15  17
BRANCH  11   6
ATOM      3  C   UNL     1      -3.633  -2.745  24.364  0.00  0.00    +0.172 A 
ATOM      4  C   UNL     1      -4.283  -2.325  24.079  0.00  0.00    +0.040 A 
ATOM      5  C   UNL     1      -4.231  -1.509  23.969  0.00  0.00    +0.005 A 
ATOM      6  C   UNL     1      -3.529  -1.113  24.143  0.00  0.00    +0.023 A 
ATOM      7  C   UNL     1      -2.878  -1.533  24.428  0.00  0.00    +0.042 A 
ATOM      8  C   UNL     1      -2.931  -2.350  24.539  0.00  0.00    +0.172 A 
BRANCH   3   2
ATOM      1  C   UNL     1      -4.146  -4.017  23.964  0.00  0.00    +0.253 C 
ATOM      2  O   UNL     1      -3.685  -3.561  24.474  0.00  0.00    -0.468 OA
ENDBRANCH   3   2
BRANCH   8   9
ATOM      9  O   UNL     1      -2.280  -2.770  24.824  0.00  0.00    -0.468 OA
ATOM     10  C   UNL     1      -1.536  -2.414  24.844  0.00  0.00    +0.253 C 
ENDBRANCH   8   9
ENDBRANCH  11   6
TORSDOF 8
ENDMDL
MODEL 6
REMARK VINA RESULT:      -5.5     17.633     18.288
REMARK  Name = 
REMARK  8 active torsions:
REMARK  status: ('A' for Active; 'I' for Inactive)
REMARK    1  A    between atoms: O_2  and  C_3
REMARK    2  A    between atoms: C_6  and  C_11
REMARK    3  A    between atoms: C_8  and  O_9
REMARK    4  A    between atoms: C_15  and  C_17
REMARK    5  A    between atoms: C_24  and  C_25
REMARK    6  A    between atoms: C_25  and  O_26
REMARK    7  A    between atoms: O_26  and  C_27
REMARK    8  A    between atoms: N_29  and  C_30
REMARK                            x       y       z     vdW  Elec       q    Type
REMARK                         _______ _______ _______ _____ _____    ______ ____
ROOT
ATOM     11  C   UNL     1      -7.643  -8.002   8.791  0.00  0.00    +0.102 A 
ATOM     12  N   UNL     1      -7.232  -8.439   8.225  0.00  0.00    -0.170 NA
ATOM     13  N   UNL     1      -6.597  -8.808   8.599  0.00  0.00    -0.253 N 
ATOM     14  C   UNL     1      -6.041  -9.300   8.239  0.00  0.00    +0.153 C 
ATOM     15  C   UNL     1      -6.616  -8.600   9.397  0.00  0.00    +0.058 A 
ATOM     16  C   UNL     1      -7.262  -8.102   9.516  0.00  0.00    +0.035 A 
ENDROOT
BRANCH  15  17
ATOM     17  C   UNL     1      -6.080  -8.848   9.976  0.00  0.00    +0.056 C 
ATOM     18  C   UNL     1      -5.377  -8.515   9.976  0.00  0.00    +0.078 C 
ATOM     19  N   UNL     1      -5.642  -9.095  10.500  0.00  0.00    -0.270 NA
ATOM     20  C   UNL     1      -6.628  -9.328  10.231  0.00  0.00    +0.072 C 
ATOM     21  C   UNL     1      -7.176  -9.670  10.326  0.00  0.00    +0.018 C 
ATOM     22  C   UNL     1      -6.333  -9.416  10.494  0.00  0.00    +0.010 C 
ATOM     23  C   UNL     1      -5.938  -9.814  11.169  0.00  0.00    +0.020 C 
ATOM     24  C   UNL     1      -5.237  -9.512  11.203  0.00  0.00    +0.102 C 
BRANCH  24  25
ATOM     25  C   UNL     1      -4.531  -9.545  11.627  0.00  0.00    +0.226 C 
BRANCH  25  26
ATOM     26  O   UNL     1      -4.051 -10.214  11.577  0.00  0.00    -0.432 OA
BRANCH  26  27
ATOM     27  C   UNL     1      -3.309 -10.218  11.938  0.00  0.00    +0.421 C 
ATOM     28  O   UNL     1      -3.252 -10.200  12.761  0.00  0.00    -0.225 OA
ATOM     29  N   UNL     1      -2.625 -10.241  11.477  0.00  0.00    -0.170 NA
BRANCH  29  30
ATOM     30  C   UNL     1      -1.884 -10.246  11.840  0.00  0.00    +0.099 C 
ATOM     31  C   UNL     1      -1.302  -9.715  11.594  0.00  0.00    +0.024 C 
ATOM     32  C   UNL     1      -1.724 -10.781  12.447  0.00  0.00    +0.024 C 
ENDBRANCH  29  30
ENDBRANCH  26  27
ENDBRANCH  25  26
ENDBRANCH  24  25
ENDBRANCH  15  17
BRANCH  11   6
ATOM      3  C   UNL     1      -9.666  -6.633   8.388  0.00  0.00    +0.172 A 
ATOM      4  C   UNL     1      -8.921  -6.338   8.189  0.00  0.00    +0.040 A 
ATOM      5  C   UNL     1      -8.247  -6.795   8.324  0.00  0.00    +0.005 A 
ATOM      6  C   UNL     1      -8.317  -7.546   8.657  0.00  0.00    +0.023 A 
ATOM      7  C   UNL     1      -9.061  -7.841   8.856  0.00  0.00    +0.042 A 
ATOM      8  C   UNL     1      -9.736  -7.384   8.721  0.00  0.00    +0.172 A 
BRANCH   3   2
ATOM      1  C   UNL     1     -10.271  -5.360   8.155  0.00  0.00    +0.253 C 
ATOM      2  O   UNL     1     -10.339  -6.177   8.254  0.00  0.00    -0.468 OA
ENDBRANCH   3   2
BRANCH   8   9
ATOM      9  O   UNL     1     -10.480  -7.679   8.921  0.00  0.00    -0.468 OA
ATOM     10  C   UNL     1     -10.629  -8.489   8.872  0.00  0.00    +0.253 C 
ENDBRANCH   8   9
ENDBRANCH  11   6
TORSDOF 8
ENDMDL
