MODEL 1
REMARK VINA RESULT:      -9.4      0.000      0.000
REMARK  Name = 
REMARK  7 active torsions:
REMARK  status: ('A' for Active; 'I' for Inactive)
REMARK    1  A    between atoms: C_2  and  C_4
REMARK    2  A    between atoms: C_4  and  C_5
REMARK    3  A    between atoms: C_5  and  C_6
REMARK    4  A    between atoms: C_6  and  C_7
REMARK    5  A    between atoms: N_9  and  C_10
REMARK    6  A    between atoms: C_14  and  N_18
REMARK    7  A    between atoms: C_21  and  C_25
REMARK                            x       y       z     vdW  Elec       q    Type
REMARK                         _______ _______ _______ _____ _____    ______ ____
ROOT
ATOM     10  C   UNL     1      -1.889   2.049  23.887  0.00  0.00    +0.154 C 
ATOM     11  C   UNL     1      -1.429   2.731  23.948  0.00  0.00    +0.166 C 
ATOM     12  O   UNL     1      -0.638   2.500  23.984  0.00  0.00    -0.350 OA
ATOM     13  C   UNL     1      -0.609   1.678  23.946  0.00  0.00    +0.166 C 
ATOM     14  C   UNL     1      -0.103   1.026  23.945  0.00  0.00    +0.154 C 
ATOM     15  C   UNL     1      -0.564   0.344  23.885  0.00  0.00    +0.166 C 
ATOM     16  O   UNL     1      -1.355   0.575  23.848  0.00  0.00    -0.350 OA
ATOM     17  C   UNL     1      -1.383   1.399  23.886  0.00  0.00    +0.166 C 
ENDROOT
BRANCH  14  18
ATOM     18  N   UNL     1       0.720   1.051  23.996  0.00  0.00    -0.200 NA
ATOM     19  C   UNL     1       1.181   0.649  23.442  0.00  0.00    +0.237 A 
ATOM     20  N   UNL     1       2.003   0.675  23.492  0.00  0.00    -0.212 NA
ATOM     21  C   UNL     1       2.464   0.273  22.938  0.00  0.00    +0.086 A 
ATOM     22  C   UNL     1       2.101  -0.155  22.333  0.00  0.00    +0.040 A 
ATOM     23  C   UNL     1       1.278  -0.181  22.283  0.00  0.00    +0.103 A 
ATOM     24  N   UNL     1       0.818   0.221  22.837  0.00  0.00    -0.211 NA
BRANCH  21  25
ATOM     25  C   UNL     1       3.286   0.298  22.988  0.00  0.00    +0.018 A 
ATOM     26  C   UNL     1       3.698  -0.327  23.338  0.00  0.00    +0.001 A 
ATOM     27  C   UNL     1       4.521  -0.302  23.388  0.00  0.00    +0.000 A 
ATOM     28  C   UNL     1       4.933   0.348  23.090  0.00  0.00    +0.000 A 
ATOM     29  C   UNL     1       4.522   0.972  22.741  0.00  0.00    +0.000 A 
ATOM     30  C   UNL     1       3.698   0.947  22.691  0.00  0.00    +0.001 A 
ENDBRANCH  21  25
ENDBRANCH  14  18
BRANCH  10   9
ATOM      7  C   UNL     1      -3.173   2.468  24.358  0.00  0.00    +0.241 C 
ATOM      8  O   UNL     1      -2.808   2.939  24.929  0.00  0.00    -0.273 OA
ATOM      9  N   UNL     1      -2.713   2.023  23.837  0.00  0.00    -0.202 NA
BRANCH   7   6
ATOM      6  C   UNL     1      -3.995   2.443  24.307  0.00  0.00    +0.087 C 
BRANCH   6   5
ATOM      5  C   UNL     1      -4.456   2.683  24.948  0.00  0.00    +0.019 C 
ATOM     31  C   UNL     1      -4.920   2.757  25.626  0.00  0.00    +0.001 C 
ATOM     32  C   UNL     1      -5.096   3.556  25.731  0.00  0.00    +0.000 C 
ATOM     33  C   UNL     1      -4.741   3.977  25.117  0.00  0.00    +0.000 C 
ATOM     34  C   UNL     1      -4.345   3.439  24.633  0.00  0.00    +0.001 C 
BRANCH   5   4
ATOM      4  C   UNL     1      -4.470   1.879  25.129  0.00  0.00    +0.115 C 
BRANCH   4   2
ATOM      1  O   UNL     1      -5.696   1.504  24.497  0.00  0.00    -0.246 OA
ATOM      2  C   UNL     1      -5.188   1.472  25.145  0.00  0.00    +0.365 C 
ATOM      3  O   UNL     1      -5.397   1.033  25.812  0.00  0.00    -0.246 OA
ENDBRANCH   4   2
ENDBRANCH   5   4
ENDBRANCH   6   5
ENDBRANCH   7   6
ENDBRANCH  10   9
TORSDOF 7
ENDMDL
MODEL 2
REMARK VINA RESULT:      -8.8      0.749      1.215
REMARK  Name = 
REMARK  7 active torsions:
REMARK  status: ('A' for Active; 'I' for Inactive)
REMARK    1  A    between atoms: C_2  and  C_4
REMARK    2  A    between atoms: C_4  and  C_5
REMARK    3  A    between atoms: C_5  and  C_6
REMARK    4  A    between atoms: C_6  and  C_7
REMARK    5  A    between atoms: N_9  and  C_10
REMARK    6  A    between atoms: C_14  and  N_18
REMARK    7  A    between atoms: C_21  and  C_25
REMARK                            x       y       z     vdW  Elec       q    Type
REMARK                         _______ _______ _______ _____ _____    ______ ____
ROOT
ATOM     10  C   UNL     1      -1.541   1.829  23.876  0.00  0.00    +0.154 C 
ATOM     11  C   UNL     1      -1.119   2.445  24.225  0.00  0.00    +0.166 C 
ATOM     12  O   UNL     1      -0.326   2.222  24.260  0.00  0.00    -0.350 OA
ATOM     13  C   UNL     1      -0.258   1.468  23.934  0.00  0.00    +0.166 C 
ATOM     14  C   UNL     1       0.274   0.864  23.754  0.00  0.00    +0.154 C 
ATOM     15  C   UNL     1      -0.149   0.247  23.405  0.00  0.00    +0.166 C 
ATOM     16  O   UNL     1      -0.942   0.470  23.369  0.00  0.00    -0.350 OA
ATOM     17  C   UNL     1      -1.009   1.225  23.696  0.00  0.00    +0.166 C 
ENDROOT
BRANCH  14  18
ATOM     18  N   UNL     1       1.086   0.874  23.897  0.00  0.00    -0.200 NA
ATOM     19  C   UNL     1       1.607   0.543  23.349  0.00  0.00    +0.237 A 
ATOM     20  N   UNL     1       2.419   0.554  23.493  0.00  0.00    -0.212 NA
ATOM     21  C   UNL     1       2.939   0.223  22.945  0.00  0.00    +0.086 A 
ATOM     22  C   UNL     1       2.647  -0.119  22.253  0.00  0.00    +0.040 A 
ATOM     23  C   UNL     1       1.835  -0.130  22.109  0.00  0.00    +0.103 A 
ATOM     24  N   UNL     1       1.315   0.201  22.658  0.00  0.00    -0.211 NA
BRANCH  21  25
ATOM     25  C   UNL     1       3.751   0.233  23.088  0.00  0.00    +0.018 A 
ATOM     26  C   UNL     1       4.119  -0.424  23.429  0.00  0.00    +0.001 A 
ATOM     27  C   UNL     1       4.931  -0.413  23.572  0.00  0.00    +0.000 A 
ATOM     28  C   UNL     1       5.376   0.253  23.376  0.00  0.00    +0.000 A 
ATOM     29  C   UNL     1       5.009   0.908  23.036  0.00  0.00    +0.000 A 
ATOM     30  C   UNL     1       4.197   0.898  22.892  0.00  0.00    +0.001 A 
ENDBRANCH  21  25
ENDBRANCH  14  18
BRANCH  10   9
ATOM      7  C   UNL     1      -2.885   1.871  24.362  0.00  0.00    +0.241 C 
ATOM      8  O   UNL     1      -2.603   1.934  25.135  0.00  0.00    -0.273 OA
ATOM      9  N   UNL     1      -2.354   1.818  23.732  0.00  0.00    -0.202 NA
BRANCH   7   6
ATOM      6  C   UNL     1      -3.697   1.860  24.218  0.00  0.00    +0.087 C 
BRANCH   6   5
ATOM      5  C   UNL     1      -4.204   1.470  24.740  0.00  0.00    +0.019 C 
ATOM     31  C   UNL     1      -4.731   1.237  25.330  0.00  0.00    +0.001 C 
ATOM     32  C   UNL     1      -4.851   0.424  25.258  0.00  0.00    +0.000 C 
ATOM     33  C   UNL     1      -4.398   0.154  24.624  0.00  0.00    +0.000 C 
ATOM     34  C   UNL     1      -3.998   0.800  24.304  0.00  0.00    +0.001 C 
BRANCH   5   4
ATOM      4  C   UNL     1      -4.304   2.220  25.067  0.00  0.00    +0.115 C 
BRANCH   4   2
ATOM      1  O   UNL     1      -5.387   2.721  24.281  0.00  0.00    -0.246 OA
ATOM      2  C   UNL     1      -5.035   2.599  25.016  0.00  0.00    +0.365 C 
ATOM      3  O   UNL     1      -5.415   2.856  25.702  0.00  0.00    -0.246 OA
ENDBRANCH   4   2
ENDBRANCH   5   4
ENDBRANCH   6   5
ENDBRANCH   7   6
ENDBRANCH  10   9
TORSDOF 7
ENDMDL
MODEL 3
REMARK VINA RESULT:      -7.6      1.875      7.164
REMARK  Name = 
REMARK  7 active torsions:
REMARK  status: ('A' for Active; 'I' for Inactive)
REMARK    1  A    between atoms: C_2  and  C_4
REMARK    2  A    between atoms: C_4  and  C_5
REMARK    3  A    between atoms: C_5  and  C_6
REMARK    4  A    between atoms: C_6  and  C_7
REMARK    5  A    between atoms: N_9  and  C_10
REMARK    6  A    between atoms: C_14  and  N_18
REMARK    7  A    between atoms: C_21  and  C_25
REMARK                            x       y       z     vdW  Elec       q    Type
REMARK                         _______ _______ _______ _____ _____    ______ ____
ROOT
ATOM     10  C   UNL     1       0.772   0.422  23.520  0.00  0.00    +0.154 C 
ATOM     11  C   UNL     1       0.703   1.241  23.453  0.00  0.00    +0.166 C 
ATOM     12  O   UNL     1      -0.006   1.466  23.808  0.00  0.00    -0.350 OA
ATOM     13  C   UNL     1      -0.376   0.788  24.094  0.00  0.00    +0.166 C 
ATOM     14  C   UNL     1      -1.043   0.506  24.490  0.00  0.00    +0.154 C 
ATOM     15  C   UNL     1      -0.974  -0.313  24.557  0.00  0.00    +0.166 C 
ATOM     16  O   UNL     1      -0.264  -0.538  24.202  0.00  0.00    -0.350 OA
ATOM     17  C   UNL     1       0.106   0.142  23.916  0.00  0.00    +0.166 C 
ENDROOT
BRANCH  14  18
ATOM     18  N   UNL     1      -1.669   0.964  24.770  0.00  0.00    -0.200 NA
ATOM     19  C   UNL     1      -2.443   0.789  24.543  0.00  0.00    +0.237 A 
ATOM     20  N   UNL     1      -3.069   1.246  24.823  0.00  0.00    -0.212 NA
ATOM     21  C   UNL     1      -3.843   1.071  24.596  0.00  0.00    +0.086 A 
ATOM     22  C   UNL     1      -3.990   0.437  24.089  0.00  0.00    +0.040 A 
ATOM     23  C   UNL     1      -3.363  -0.021  23.808  0.00  0.00    +0.103 A 
ATOM     24  N   UNL     1      -2.590   0.155  24.036  0.00  0.00    -0.211 NA
BRANCH  21  25
ATOM     25  C   UNL     1      -4.469   1.528  24.876  0.00  0.00    +0.018 A 
ATOM     26  C   UNL     1      -4.500   2.336  24.703  0.00  0.00    +0.001 A 
ATOM     27  C   UNL     1      -5.126   2.793  24.982  0.00  0.00    +0.000 A 
ATOM     28  C   UNL     1      -5.722   2.446  25.435  0.00  0.00    +0.000 A 
ATOM     29  C   UNL     1      -5.691   1.640  25.608  0.00  0.00    +0.000 A 
ATOM     30  C   UNL     1      -5.064   1.181  25.328  0.00  0.00    +0.001 A 
ENDBRANCH  21  25
ENDBRANCH  14  18
BRANCH  10   9
ATOM      7  C   UNL     1       2.159   0.283  23.202  0.00  0.00    +0.241 C 
ATOM      8  O   UNL     1       2.292   1.061  23.444  0.00  0.00    -0.273 OA
ATOM      9  N   UNL     1       1.399  -0.036  23.240  0.00  0.00    -0.202 NA
BRANCH   7   6
ATOM      6  C   UNL     1       2.785  -0.175  22.922  0.00  0.00    +0.087 C 
BRANCH   6   5
ATOM      5  C   UNL     1       3.553   0.127  22.929  0.00  0.00    +0.019 C 
ATOM     31  C   UNL     1       4.335   0.340  23.081  0.00  0.00    +0.001 C 
ATOM     32  C   UNL     1       4.587   0.839  22.474  0.00  0.00    +0.000 C 
ATOM     33  C   UNL     1       3.961   0.935  21.947  0.00  0.00    +0.000 C 
ATOM     34  C   UNL     1       3.322   0.496  22.227  0.00  0.00    +0.001 C 
BRANCH   5   4
ATOM      4  C   UNL     1       3.624  -0.303  23.628  0.00  0.00    +0.115 C 
BRANCH   4   2
ATOM      1  O   UNL     1       3.947  -1.686  23.468  0.00  0.00    -0.246 OA
ATOM      2  C   UNL     1       4.169  -0.921  23.680  0.00  0.00    +0.365 C 
ATOM      3  O   UNL     1       4.936  -0.772  23.944  0.00  0.00    -0.246 OA
ENDBRANCH   4   2
ENDBRANCH   5   4
ENDBRANCH   6   5
ENDBRANCH   7   6
ENDBRANCH  10   9
TORSDOF 7
ENDMDL
MODEL 4
REMARK VINA RESULT:      -7.2     15.195     17.391
REMARK  Name = 
REMARK  7 active torsions:
REMARK  status: ('A' for Active; 'I' for Inactive)
REMARK    1  A    between atoms: C_2  and  C_4
REMARK    2  A    between atoms: C_4  and  C_5
REMARK    3  A    between atoms: C_5  and  C_6
REMARK    4  A    between atoms: C_6  and  C_7
REMARK    5  A    between atoms: N_9  and  C_10
REMARK    6  A    between atoms: C_14  and  N_18
REMARK    7  A    between atoms: C_21  and  C_25
REMARK                            x       y       z     vdW  Elec       q    Type
REMARK                         _______ _______ _______ _____ _____    ______ ____
ROOT
ATOM     10  C   UNL     1      -5.737 -10.090  12.516  0.00  0.00    +0.154 C 
ATOM     11  C   UNL     1      -6.309  -9.574  12.220  0.00  0.00    +0.166 C 
ATOM     12  O   UNL     1      -6.892  -9.484  12.796  0.00  0.00    -0.350 OA
ATOM     13  C   UNL     1      -6.682  -9.944  13.447  0.00  0.00    +0.166 C 
ATOM     14  C   UNL     1      -6.911 -10.173  14.206  0.00  0.00    +0.154 C 
ATOM     15  C   UNL     1      -6.340 -10.689  14.501  0.00  0.00    +0.166 C 
ATOM     16  O   UNL     1      -5.756 -10.779  13.925  0.00  0.00    -0.350 OA
ATOM     17  C   UNL     1      -5.968 -10.318  13.274  0.00  0.00    +0.166 C 
ENDROOT
BRANCH  14  18
ATOM     18  N   UNL     1      -7.594  -9.929  14.600  0.00  0.00    -0.200 NA
ATOM     19  C   UNL     1      -7.554  -9.703  15.393  0.00  0.00    +0.237 A 
ATOM     20  N   UNL     1      -8.236  -9.459  15.787  0.00  0.00    -0.212 NA
ATOM     21  C   UNL     1      -8.197  -9.233  16.580  0.00  0.00    +0.086 A 
ATOM     22  C   UNL     1      -7.475  -9.252  16.978  0.00  0.00    +0.040 A 
ATOM     23  C   UNL     1      -6.792  -9.496  16.584  0.00  0.00    +0.103 A 
ATOM     24  N   UNL     1      -6.832  -9.722  15.791  0.00  0.00    -0.211 NA
BRANCH  21  25
ATOM     25  C   UNL     1      -8.878  -8.989  16.974  0.00  0.00    +0.018 A 
ATOM     26  C   UNL     1      -9.147  -8.212  16.891  0.00  0.00    +0.001 A 
ATOM     27  C   UNL     1      -9.829  -7.968  17.285  0.00  0.00    +0.000 A 
ATOM     28  C   UNL     1     -10.243  -8.499  17.762  0.00  0.00    +0.000 A 
ATOM     29  C   UNL     1      -9.975  -9.274  17.845  0.00  0.00    +0.000 A 
ATOM     30  C   UNL     1      -9.292  -9.519  17.450  0.00  0.00    +0.001 A 
ENDBRANCH  21  25
ENDBRANCH  14  18
BRANCH  10   9
ATOM      7  C   UNL     1      -4.706  -9.844  11.557  0.00  0.00    +0.241 C 
ATOM      8  O   UNL     1      -5.040  -9.108  11.387  0.00  0.00    -0.273 OA
ATOM      9  N   UNL     1      -5.055 -10.334  12.121  0.00  0.00    -0.202 NA
BRANCH   7   6
ATOM      6  C   UNL     1      -4.024 -10.087  11.163  0.00  0.00    +0.087 C 
BRANCH   6   5
ATOM      5  C   UNL     1      -3.717  -9.632  10.547  0.00  0.00    +0.019 C 
ATOM     31  C   UNL     1      -3.297  -9.126  10.049  0.00  0.00    +0.001 C 
ATOM     32  C   UNL     1      -3.648  -9.152   9.303  0.00  0.00    +0.000 C 
ATOM     33  C   UNL     1      -4.285  -9.674   9.339  0.00  0.00    +0.000 C 
ATOM     34  C   UNL     1      -4.328  -9.971  10.107  0.00  0.00    +0.001 C 
BRANCH   5   4
ATOM      4  C   UNL     1      -3.171  -9.388  11.115  0.00  0.00    +0.115 C 
BRANCH   4   2
ATOM      1  O   UNL     1      -2.214 -10.439  11.260  0.00  0.00    -0.246 OA
ATOM      2  C   UNL     1      -2.391  -9.655  11.078  0.00  0.00    +0.365 C 
ATOM      3  O   UNL     1      -1.788  -9.136  10.860  0.00  0.00    -0.246 OA
ENDBRANCH   4   2
ENDBRANCH   5   4
ENDBRANCH   6   5
ENDBRANCH   7   6
ENDBRANCH  10   9
TORSDOF 7
ENDMDL
MODEL 5
REMARK VINA RESULT:      -6.5     15.067     16.928
REMARK  Name = 
REMARK  7 active torsions:
REMARK  status: ('A' for Active; 'I' for Inactive)
REMARK    1  A    between atoms: C_2  and  C_4
REMARK    2  A    between atoms: C_4  and  C_5
REMARK    3  A    between atoms: C_5  and  C_6
REMARK    4  A    between atoms: C_6  and  C_7
REMARK    5  A    between atoms: N_9  and  C_10
REMARK    6  A    between atoms: C_14  and  N_18
REMARK    7  A    between atoms: C_21  and  C_25
REMARK                            x       y       z     vdW  Elec       q    Type
REMARK                         _______ _______ _______ _____ _____    ______ ____
ROOT
ATOM     10  C   UNL     1      -4.982 -10.583  12.915  0.00  0.00    +0.154 C 
ATOM     11  C   UNL     1      -4.244 -10.711  13.258  0.00  0.00    +0.166 C 
ATOM     12  O   UNL     1      -4.350 -10.778  14.073  0.00  0.00    -0.350 OA
ATOM     13  C   UNL     1      -5.154 -10.692  14.234  0.00  0.00    +0.166 C 
ATOM     14  C   UNL     1      -5.718 -10.680  14.836  0.00  0.00    +0.154 C 
ATOM     15  C   UNL     1      -6.457 -10.551  14.492  0.00  0.00    +0.166 C 
ATOM     16  O   UNL     1      -6.350 -10.484  13.677  0.00  0.00    -0.350 OA
ATOM     17  C   UNL     1      -5.545 -10.571  13.517  0.00  0.00    +0.166 C 
ENDROOT
BRANCH  14  18
ATOM     18  N   UNL     1      -5.568 -10.779  15.642  0.00  0.00    -0.200 NA
ATOM     19  C   UNL     1      -6.112 -10.505  16.199  0.00  0.00    +0.237 A 
ATOM     20  N   UNL     1      -5.962 -10.604  17.004  0.00  0.00    -0.212 NA
ATOM     21  C   UNL     1      -6.506 -10.331  17.561  0.00  0.00    +0.086 A 
ATOM     22  C   UNL     1      -7.198  -9.958  17.313  0.00  0.00    +0.040 A 
ATOM     23  C   UNL     1      -7.348  -9.859  16.508  0.00  0.00    +0.103 A 
ATOM     24  N   UNL     1      -6.804 -10.133  15.951  0.00  0.00    -0.211 NA
BRANCH  21  25
ATOM     25  C   UNL     1      -6.356 -10.430  18.366  0.00  0.00    +0.018 A 
ATOM     26  C   UNL     1      -5.612 -10.682  18.620  0.00  0.00    +0.001 A 
ATOM     27  C   UNL     1      -5.463 -10.781  19.425  0.00  0.00    +0.000 A 
ATOM     28  C   UNL     1      -6.056 -10.628  19.977  0.00  0.00    +0.000 A 
ATOM     29  C   UNL     1      -6.799 -10.375  19.724  0.00  0.00    +0.000 A 
ATOM     30  C   UNL     1      -6.949 -10.276  18.918  0.00  0.00    +0.001 A 
ENDBRANCH  21  25
ENDBRANCH  14  18
BRANCH  10   9
ATOM      7  C   UNL     1      -4.597 -10.069  11.638  0.00  0.00    +0.241 C 
ATOM      8  O   UNL     1      -3.911  -9.753  11.973  0.00  0.00    -0.273 OA
ATOM      9  N   UNL     1      -5.132 -10.484  12.109  0.00  0.00    -0.202 NA
BRANCH   7   6
ATOM      6  C   UNL     1      -4.746  -9.970  10.833  0.00  0.00    +0.087 C 
BRANCH   6   5
ATOM      5  C   UNL     1      -4.336  -9.396  10.404  0.00  0.00    +0.019 C 
ATOM     31  C   UNL     1      -4.067  -8.729  10.000  0.00  0.00    +0.001 C 
ATOM     32  C   UNL     1      -3.306  -8.887   9.723  0.00  0.00    +0.000 C 
ATOM     33  C   UNL     1      -3.104  -9.652   9.956  0.00  0.00    +0.000 C 
ATOM     34  C   UNL     1      -3.740  -9.967  10.377  0.00  0.00    +0.001 C 
BRANCH   5   4
ATOM      4  C   UNL     1      -5.016  -8.946  10.521  0.00  0.00    +0.115 C 
BRANCH   4   2
ATOM      1  O   UNL     1      -5.453  -7.848   9.717  0.00  0.00    -0.246 OA
ATOM      2  C   UNL     1      -5.437  -8.658   9.872  0.00  0.00    +0.365 C 
ATOM      3  O   UNL     1      -5.843  -9.180   9.379  0.00  0.00    -0.246 OA
ENDBRANCH   4   2
ENDBRANCH   5   4
ENDBRANCH   6   5
ENDBRANCH   7   6
ENDBRANCH  10   9
TORSDOF 7
ENDMDL
