MODEL 1
REMARK VINA RESULT:      -9.8      0.000      0.000
REMARK  Name = 
REMARK  9 active torsions:
REMARK  status: ('A' for Active; 'I' for Inactive)
REMARK    1  A    between atoms: C_2  and  C_3
REMARK    2  A    between atoms: N_5  and  S_17
REMARK    3  A    between atoms: C_8  and  C_9
REMARK    4  A    between atoms: C_9  and  C_10
REMARK    5  A    between atoms: N_12  and  C_13
REMARK    6  A    between atoms: C_13  and  C_14
REMARK    7  A    between atoms: C_14  and  O_15
REMARK    8  A    between atoms: S_17  and  C_20
REMARK    9  A    between atoms: C_23  and  O_24
REMARK                            x       y       z     vdW  Elec       q    Type
REMARK                         _______ _______ _______ _____ _____    ______ ____
ROOT
ATOM      3  C   UNL     1      -4.903   1.958  25.168  0.00  0.00    +0.018 C 
ATOM      4  C   UNL     1      -4.824   1.142  25.076  0.00  0.00    +0.096 C 
ATOM      5  N   UNL     1      -4.115   0.825  24.798  0.00  0.00    -0.156 NA
ATOM      6  C   UNL     1      -3.485   1.324  24.610  0.00  0.00    +0.096 C 
ATOM      7  C   UNL     1      -3.564   2.141  24.702  0.00  0.00    +0.020 C 
ATOM      8  C   UNL     1      -4.273   2.458  24.981  0.00  0.00    +0.012 C 
ENDROOT
BRANCH   5  17
ATOM     17  S   UNL     1      -4.035   0.010  24.706  0.00  0.00    +0.063 S 
ATOM     18  O   UNL     1      -3.996   0.105  23.888  0.00  0.00    -0.153 OA
ATOM     19  O   UNL     1      -4.075  -0.086  25.525  0.00  0.00    -0.153 OA
BRANCH  17  20
ATOM     20  C   UNL     1      -3.956  -0.807  24.615  0.00  0.00    +0.122 A 
ATOM     21  C   UNL     1      -3.555  -1.248  25.184  0.00  0.00    +0.023 A 
ATOM     22  C   UNL     1      -3.475  -2.065  25.093  0.00  0.00    +0.038 A 
ATOM     23  C   UNL     1      -3.797  -2.439  24.433  0.00  0.00    +0.139 A 
ATOM     26  C   UNL     1      -4.199  -1.997  23.862  0.00  0.00    +0.038 A 
ATOM     27  C   UNL     1      -4.277  -1.181  23.954  0.00  0.00    +0.023 A 
BRANCH  23  24
ATOM     24  O   UNL     1      -3.718  -3.255  24.341  0.00  0.00    -0.471 OA
ATOM     25  C   UNL     1      -2.971  -3.586  24.221  0.00  0.00    +0.252 C 
ENDBRANCH  23  24
ENDBRANCH  17  20
ENDBRANCH   5  17
BRANCH   3   2
ATOM      1  C   UNL     1      -6.326   1.895  25.284  0.00  0.00    +0.000 C 
ATOM      2  C   UNL     1      -5.612   2.275  25.447  0.00  0.00    +0.001 C 
ENDBRANCH   3   2
BRANCH   8   9
ATOM      9  C   UNL     1      -4.352   3.274  25.073  0.00  0.00    +0.087 C 
BRANCH   9  10
ATOM     10  C   UNL     1      -3.773   3.780  24.776  0.00  0.00    +0.241 C 
ATOM     11  O   UNL     1      -3.776   3.987  23.977  0.00  0.00    -0.273 OA
ATOM     12  N   UNL     1      -3.191   4.080  25.277  0.00  0.00    -0.203 NA
BRANCH  12  13
ATOM     13  C   UNL     1      -2.611   4.587  24.980  0.00  0.00    +0.147 C 
BRANCH  13  14
ATOM     14  C   UNL     1      -1.951   4.772  25.437  0.00  0.00    +0.166 C 
BRANCH  14  15
ATOM     15  O   UNL     1      -1.375   5.284  25.144  0.00  0.00    -0.349 OA
ATOM     16  C   UNL     1      -0.638   4.992  24.917  0.00  0.00    +0.174 C 
ENDBRANCH  14  15
ENDBRANCH  13  14
ENDBRANCH  12  13
ENDBRANCH   9  10
ENDBRANCH   8   9
TORSDOF 9
ENDMDL
MODEL 2
REMARK VINA RESULT:      -8.6      1.226      5.331
REMARK  Name = 
REMARK  9 active torsions:
REMARK  status: ('A' for Active; 'I' for Inactive)
REMARK    1  A    between atoms: C_2  and  C_3
REMARK    2  A    between atoms: N_5  and  S_17
REMARK    3  A    between atoms: C_8  and  C_9
REMARK    4  A    between atoms: C_9  and  C_10
REMARK    5  A    between atoms: N_12  and  C_13
REMARK    6  A    between atoms: C_13  and  C_14
REMARK    7  A    between atoms: C_14  and  O_15
REMARK    8  A    between atoms: S_17  and  C_20
REMARK    9  A    between atoms: C_23  and  O_24
REMARK                            x       y       z     vdW  Elec       q    Type
REMARK                         _______ _______ _______ _____ _____    ______ ____
ROOT
ATOM      3  C   UNL     1      -4.510   1.206  24.948  0.00  0.00    +0.018 C 
ATOM      4  C   UNL     1      -4.083   1.906  25.035  0.00  0.00    +0.096 C 
ATOM      5  N   UNL     1      -3.287   1.933  24.820  0.00  0.00    -0.156 NA
ATOM      6  C   UNL     1      -2.918   1.260  24.519  0.00  0.00    +0.096 C 
ATOM      7  C   UNL     1      -3.345   0.559  24.432  0.00  0.00    +0.020 C 
ATOM      8  C   UNL     1      -4.141   0.532  24.647  0.00  0.00    +0.012 C 
ENDROOT
BRANCH   5  17
ATOM     17  S   UNL     1      -2.859   2.633  24.907  0.00  0.00    +0.063 S 
ATOM     18  O   UNL     1      -2.660   2.417  25.677  0.00  0.00    -0.153 OA
ATOM     19  O   UNL     1      -3.058   2.849  24.135  0.00  0.00    -0.153 OA
BRANCH  17  20
ATOM     20  C   UNL     1      -2.432   3.333  24.992  0.00  0.00    +0.122 A 
ATOM     21  C   UNL     1      -2.823   4.037  25.171  0.00  0.00    +0.023 A 
ATOM     22  C   UNL     1      -2.396   4.737  25.256  0.00  0.00    +0.038 A 
ATOM     23  C   UNL     1      -1.576   4.734  25.162  0.00  0.00    +0.139 A 
ATOM     26  C   UNL     1      -1.184   4.029  24.983  0.00  0.00    +0.038 A 
ATOM     27  C   UNL     1      -1.612   3.330  24.898  0.00  0.00    +0.023 A 
BRANCH  23  24
ATOM     24  O   UNL     1      -1.147   5.433  25.247  0.00  0.00    -0.471 OA
ATOM     25  C   UNL     1      -0.633   5.677  24.649  0.00  0.00    +0.252 C 
ENDBRANCH  23  24
ENDBRANCH  17  20
ENDBRANCH   5  17
BRANCH   3   2
ATOM      1  C   UNL     1      -5.755   1.872  25.173  0.00  0.00    +0.000 C 
ATOM      2  C   UNL     1      -5.307   1.179  25.163  0.00  0.00    +0.001 C 
ENDBRANCH   3   2
BRANCH   8   9
ATOM      9  C   UNL     1      -4.568  -0.169  24.560  0.00  0.00    +0.087 C 
BRANCH   9  10
ATOM     10  C   UNL     1      -4.219  -0.823  24.199  0.00  0.00    +0.241 C 
ATOM     11  O   UNL     1      -4.137  -0.846  23.378  0.00  0.00    -0.273 OA
ATOM     12  N   UNL     1      -3.952  -1.454  24.658  0.00  0.00    -0.203 NA
BRANCH  12  13
ATOM     13  C   UNL     1      -3.603  -2.109  24.297  0.00  0.00    +0.147 C 
BRANCH  13  14
ATOM     14  C   UNL     1      -3.088  -2.590  24.724  0.00  0.00    +0.166 C 
BRANCH  14  15
ATOM     15  O   UNL     1      -2.440  -2.938  24.349  0.00  0.00    -0.349 OA
ATOM     16  C   UNL     1      -1.679  -2.812  24.638  0.00  0.00    +0.174 C 
ENDBRANCH  14  15
ENDBRANCH  13  14
ENDBRANCH  12  13
ENDBRANCH   9  10
ENDBRANCH   8   9
TORSDOF 9
ENDMDL
MODEL 3
REMARK VINA RESULT:      -8.6      3.536      5.029
REMARK  Name = 
REMARK  9 active torsions:
REMARK  status: ('A' for Active; 'I' for Inactive)
REMARK    1  A    between atoms: C_2  and  C_3
REMARK    2  A    between atoms: N_5  and  S_17
REMARK    3  A    between atoms: C_8  and  C_9
REMARK    4  A    between atoms: C_9  and  C_10
REMARK    5  A    between atoms: N_12  and  C_13
REMARK    6  A    between atoms: C_13  and  C_14
REMARK    7  A    between atoms: C_14  and  O_15
REMARK    8  A    between atoms: S_17  and  C_20
REMARK    9  A    between atoms: C_23  and  O_24
REMARK                            x       y       z     vdW  Elec       q    Type
REMARK                         _______ _______ _______ _____ _____    ______ ____
ROOT
ATOM      3  C   UNL     1      -1.036  -0.425  24.453  0.00  0.00    +0.018 C 
ATOM      4  C   UNL     1      -1.751  -0.040  24.595  0.00  0.00    +0.096 C 
ATOM      5  N   UNL     1      -1.889   0.706  24.272  0.00  0.00    -0.156 NA
ATOM      6  C   UNL     1      -1.312   1.067  23.806  0.00  0.00    +0.096 C 
ATOM      7  C   UNL     1      -0.596   0.681  23.664  0.00  0.00    +0.020 C 
ATOM      8  C   UNL     1      -0.458  -0.065  23.987  0.00  0.00    +0.012 C 
ENDROOT
BRANCH   5  17
ATOM     17  S   UNL     1      -2.604   1.092  24.414  0.00  0.00    +0.063 S 
ATOM     18  O   UNL     1      -2.303   1.392  25.120  0.00  0.00    -0.153 OA
ATOM     19  O   UNL     1      -2.906   0.792  23.706  0.00  0.00    -0.153 OA
BRANCH  17  20
ATOM     20  C   UNL     1      -3.320   1.478  24.554  0.00  0.00    +0.122 A 
ATOM     21  C   UNL     1      -3.349   2.302  24.568  0.00  0.00    +0.023 A 
ATOM     22  C   UNL     1      -4.065   2.688  24.709  0.00  0.00    +0.038 A 
ATOM     23  C   UNL     1      -4.752   2.248  24.836  0.00  0.00    +0.139 A 
ATOM     26  C   UNL     1      -4.723   1.423  24.822  0.00  0.00    +0.038 A 
ATOM     27  C   UNL     1      -4.007   1.039  24.682  0.00  0.00    +0.023 A 
BRANCH  23  24
ATOM     24  O   UNL     1      -5.468   2.632  24.977  0.00  0.00    -0.471 OA
ATOM     25  C   UNL     1      -5.571   3.071  25.669  0.00  0.00    +0.252 C 
ENDBRANCH  23  24
ENDBRANCH  17  20
ENDBRANCH   5  17
BRANCH   3   2
ATOM      1  C   UNL     1      -1.534  -1.661  24.971  0.00  0.00    +0.000 C 
ATOM      2  C   UNL     1      -0.898  -1.172  24.777  0.00  0.00    +0.001 C 
ENDBRANCH   3   2
BRANCH   8   9
ATOM      9  C   UNL     1       0.257  -0.450  23.845  0.00  0.00    +0.087 C 
BRANCH   9  10
ATOM     10  C   UNL     1       0.733  -0.217  23.213  0.00  0.00    +0.241 C 
ATOM     11  O   UNL     1       0.413  -0.159  22.455  0.00  0.00    -0.273 OA
ATOM     12  N   UNL     1       1.529  -0.041  23.339  0.00  0.00    -0.203 NA
BRANCH  12  13
ATOM     13  C   UNL     1       2.005   0.192  22.707  0.00  0.00    +0.147 C 
BRANCH  13  14
ATOM     14  C   UNL     1       2.826   0.156  22.773  0.00  0.00    +0.166 C 
BRANCH  14  15
ATOM     15  O   UNL     1       3.289   0.795  22.531  0.00  0.00    -0.349 OA
ATOM     16  C   UNL     1       4.105   0.780  22.648  0.00  0.00    +0.174 C 
ENDBRANCH  14  15
ENDBRANCH  13  14
ENDBRANCH  12  13
ENDBRANCH   9  10
ENDBRANCH   8   9
TORSDOF 9
ENDMDL
MODEL 4
REMARK VINA RESULT:      -8.4      2.571      4.754
REMARK  Name = 
REMARK  9 active torsions:
REMARK  status: ('A' for Active; 'I' for Inactive)
REMARK    1  A    between atoms: C_2  and  C_3
REMARK    2  A    between atoms: N_5  and  S_17
REMARK    3  A    between atoms: C_8  and  C_9
REMARK    4  A    between atoms: C_9  and  C_10
REMARK    5  A    between atoms: N_12  and  C_13
REMARK    6  A    between atoms: C_13  and  C_14
REMARK    7  A    between atoms: C_14  and  O_15
REMARK    8  A    between atoms: S_17  and  C_20
REMARK    9  A    between atoms: C_23  and  O_24
REMARK                            x       y       z     vdW  Elec       q    Type
REMARK                         _______ _______ _______ _____ _____    ______ ____
ROOT
ATOM      3  C   UNL     1      -3.013  -0.809  24.496  0.00  0.00    +0.018 C 
ATOM      4  C   UNL     1      -3.577  -0.223  24.627  0.00  0.00    +0.096 C 
ATOM      5  N   UNL     1      -3.339   0.540  24.832  0.00  0.00    -0.156 NA
ATOM      6  C   UNL     1      -2.537   0.717  24.905  0.00  0.00    +0.096 C 
ATOM      7  C   UNL     1      -1.972   0.129  24.774  0.00  0.00    +0.020 C 
ATOM      8  C   UNL     1      -2.210  -0.634  24.569  0.00  0.00    +0.012 C 
ENDROOT
BRANCH   5  17
ATOM     17  S   UNL     1      -3.903   1.128  24.963  0.00  0.00    +0.063 S 
ATOM     18  O   UNL     1      -3.750   1.443  24.217  0.00  0.00    -0.153 OA
ATOM     19  O   UNL     1      -4.057   0.812  25.710  0.00  0.00    -0.153 OA
BRANCH  17  20
ATOM     20  C   UNL     1      -4.467   1.715  25.095  0.00  0.00    +0.122 A 
ATOM     21  C   UNL     1      -5.243   1.508  25.280  0.00  0.00    +0.023 A 
ATOM     22  C   UNL     1      -5.808   2.095  25.413  0.00  0.00    +0.038 A 
ATOM     23  C   UNL     1      -5.595   2.890  25.360  0.00  0.00    +0.139 A 
ATOM     26  C   UNL     1      -4.818   3.098  25.175  0.00  0.00    +0.038 A 
ATOM     27  C   UNL     1      -4.254   2.510  25.042  0.00  0.00    +0.023 A 
BRANCH  23  24
ATOM     24  O   UNL     1      -6.158   3.478  25.492  0.00  0.00    -0.471 OA
ATOM     25  C   UNL     1      -5.918   4.259  25.613  0.00  0.00    +0.252 C 
ENDBRANCH  23  24
ENDBRANCH  17  20
ENDBRANCH   5  17
BRANCH   3   2
ATOM      1  C   UNL     1      -4.006  -1.700  23.982  0.00  0.00    +0.000 C 
ATOM      2  C   UNL     1      -3.251  -1.573  24.291  0.00  0.00    +0.001 C 
ENDBRANCH   3   2
BRANCH   8   9
ATOM      9  C   UNL     1      -1.645  -1.221  24.438  0.00  0.00    +0.087 C 
BRANCH   9  10
ATOM     10  C   UNL     1      -0.842  -1.034  24.460  0.00  0.00    +0.241 C 
ATOM     11  O   UNL     1      -0.438  -1.034  25.179  0.00  0.00    -0.273 OA
ATOM     12  N   UNL     1      -0.444  -0.846  23.763  0.00  0.00    -0.203 NA
BRANCH  12  13
ATOM     13  C   UNL     1       0.360  -0.658  23.784  0.00  0.00    +0.147 C 
BRANCH  13  14
ATOM     14  C   UNL     1       0.763  -0.490  23.085  0.00  0.00    +0.166 C 
BRANCH  14  15
ATOM     15  O   UNL     1       1.369   0.070  23.082  0.00  0.00    -0.349 OA
ATOM     16  C   UNL     1       1.970   0.025  22.520  0.00  0.00    +0.174 C 
ENDBRANCH  14  15
ENDBRANCH  13  14
ENDBRANCH  12  13
ENDBRANCH   9  10
ENDBRANCH   8   9
TORSDOF 9
ENDMDL
MODEL 5
REMARK VINA RESULT:      -8.1      2.632      6.249
REMARK  Name = 
REMARK  9 active torsions:
REMARK  status: ('A' for Active; 'I' for Inactive)
REMARK    1  A    between atoms: C_2  and  C_3
REMARK    2  A    between atoms: N_5  and  S_17
REMARK    3  A    between atoms: C_8  and  C_9
REMARK    4  A    between atoms: C_9  and  C_10
REMARK    5  A    between atoms: N_12  and  C_13
REMARK    6  A    between atoms: C_13  and  C_14
REMARK    7  A    between atoms: C_14  and  O_15
REMARK    8  A    between atoms: S_17  and  C_20
REMARK    9  A    between atoms: C_23  and  O_24
REMARK                            x       y       z     vdW  Elec       q    Type
REMARK                         _______ _______ _______ _____ _____    ______ ____
ROOT
ATOM      3  C   UNL     1      -0.241   0.178  24.106  0.00  0.00    +0.018 C 
ATOM      4  C   UNL     1      -0.323   0.995  24.175  0.00  0.00    +0.096 C 
ATOM      5  N   UNL     1      -0.766   1.315  24.793  0.00  0.00    -0.156 NA
ATOM      6  C   UNL     1      -1.128   0.817  25.342  0.00  0.00    +0.096 C 
ATOM      7  C   UNL     1      -1.046  -0.002  25.273  0.00  0.00    +0.020 C 
ATOM      8  C   UNL     1      -0.602  -0.321  24.655  0.00  0.00    +0.012 C 
ENDROOT
BRANCH   5  17
ATOM     17  S   UNL     1      -0.849   2.133  24.862  0.00  0.00    +0.063 S 
ATOM     18  O   UNL     1      -1.469   2.117  24.319  0.00  0.00    -0.153 OA
ATOM     19  O   UNL     1      -0.228   2.149  25.406  0.00  0.00    -0.153 OA
BRANCH  17  20
ATOM     20  C   UNL     1      -0.930   2.951  24.933  0.00  0.00    +0.122 A 
ATOM     21  C   UNL     1      -1.505   3.267  25.432  0.00  0.00    +0.023 A 
ATOM     22  C   UNL     1      -1.586   4.085  25.503  0.00  0.00    +0.038 A 
ATOM     23  C   UNL     1      -1.092   4.587  25.073  0.00  0.00    +0.139 A 
ATOM     26  C   UNL     1      -0.517   4.270  24.572  0.00  0.00    +0.038 A 
ATOM     27  C   UNL     1      -0.436   3.452  24.503  0.00  0.00    +0.023 A 
BRANCH  23  24
ATOM     24  O   UNL     1      -1.173   5.405  25.142  0.00  0.00    -0.471 OA
ATOM     25  C   UNL     1      -1.925   5.745  25.162  0.00  0.00    +0.252 C 
ENDBRANCH  23  24
ENDBRANCH  17  20
ENDBRANCH   5  17
BRANCH   3   2
ATOM      1  C   UNL     1       0.840   0.281  23.176  0.00  0.00    +0.000 C 
ATOM      2  C   UNL     1       0.203  -0.142  23.488  0.00  0.00    +0.001 C 
ENDBRANCH   3   2
BRANCH   8   9
ATOM      9  C   UNL     1      -0.520  -1.139  24.587  0.00  0.00    +0.087 C 
BRANCH   9  10
ATOM     10  C   UNL     1      -1.093  -1.640  24.905  0.00  0.00    +0.241 C 
ATOM     11  O   UNL     1      -1.077  -1.826  25.709  0.00  0.00    -0.273 OA
ATOM     12  N   UNL     1      -1.682  -1.954  24.421  0.00  0.00    -0.203 NA
BRANCH  12  13
ATOM     13  C   UNL     1      -2.255  -2.455  24.740  0.00  0.00    +0.147 C 
BRANCH  13  14
ATOM     14  C   UNL     1      -2.869  -2.733  24.266  0.00  0.00    +0.166 C 
BRANCH  14  15
ATOM     15  O   UNL     1      -3.653  -2.624  24.500  0.00  0.00    -0.349 OA
ATOM     16  C   UNL     1      -4.249  -2.566  23.933  0.00  0.00    +0.174 C 
ENDBRANCH  14  15
ENDBRANCH  13  14
ENDBRANCH  12  13
ENDBRANCH   9  10
ENDBRANCH   8   9
TORSDOF 9
ENDMDL
MODEL 6
REMARK VINA RESULT:      -8.1      2.336      3.206
REMARK  Name = 
REMARK  9 active torsions:
REMARK  status: ('A' for Active; 'I' for Inactive)
REMARK    1  A    between atoms: C_2  and  C_3
REMARK    2  A    between atoms: N_5  and  S_17
REMARK    3  A    between atoms: C_8  and  C_9
REMARK    4  A    between atoms: C_9  and  C_10
REMARK    5  A    between atoms: N_12  and  C_13
REMARK    6  A    between atoms: C_13  and  C_14
REMARK    7  A    between atoms: C_14  and  O_15
REMARK    8  A    between atoms: S_17  and  C_20
REMARK    9  A    between atoms: C_23  and  O_24
REMARK                            x       y       z     vdW  Elec       q    Type
REMARK                         _______ _______ _______ _____ _____    ______ ____
ROOT
ATOM      3  C   UNL     1      -0.293   0.773  24.325  0.00  0.00    +0.018 C 
ATOM      4  C   UNL     1      -0.804   0.131  24.253  0.00  0.00    +0.096 C 
ATOM      5  N   UNL     1      -1.413   0.025  24.800  0.00  0.00    -0.156 NA
ATOM      6  C   UNL     1      -1.509   0.561  25.420  0.00  0.00    +0.096 C 
ATOM      7  C   UNL     1      -0.997   1.204  25.492  0.00  0.00    +0.020 C 
ATOM      8  C   UNL     1      -0.388   1.310  24.945  0.00  0.00    +0.012 C 
ENDROOT
BRANCH   5  17
ATOM     17  S   UNL     1      -1.925  -0.618  24.729  0.00  0.00    +0.063 S 
ATOM     18  O   UNL     1      -2.416  -0.173  24.238  0.00  0.00    -0.153 OA
ATOM     19  O   UNL     1      -1.433  -1.064  25.219  0.00  0.00    -0.153 OA
BRANCH  17  20
ATOM     20  C   UNL     1      -2.437  -1.261  24.658  0.00  0.00    +0.122 A 
ATOM     21  C   UNL     1      -3.250  -1.139  24.607  0.00  0.00    +0.023 A 
ATOM     22  C   UNL     1      -3.762  -1.782  24.536  0.00  0.00    +0.038 A 
ATOM     23  C   UNL     1      -3.459  -2.549  24.516  0.00  0.00    +0.139 A 
ATOM     26  C   UNL     1      -2.644  -2.673  24.567  0.00  0.00    +0.038 A 
ATOM     27  C   UNL     1      -2.133  -2.028  24.637  0.00  0.00    +0.023 A 
BRANCH  23  24
ATOM     24  O   UNL     1      -3.969  -3.193  24.445  0.00  0.00    -0.471 OA
ATOM     25  C   UNL     1      -4.390  -3.310  23.745  0.00  0.00    +0.252 C 
ENDBRANCH  23  24
ENDBRANCH  17  20
ENDBRANCH   5  17
BRANCH   3   2
ATOM      1  C   UNL     1       0.581   0.241  23.326  0.00  0.00    +0.000 C 
ATOM      2  C   UNL     1       0.316   0.880  23.777  0.00  0.00    +0.001 C 
ENDBRANCH   3   2
BRANCH   8   9
ATOM      9  C   UNL     1       0.123   1.953  25.017  0.00  0.00    +0.087 C 
BRANCH   9  10
ATOM     10  C   UNL     1      -0.113   2.624  25.435  0.00  0.00    +0.241 C 
ATOM     11  O   UNL     1      -0.043   2.644  26.256  0.00  0.00    -0.273 OA
ATOM     12  N   UNL     1      -0.419   3.274  25.031  0.00  0.00    -0.203 NA
BRANCH  12  13
ATOM     13  C   UNL     1      -0.655   3.946  25.449  0.00  0.00    +0.147 C 
BRANCH  13  14
ATOM     14  C   UNL     1      -0.915   4.615  25.042  0.00  0.00    +0.166 C 
BRANCH  14  15
ATOM     15  O   UNL     1      -1.540   5.063  25.341  0.00  0.00    -0.349 OA
ATOM     16  C   UNL     1      -1.731   5.786  24.995  0.00  0.00    +0.174 C 
ENDBRANCH  14  15
ENDBRANCH  13  14
ENDBRANCH  12  13
ENDBRANCH   9  10
ENDBRANCH   8   9
TORSDOF 9
ENDMDL
MODEL 7
REMARK VINA RESULT:      -7.6      3.006      4.312
REMARK  Name = 
REMARK  9 active torsions:
REMARK  status: ('A' for Active; 'I' for Inactive)
REMARK    1  A    between atoms: C_2  and  C_3
REMARK    2  A    between atoms: N_5  and  S_17
REMARK    3  A    between atoms: C_8  and  C_9
REMARK    4  A    between atoms: C_9  and  C_10
REMARK    5  A    between atoms: N_12  and  C_13
REMARK    6  A    between atoms: C_13  and  C_14
REMARK    7  A    between atoms: C_14  and  O_15
REMARK    8  A    between atoms: S_17  and  C_20
REMARK    9  A    between atoms: C_23  and  O_24
REMARK                            x       y       z     vdW  Elec       q    Type
REMARK                         _______ _______ _______ _____ _____    ______ ____
ROOT
ATOM      3  C   UNL     1      -1.704   3.522  25.077  0.00  0.00    +0.018 C 
ATOM      4  C   UNL     1      -1.118   3.015  24.795  0.00  0.00    +0.096 C 
ATOM      5  N   UNL     1      -1.323   2.273  24.498  0.00  0.00    -0.156 NA
ATOM      6  C   UNL     1      -2.114   2.039  24.482  0.00  0.00    +0.096 C 
ATOM      7  C   UNL     1      -2.700   2.547  24.764  0.00  0.00    +0.020 C 
ATOM      8  C   UNL     1      -2.495   3.289  25.061  0.00  0.00    +0.012 C 
ENDROOT
BRANCH   5  17
ATOM     17  S   UNL     1      -0.738   1.765  24.217  0.00  0.00    +0.063 S 
ATOM     18  O   UNL     1      -0.538   1.564  24.991  0.00  0.00    -0.153 OA
ATOM     19  O   UNL     1      -0.938   1.966  23.441  0.00  0.00    -0.153 OA
BRANCH  17  20
ATOM     20  C   UNL     1      -0.153   1.257  23.934  0.00  0.00    +0.122 A 
ATOM     21  C   UNL     1      -0.337   0.473  23.755  0.00  0.00    +0.023 A 
ATOM     22  C   UNL     1       0.248  -0.035  23.472  0.00  0.00    +0.038 A 
ATOM     23  C   UNL     1       1.019   0.242  23.368  0.00  0.00    +0.139 A 
ATOM     26  C   UNL     1       1.204   1.026  23.547  0.00  0.00    +0.038 A 
ATOM     27  C   UNL     1       0.618   1.533  23.829  0.00  0.00    +0.023 A 
BRANCH  23  24
ATOM     24  O   UNL     1       1.605  -0.265  23.085  0.00  0.00    -0.471 OA
ATOM     25  C   UNL     1       2.175   0.017  22.559  0.00  0.00    +0.252 C 
ENDBRANCH  23  24
ENDBRANCH  17  20
ENDBRANCH   5  17
BRANCH   3   2
ATOM      1  C   UNL     1      -0.889   4.696  25.022  0.00  0.00    +0.000 C 
ATOM      2  C   UNL     1      -1.499   4.265  25.374  0.00  0.00    +0.001 C 
ENDBRANCH   3   2
BRANCH   8   9
ATOM      9  C   UNL     1      -3.082   3.797  25.343  0.00  0.00    +0.087 C 
BRANCH   9  10
ATOM     10  C   UNL     1      -3.871   3.665  25.145  0.00  0.00    +0.241 C 
ATOM     11  O   UNL     1      -4.143   3.850  24.388  0.00  0.00    -0.273 OA
ATOM     12  N   UNL     1      -4.389   3.349  25.703  0.00  0.00    -0.203 NA
BRANCH  12  13
ATOM     13  C   UNL     1      -5.180   3.218  25.505  0.00  0.00    +0.147 C 
BRANCH  13  14
ATOM     14  C   UNL     1      -5.682   2.842  26.040  0.00  0.00    +0.166 C 
BRANCH  14  15
ATOM     15  O   UNL     1      -6.063   2.142  25.827  0.00  0.00    -0.349 OA
ATOM     16  C   UNL     1      -6.518   1.734  26.380  0.00  0.00    +0.174 C 
ENDBRANCH  14  15
ENDBRANCH  13  14
ENDBRANCH  12  13
ENDBRANCH   9  10
ENDBRANCH   8   9
TORSDOF 9
ENDMDL
MODEL 8
REMARK VINA RESULT:      -7.5      2.974      4.214
REMARK  Name = 
REMARK  9 active torsions:
REMARK  status: ('A' for Active; 'I' for Inactive)
REMARK    1  A    between atoms: C_2  and  C_3
REMARK    2  A    between atoms: N_5  and  S_17
REMARK    3  A    between atoms: C_8  and  C_9
REMARK    4  A    between atoms: C_9  and  C_10
REMARK    5  A    between atoms: N_12  and  C_13
REMARK    6  A    between atoms: C_13  and  C_14
REMARK    7  A    between atoms: C_14  and  O_15
REMARK    8  A    between atoms: S_17  and  C_20
REMARK    9  A    between atoms: C_23  and  O_24
REMARK                            x       y       z     vdW  Elec       q    Type
REMARK                         _______ _______ _______ _____ _____    ______ ____
ROOT
ATOM      3  C   UNL     1      -2.913  -0.425  25.101  0.00  0.00    +0.018 C 
ATOM      4  C   UNL     1      -2.134  -0.387  24.832  0.00  0.00    +0.096 C 
ATOM      5  N   UNL     1      -1.867   0.286  24.437  0.00  0.00    -0.156 NA
ATOM      6  C   UNL     1      -2.377   0.921  24.310  0.00  0.00    +0.096 C 
ATOM      7  C   UNL     1      -3.157   0.883  24.579  0.00  0.00    +0.020 C 
ATOM      8  C   UNL     1      -3.425   0.210  24.974  0.00  0.00    +0.012 C 
ENDROOT
BRANCH   5  17
ATOM     17  S   UNL     1      -1.088   0.324  24.168  0.00  0.00    +0.063 S 
ATOM     18  O   UNL     1      -0.816   0.242  24.942  0.00  0.00    -0.153 OA
ATOM     19  O   UNL     1      -1.360   0.406  23.393  0.00  0.00    -0.153 OA
BRANCH  17  20
ATOM     20  C   UNL     1      -0.309   0.363  23.898  0.00  0.00    +0.122 A 
ATOM     21  C   UNL     1       0.034  -0.292  23.533  0.00  0.00    +0.023 A 
ATOM     22  C   UNL     1       0.813  -0.253  23.263  0.00  0.00    +0.038 A 
ATOM     23  C   UNL     1       1.248   0.441  23.358  0.00  0.00    +0.139 A 
ATOM     26  C   UNL     1       0.905   1.097  23.724  0.00  0.00    +0.038 A 
ATOM     27  C   UNL     1       0.126   1.057  23.994  0.00  0.00    +0.023 A 
BRANCH  23  24
ATOM     24  O   UNL     1       2.027   0.481  23.089  0.00  0.00    -0.471 OA
ATOM     25  C   UNL     1       2.256   0.047  22.425  0.00  0.00    +0.252 C 
ENDBRANCH  23  24
ENDBRANCH  17  20
ENDBRANCH   5  17
BRANCH   3   2
ATOM      1  C   UNL     1      -2.985  -1.848  25.213  0.00  0.00    +0.000 C 
ATOM      2  C   UNL     1      -3.181  -1.099  25.496  0.00  0.00    +0.001 C 
ENDBRANCH   3   2
BRANCH   8   9
ATOM      9  C   UNL     1      -4.204   0.173  25.243  0.00  0.00    +0.087 C 
BRANCH   9  10
ATOM     10  C   UNL     1      -4.747   0.751  25.018  0.00  0.00    +0.241 C 
ATOM     11  O   UNL     1      -5.063   0.746  24.256  0.00  0.00    -0.273 OA
ATOM     12  N   UNL     1      -4.973   1.335  25.554  0.00  0.00    -0.203 NA
BRANCH  12  13
ATOM     13  C   UNL     1      -5.515   1.915  25.329  0.00  0.00    +0.147 C 
BRANCH  13  14
ATOM     14  C   UNL     1      -5.627   2.581  25.801  0.00  0.00    +0.166 C 
BRANCH  14  15
ATOM     15  O   UNL     1      -5.885   3.289  25.464  0.00  0.00    -0.349 OA
ATOM     16  C   UNL     1      -5.511   3.998  25.655  0.00  0.00    +0.174 C 
ENDBRANCH  14  15
ENDBRANCH  13  14
ENDBRANCH  12  13
ENDBRANCH   9  10
ENDBRANCH   8   9
TORSDOF 9
ENDMDL
MODEL 9
REMARK VINA RESULT:      -6.9      2.389      5.280
REMARK  Name = 
REMARK  9 active torsions:
REMARK  status: ('A' for Active; 'I' for Inactive)
REMARK    1  A    between atoms: C_2  and  C_3
REMARK    2  A    between atoms: N_5  and  S_17
REMARK    3  A    between atoms: C_8  and  C_9
REMARK    4  A    between atoms: C_9  and  C_10
REMARK    5  A    between atoms: N_12  and  C_13
REMARK    6  A    between atoms: C_13  and  C_14
REMARK    7  A    between atoms: C_14  and  O_15
REMARK    8  A    between atoms: S_17  and  C_20
REMARK    9  A    between atoms: C_23  and  O_24
REMARK                            x       y       z     vdW  Elec       q    Type
REMARK                         _______ _______ _______ _____ _____    ______ ____
ROOT
ATOM      3  C   UNL     1      -1.049   1.950  25.198  0.00  0.00    +0.018 C 
ATOM      4  C   UNL     1      -1.766   2.328  25.349  0.00  0.00    +0.096 C 
ATOM      5  N   UNL     1      -2.417   2.185  24.862  0.00  0.00    -0.156 NA
ATOM      6  C   UNL     1      -2.350   1.666  24.225  0.00  0.00    +0.096 C 
ATOM      7  C   UNL     1      -1.632   1.288  24.074  0.00  0.00    +0.020 C 
ATOM      8  C   UNL     1      -0.981   1.430  24.561  0.00  0.00    +0.012 C 
ENDROOT
BRANCH   5  17
ATOM     17  S   UNL     1      -3.135   2.562  25.012  0.00  0.00    +0.063 S 
ATOM     18  O   UNL     1      -3.375   1.924  25.475  0.00  0.00    -0.153 OA
ATOM     19  O   UNL     1      -2.895   3.202  24.549  0.00  0.00    -0.153 OA
BRANCH  17  20
ATOM     20  C   UNL     1      -3.853   2.941  25.162  0.00  0.00    +0.122 A 
ATOM     21  C   UNL     1      -4.561   2.524  25.096  0.00  0.00    +0.023 A 
ATOM     22  C   UNL     1      -5.279   2.902  25.245  0.00  0.00    +0.038 A 
ATOM     23  C   UNL     1      -5.288   3.698  25.461  0.00  0.00    +0.139 A 
ATOM     26  C   UNL     1      -4.579   4.116  25.527  0.00  0.00    +0.038 A 
ATOM     27  C   UNL     1      -3.862   3.737  25.378  0.00  0.00    +0.023 A 
BRANCH  23  24
ATOM     24  O   UNL     1      -6.005   4.078  25.610  0.00  0.00    -0.471 OA
ATOM     25  C   UNL     1      -6.056   4.900  25.553  0.00  0.00    +0.252 C 
ENDBRANCH  23  24
ENDBRANCH  17  20
ENDBRANCH   5  17
BRANCH   3   2
ATOM      1  C   UNL     1      -0.406   2.731  26.209  0.00  0.00    +0.000 C 
ATOM      2  C   UNL     1      -0.397   2.093  25.685  0.00  0.00    +0.001 C 
ENDBRANCH   3   2
BRANCH   8   9
ATOM      9  C   UNL     1      -0.263   1.053  24.410  0.00  0.00    +0.087 C 
BRANCH   9  10
ATOM     10  C   UNL     1      -0.255   0.299  24.075  0.00  0.00    +0.241 C 
ATOM     11  O   UNL     1      -0.090   0.206  23.272  0.00  0.00    -0.273 OA
ATOM     12  N   UNL     1      -0.413  -0.361  24.543  0.00  0.00    -0.203 NA
BRANCH  12  13
ATOM     13  C   UNL     1      -0.406  -1.116  24.208  0.00  0.00    +0.147 C 
BRANCH  13  14
ATOM     14  C   UNL     1      -0.746  -1.749  24.611  0.00  0.00    +0.166 C 
BRANCH  14  15
ATOM     15  O   UNL     1      -1.188  -2.312  24.199  0.00  0.00    -0.349 OA
ATOM     16  C   UNL     1      -1.887  -2.605  24.523  0.00  0.00    +0.174 C 
ENDBRANCH  14  15
ENDBRANCH  13  14
ENDBRANCH  12  13
ENDBRANCH   9  10
ENDBRANCH   8   9
TORSDOF 9
ENDMDL
