MODEL 1
REMARK VINA RESULT:     -11.8      0.000      0.000
REMARK  Name = 
REMARK  5 active torsions:
REMARK  status: ('A' for Active; 'I' for Inactive)
REMARK    1  A    between atoms: O_2  and  C_3
REMARK    2  A    between atoms: C_6  and  C_9
REMARK    3  A    between atoms: N_11  and  C_12
REMARK    4  A    between atoms: C_14  and  C_18
REMARK    5  A    between atoms: C_20  and  C_23
REMARK                            x       y       z     vdW  Elec       q    Type
REMARK                         _______ _______ _______ _____ _____    ______ ____
ROOT
ATOM     12  C   UNL     1      -4.434   1.222  25.137  0.00  0.00    +0.113 C 
ATOM     13  C   UNL     1      -3.794   1.702  25.337  0.00  0.00    +0.049 C 
ATOM     14  C   UNL     1      -4.053   2.485  25.333  0.00  0.00    +0.139 C 
ATOM     15  N   UNL     1      -4.852   2.489  25.131  0.00  0.00    -0.264 NA
ATOM     16  C   UNL     1      -5.333   3.155  25.062  0.00  0.00    +0.090 C 
ATOM     17  C   UNL     1      -5.088   1.707  25.010  0.00  0.00    +0.094 C 
ENDROOT
BRANCH  14  18
ATOM     18  C   UNL     1      -3.592   3.149  25.502  0.00  0.00    +0.251 A 
ATOM     19  N   UNL     1      -2.898   3.369  25.115  0.00  0.00    -0.190 NA
ATOM     20  C   UNL     1      -2.622   4.065  25.462  0.00  0.00    +0.203 A 
ATOM     21  N   UNL     1      -3.146   4.275  26.064  0.00  0.00    -0.056 NA
ATOM     22  O   UNL     1      -3.746   3.709  26.089  0.00  0.00    -0.336 OA
BRANCH  20  23
ATOM     23  C   UNL     1      -1.941   4.478  25.246  0.00  0.00    +0.039 A 
ATOM     24  C   UNL     1      -1.973   5.295  25.134  0.00  0.00    +0.003 A 
ATOM     25  C   UNL     1      -1.293   5.708  24.918  0.00  0.00    +0.000 A 
ATOM     26  C   UNL     1      -0.581   5.304  24.812  0.00  0.00    +0.000 A 
ATOM     27  C   UNL     1      -0.549   4.488  24.924  0.00  0.00    +0.000 A 
ATOM     28  C   UNL     1      -1.230   4.074  25.140  0.00  0.00    +0.003 A 
ENDBRANCH  20  23
ENDBRANCH  14  18
BRANCH  12  11
ATOM      9  C   UNL     1      -3.936   0.034  24.517  0.00  0.00    +0.265 C 
ATOM     10  O   UNL     1      -3.464   0.493  24.020  0.00  0.00    -0.268 OA
ATOM     11  N   UNL     1      -4.422   0.399  25.075  0.00  0.00    -0.202 NA
BRANCH   9   6
ATOM      3  C   UNL     1      -3.899  -2.434  24.331  0.00  0.00    +0.139 A 
ATOM      4  C   UNL     1      -4.290  -1.983  23.762  0.00  0.00    +0.037 A 
ATOM      5  C   UNL     1      -4.303  -1.160  23.824  0.00  0.00    +0.008 A 
ATOM      6  C   UNL     1      -3.924  -0.788  24.455  0.00  0.00    +0.055 A 
ATOM      7  C   UNL     1      -3.533  -1.239  25.024  0.00  0.00    +0.008 A 
ATOM      8  C   UNL     1      -3.521  -2.062  24.962  0.00  0.00    +0.037 A 
BRANCH   3   2
ATOM      1  C   UNL     1      -3.167  -3.657  24.249  0.00  0.00    +0.252 C 
ATOM      2  O   UNL     1      -3.887  -3.256  24.269  0.00  0.00    -0.471 OA
ENDBRANCH   3   2
ENDBRANCH   9   6
ENDBRANCH  12  11
TORSDOF 5
ENDMDL
MODEL 2
REMARK VINA RESULT:     -10.4      2.241      6.427
REMARK  Name = 
REMARK  5 active torsions:
REMARK  status: ('A' for Active; 'I' for Inactive)
REMARK    1  A    between atoms: O_2  and  C_3
REMARK    2  A    between atoms: C_6  and  C_9
REMARK    3  A    between atoms: N_11  and  C_12
REMARK    4  A    between atoms: C_14  and  C_18
REMARK    5  A    between atoms: C_20  and  C_23
REMARK                            x       y       z     vdW  Elec       q    Type
REMARK                         _______ _______ _______ _____ _____    ______ ____
ROOT
ATOM     12  C   UNL     1      -0.658   1.308  24.766  0.00  0.00    +0.113 C 
ATOM     13  C   UNL     1      -1.222   0.738  24.961  0.00  0.00    +0.049 C 
ATOM     14  C   UNL     1      -0.966   0.013  24.660  0.00  0.00    +0.139 C 
ATOM     15  N   UNL     1      -0.244   0.136  24.280  0.00  0.00    -0.264 NA
ATOM     16  C   UNL     1       0.208  -0.440  23.901  0.00  0.00    +0.090 C 
ATOM     17  C   UNL     1      -0.054   0.936  24.346  0.00  0.00    +0.094 C 
ENDROOT
BRANCH  14  18
ATOM     18  C   UNL     1      -1.363  -0.707  24.727  0.00  0.00    +0.251 A 
ATOM     19  N   UNL     1      -2.104  -0.884  24.411  0.00  0.00    -0.190 NA
ATOM     20  C   UNL     1      -2.287  -1.663  24.612  0.00  0.00    +0.203 A 
ATOM     21  N   UNL     1      -1.659  -1.968  25.051  0.00  0.00    -0.056 NA
ATOM     22  O   UNL     1      -1.087  -1.377  25.123  0.00  0.00    -0.336 OA
BRANCH  20  23
ATOM     23  C   UNL     1      -2.977  -2.067  24.408  0.00  0.00    +0.039 A 
ATOM     24  C   UNL     1      -3.026  -2.883  24.520  0.00  0.00    +0.003 A 
ATOM     25  C   UNL     1      -3.715  -3.287  24.316  0.00  0.00    +0.000 A 
ATOM     26  C   UNL     1      -4.357  -2.875  24.000  0.00  0.00    +0.000 A 
ATOM     27  C   UNL     1      -4.308  -2.059  23.888  0.00  0.00    +0.000 A 
ATOM     28  C   UNL     1      -3.618  -1.655  24.092  0.00  0.00    +0.003 A 
ENDBRANCH  20  23
ENDBRANCH  14  18
BRANCH  12  11
ATOM      9  C   UNL     1      -1.175   2.618  24.524  0.00  0.00    +0.265 C 
ATOM     10  O   UNL     1      -1.623   2.324  23.897  0.00  0.00    -0.268 OA
ATOM     11  N   UNL     1      -0.693   2.109  24.959  0.00  0.00    -0.202 NA
BRANCH   9   6
ATOM      3  C   UNL     1      -1.279   5.022  25.103  0.00  0.00    +0.139 A 
ATOM      4  C   UNL     1      -0.625   4.723  24.700  0.00  0.00    +0.037 A 
ATOM      5  C   UNL     1      -0.590   3.921  24.507  0.00  0.00    +0.008 A 
ATOM      6  C   UNL     1      -1.210   3.419  24.717  0.00  0.00    +0.055 A 
ATOM      7  C   UNL     1      -1.864   3.718  25.120  0.00  0.00    +0.008 A 
ATOM      8  C   UNL     1      -1.899   4.520  25.313  0.00  0.00    +0.037 A 
BRANCH   3   2
ATOM      1  C   UNL     1      -1.864   6.313  24.925  0.00  0.00    +0.252 C 
ATOM      2  O   UNL     1      -1.314   5.823  25.295  0.00  0.00    -0.471 OA
ENDBRANCH   3   2
ENDBRANCH   9   6
ENDBRANCH  12  11
TORSDOF 5
ENDMDL
MODEL 3
REMARK VINA RESULT:     -10.3      2.145      2.785
REMARK  Name = 
REMARK  5 active torsions:
REMARK  status: ('A' for Active; 'I' for Inactive)
REMARK    1  A    between atoms: O_2  and  C_3
REMARK    2  A    between atoms: C_6  and  C_9
REMARK    3  A    between atoms: N_11  and  C_12
REMARK    4  A    between atoms: C_14  and  C_18
REMARK    5  A    between atoms: C_20  and  C_23
REMARK                            x       y       z     vdW  Elec       q    Type
REMARK                         _______ _______ _______ _____ _____    ______ ____
ROOT
ATOM     12  C   UNL     1      -1.063   0.260  24.321  0.00  0.00    +0.113 C 
ATOM     13  C   UNL     1      -1.251   0.975  24.686  0.00  0.00    +0.049 C 
ATOM     14  C   UNL     1      -0.579   1.454  24.667  0.00  0.00    +0.139 C 
ATOM     15  N   UNL     1       0.023   1.034  24.291  0.00  0.00    -0.264 NA
ATOM     16  C   UNL     1       0.790   1.304  24.152  0.00  0.00    +0.090 C 
ATOM     17  C   UNL     1      -0.276   0.295  24.077  0.00  0.00    +0.094 C 
ENDROOT
BRANCH  14  18
ATOM     18  C   UNL     1      -0.520   2.219  24.971  0.00  0.00    +0.251 A 
ATOM     19  N   UNL     1      -0.975   2.868  24.743  0.00  0.00    -0.190 NA
ATOM     20  C   UNL     1      -0.731   3.519  25.188  0.00  0.00    +0.203 A 
ATOM     21  N   UNL     1      -0.126   3.272  25.691  0.00  0.00    -0.056 NA
ATOM     22  O   UNL     1       0.005   2.468  25.557  0.00  0.00    -0.336 OA
BRANCH  20  23
ATOM     23  C   UNL     1      -1.039   4.283  25.139  0.00  0.00    +0.039 A 
ATOM     24  C   UNL     1      -1.795   4.443  25.428  0.00  0.00    +0.003 A 
ATOM     25  C   UNL     1      -2.102   5.206  25.379  0.00  0.00    +0.000 A 
ATOM     26  C   UNL     1      -1.655   5.810  25.039  0.00  0.00    +0.000 A 
ATOM     27  C   UNL     1      -0.899   5.651  24.750  0.00  0.00    +0.000 A 
ATOM     28  C   UNL     1      -0.591   4.887  24.799  0.00  0.00    +0.003 A 
ENDBRANCH  20  23
ENDBRANCH  14  18
BRANCH  12  11
ATOM      9  C   UNL     1      -1.802  -0.834  24.868  0.00  0.00    +0.265 C 
ATOM     10  O   UNL     1      -1.518  -0.648  25.620  0.00  0.00    -0.268 OA
ATOM     11  N   UNL     1      -1.573  -0.380  24.219  0.00  0.00    -0.202 NA
BRANCH   9   6
ATOM      3  C   UNL     1      -3.334  -2.754  24.562  0.00  0.00    +0.139 A 
ATOM      4  C   UNL     1      -3.637  -2.009  24.744  0.00  0.00    +0.037 A 
ATOM      5  C   UNL     1      -3.126  -1.369  24.846  0.00  0.00    +0.008 A 
ATOM      6  C   UNL     1      -2.312  -1.474  24.766  0.00  0.00    +0.055 A 
ATOM      7  C   UNL     1      -2.009  -2.219  24.584  0.00  0.00    +0.008 A 
ATOM      8  C   UNL     1      -2.520  -2.859  24.481  0.00  0.00    +0.037 A 
BRANCH   3   2
ATOM      1  C   UNL     1      -4.366  -3.406  23.821  0.00  0.00    +0.252 C 
ATOM      2  O   UNL     1      -3.844  -3.394  24.459  0.00  0.00    -0.471 OA
ENDBRANCH   3   2
ENDBRANCH   9   6
ENDBRANCH  12  11
TORSDOF 5
ENDMDL
MODEL 4
REMARK VINA RESULT:     -10.0      1.087      5.831
REMARK  Name = 
REMARK  5 active torsions:
REMARK  status: ('A' for Active; 'I' for Inactive)
REMARK    1  A    between atoms: O_2  and  C_3
REMARK    2  A    between atoms: C_6  and  C_9
REMARK    3  A    between atoms: N_11  and  C_12
REMARK    4  A    between atoms: C_14  and  C_18
REMARK    5  A    between atoms: C_20  and  C_23
REMARK                            x       y       z     vdW  Elec       q    Type
REMARK                         _______ _______ _______ _____ _____    ______ ____
ROOT
ATOM     12  C   UNL     1      -3.755   2.443  24.749  0.00  0.00    +0.113 C 
ATOM     13  C   UNL     1      -3.639   1.655  24.531  0.00  0.00    +0.049 C 
ATOM     14  C   UNL     1      -4.326   1.237  24.716  0.00  0.00    +0.139 C 
ATOM     15  N   UNL     1      -4.865   1.766  25.048  0.00  0.00    -0.264 NA
ATOM     16  C   UNL     1      -5.624   1.582  25.313  0.00  0.00    +0.090 C 
ATOM     17  C   UNL     1      -4.512   2.511  25.068  0.00  0.00    +0.094 C 
ENDROOT
BRANCH  14  18
ATOM     18  C   UNL     1      -4.451   0.431  24.591  0.00  0.00    +0.251 A 
ATOM     19  N   UNL     1      -3.912  -0.173  24.746  0.00  0.00    -0.190 NA
ATOM     20  C   UNL     1      -4.265  -0.890  24.539  0.00  0.00    +0.203 A 
ATOM     21  N   UNL     1      -5.023  -0.728  24.257  0.00  0.00    -0.056 NA
ATOM     22  O   UNL     1      -5.139   0.089  24.289  0.00  0.00    -0.336 OA
BRANCH  20  23
ATOM     23  C   UNL     1      -3.921  -1.637  24.604  0.00  0.00    +0.039 A 
ATOM     24  C   UNL     1      -3.970  -2.170  23.976  0.00  0.00    +0.003 A 
ATOM     25  C   UNL     1      -3.626  -2.916  24.041  0.00  0.00    +0.000 A 
ATOM     26  C   UNL     1      -3.233  -3.131  24.733  0.00  0.00    +0.000 A 
ATOM     27  C   UNL     1      -3.184  -2.598  25.362  0.00  0.00    +0.000 A 
ATOM     28  C   UNL     1      -3.528  -1.851  25.297  0.00  0.00    +0.003 A 
ENDBRANCH  20  23
ENDBRANCH  14  18
BRANCH  12  11
ATOM      9  C   UNL     1      -2.640   3.186  25.245  0.00  0.00    +0.265 C 
ATOM     10  O   UNL     1      -2.619   2.705  25.915  0.00  0.00    -0.268 OA
ATOM     11  N   UNL     1      -3.208   3.054  24.662  0.00  0.00    -0.202 NA
BRANCH   9   6
ATOM      3  C   UNL     1      -0.999   5.021  24.985  0.00  0.00    +0.139 A 
ATOM      4  C   UNL     1      -1.761   5.184  25.255  0.00  0.00    +0.037 A 
ATOM      5  C   UNL     1      -2.308   4.572  25.342  0.00  0.00    +0.008 A 
ATOM      6  C   UNL     1      -2.093   3.797  25.159  0.00  0.00    +0.055 A 
ATOM      7  C   UNL     1      -1.331   3.634  24.889  0.00  0.00    +0.008 A 
ATOM      8  C   UNL     1      -0.784   4.247  24.802  0.00  0.00    +0.037 A 
BRANCH   3   2
ATOM      1  C   UNL     1       0.005   5.682  24.215  0.00  0.00    +0.252 C 
ATOM      2  O   UNL     1      -0.453   5.632  24.899  0.00  0.00    -0.471 OA
ENDBRANCH   3   2
ENDBRANCH   9   6
ENDBRANCH  12  11
TORSDOF 5
ENDMDL
MODEL 5
REMARK VINA RESULT:      -9.6      3.654      5.206
REMARK  Name = 
REMARK  5 active torsions:
REMARK  status: ('A' for Active; 'I' for Inactive)
REMARK    1  A    between atoms: O_2  and  C_3
REMARK    2  A    between atoms: C_6  and  C_9
REMARK    3  A    between atoms: N_11  and  C_12
REMARK    4  A    between atoms: C_14  and  C_18
REMARK    5  A    between atoms: C_20  and  C_23
REMARK                            x       y       z     vdW  Elec       q    Type
REMARK                         _______ _______ _______ _____ _____    ______ ____
ROOT
ATOM     12  C   UNL     1      -0.564   0.428  24.284  0.00  0.00    +0.113 C 
ATOM     13  C   UNL     1      -1.267   0.786  24.042  0.00  0.00    +0.049 C 
ATOM     14  C   UNL     1      -1.883   0.463  24.486  0.00  0.00    +0.139 C 
ATOM     15  N   UNL     1      -1.560  -0.094  25.002  0.00  0.00    -0.264 NA
ATOM     16  C   UNL     1      -1.978  -0.550  25.547  0.00  0.00    +0.090 C 
ATOM     17  C   UNL     1      -0.744  -0.116  24.876  0.00  0.00    +0.094 C 
ENDROOT
BRANCH  14  18
ATOM     18  C   UNL     1      -2.680   0.662  24.425  0.00  0.00    +0.251 A 
ATOM     19  N   UNL     1      -3.062   1.268  24.834  0.00  0.00    -0.190 NA
ATOM     20  C   UNL     1      -3.855   1.271  24.606  0.00  0.00    +0.203 A 
ATOM     21  N   UNL     1      -3.964   0.667  24.055  0.00  0.00    -0.056 NA
ATOM     22  O   UNL     1      -3.238   0.290  23.943  0.00  0.00    -0.336 OA
BRANCH  20  23
ATOM     23  C   UNL     1      -4.437   1.788  24.880  0.00  0.00    +0.039 A 
ATOM     24  C   UNL     1      -5.154   1.490  25.159  0.00  0.00    +0.003 A 
ATOM     25  C   UNL     1      -5.736   2.007  25.433  0.00  0.00    +0.000 A 
ATOM     26  C   UNL     1      -5.601   2.821  25.428  0.00  0.00    +0.000 A 
ATOM     27  C   UNL     1      -4.884   3.118  25.150  0.00  0.00    +0.000 A 
ATOM     28  C   UNL     1      -4.301   2.601  24.875  0.00  0.00    +0.003 A 
ENDBRANCH  20  23
ENDBRANCH  14  18
BRANCH  12  11
ATOM      9  C   UNL     1       0.548   0.054  23.467  0.00  0.00    +0.265 C 
ATOM     10  O   UNL     1       0.154  -0.637  23.249  0.00  0.00    -0.268 OA
ATOM     11  N   UNL     1       0.188   0.587  23.984  0.00  0.00    -0.202 NA
BRANCH   9   6
ATOM      3  C   UNL     1       2.804   0.530  22.569  0.00  0.00    +0.139 A 
ATOM      4  C   UNL     1       2.364  -0.097  22.265  0.00  0.00    +0.037 A 
ATOM      5  C   UNL     1       1.611  -0.256  22.565  0.00  0.00    +0.008 A 
ATOM      6  C   UNL     1       1.300   0.213  23.168  0.00  0.00    +0.055 A 
ATOM      7  C   UNL     1       1.741   0.840  23.472  0.00  0.00    +0.008 A 
ATOM      8  C   UNL     1       2.494   0.998  23.172  0.00  0.00    +0.037 A 
BRANCH   3   2
ATOM      1  C   UNL     1       4.216   0.631  22.761  0.00  0.00    +0.252 C 
ATOM      2  O   UNL     1       3.557   0.689  22.270  0.00  0.00    -0.471 OA
ENDBRANCH   3   2
ENDBRANCH   9   6
ENDBRANCH  12  11
TORSDOF 5
ENDMDL
MODEL 6
REMARK VINA RESULT:      -9.5      4.161      6.392
REMARK  Name = 
REMARK  5 active torsions:
REMARK  status: ('A' for Active; 'I' for Inactive)
REMARK    1  A    between atoms: O_2  and  C_3
REMARK    2  A    between atoms: C_6  and  C_9
REMARK    3  A    between atoms: N_11  and  C_12
REMARK    4  A    between atoms: C_14  and  C_18
REMARK    5  A    between atoms: C_20  and  C_23
REMARK                            x       y       z     vdW  Elec       q    Type
REMARK                         _______ _______ _______ _____ _____    ______ ____
ROOT
ATOM     12  C   UNL     1       0.277   0.866  23.888  0.00  0.00    +0.113 C 
ATOM     13  C   UNL     1      -0.169   0.263  24.233  0.00  0.00    +0.049 C 
ATOM     14  C   UNL     1      -0.957   0.508  24.251  0.00  0.00    +0.139 C 
ATOM     15  N   UNL     1      -0.997   1.261  23.917  0.00  0.00    -0.264 NA
ATOM     16  C   UNL     1      -1.680   1.715  23.824  0.00  0.00    +0.090 C 
ATOM     17  C   UNL     1      -0.234   1.482  23.693  0.00  0.00    +0.094 C 
ENDROOT
BRANCH  14  18
ATOM     18  C   UNL     1      -1.592   0.075  24.550  0.00  0.00    +0.251 A 
ATOM     19  N   UNL     1      -1.988  -0.535  24.162  0.00  0.00    -0.190 NA
ATOM     20  C   UNL     1      -2.584  -0.811  24.662  0.00  0.00    +0.203 A 
ATOM     21  N   UNL     1      -2.556  -0.370  25.359  0.00  0.00    -0.056 NA
ATOM     22  O   UNL     1      -1.943   0.178  25.290  0.00  0.00    -0.336 OA
BRANCH  20  23
ATOM     23  C   UNL     1      -3.115  -1.420  24.495  0.00  0.00    +0.039 A 
ATOM     24  C   UNL     1      -2.963  -2.185  24.763  0.00  0.00    +0.003 A 
ATOM     25  C   UNL     1      -3.494  -2.794  24.596  0.00  0.00    +0.000 A 
ATOM     26  C   UNL     1      -4.177  -2.638  24.160  0.00  0.00    +0.000 A 
ATOM     27  C   UNL     1      -4.329  -1.873  23.892  0.00  0.00    +0.000 A 
ATOM     28  C   UNL     1      -3.798  -1.263  24.059  0.00  0.00    +0.003 A 
ENDBRANCH  20  23
ENDBRANCH  14  18
BRANCH  12  11
ATOM      9  C   UNL     1       1.405   0.424  23.130  0.00  0.00    +0.265 C 
ATOM     10  O   UNL     1       0.901   0.008  22.625  0.00  0.00    -0.268 OA
ATOM     11  N   UNL     1       1.092   0.853  23.761  0.00  0.00    -0.202 NA
BRANCH   9   6
ATOM      3  C   UNL     1       3.850   0.386  22.748  0.00  0.00    +0.139 A 
ATOM      4  C   UNL     1       3.464   1.103  22.877  0.00  0.00    +0.037 A 
ATOM      5  C   UNL     1       2.648   1.116  23.004  0.00  0.00    +0.008 A 
ATOM      6  C   UNL     1       2.220   0.411  23.002  0.00  0.00    +0.055 A 
ATOM      7  C   UNL     1       2.605  -0.306  22.873  0.00  0.00    +0.008 A 
ATOM      8  C   UNL     1       3.421  -0.319  22.746  0.00  0.00    +0.037 A 
BRANCH   3   2
ATOM      1  C   UNL     1       5.179   0.269  23.256  0.00  0.00    +0.252 C 
ATOM      2  O   UNL     1       4.665   0.373  22.621  0.00  0.00    -0.471 OA
ENDBRANCH   3   2
ENDBRANCH   9   6
ENDBRANCH  12  11
TORSDOF 5
ENDMDL
MODEL 7
REMARK VINA RESULT:      -9.5      2.963      4.610
REMARK  Name = 
REMARK  5 active torsions:
REMARK  status: ('A' for Active; 'I' for Inactive)
REMARK    1  A    between atoms: O_2  and  C_3
REMARK    2  A    between atoms: C_6  and  C_9
REMARK    3  A    between atoms: N_11  and  C_12
REMARK    4  A    between atoms: C_14  and  C_18
REMARK    5  A    between atoms: C_20  and  C_23
REMARK                            x       y       z     vdW  Elec       q    Type
REMARK                         _______ _______ _______ _____ _____    ______ ____
ROOT
ATOM     12  C   UNL     1      -0.937   2.645  24.261  0.00  0.00    +0.113 C 
ATOM     13  C   UNL     1      -1.749   2.568  24.138  0.00  0.00    +0.049 C 
ATOM     14  C   UNL     1      -2.133   3.105  24.633  0.00  0.00    +0.139 C 
ATOM     15  N   UNL     1      -1.558   3.514  25.060  0.00  0.00    -0.264 NA
ATOM     16  C   UNL     1      -1.697   4.104  25.620  0.00  0.00    +0.090 C 
ATOM     17  C   UNL     1      -0.818   3.230  24.830  0.00  0.00    +0.094 C 
ENDROOT
BRANCH  14  18
ATOM     18  C   UNL     1      -2.949   3.214  24.690  0.00  0.00    +0.251 A 
ATOM     19  N   UNL     1      -3.492   2.667  24.984  0.00  0.00    -0.190 NA
ATOM     20  C   UNL     1      -4.244   3.004  24.938  0.00  0.00    +0.203 A 
ATOM     21  N   UNL     1      -4.165   3.760  24.616  0.00  0.00    -0.056 NA
ATOM     22  O   UNL     1      -3.365   3.890  24.463  0.00  0.00    -0.336 OA
BRANCH  20  23
ATOM     23  C   UNL     1      -4.950   2.648  25.174  0.00  0.00    +0.039 A 
ATOM     24  C   UNL     1      -5.309   2.085  24.690  0.00  0.00    +0.003 A 
ATOM     25  C   UNL     1      -6.015   1.730  24.925  0.00  0.00    +0.000 A 
ATOM     26  C   UNL     1      -6.362   1.937  25.644  0.00  0.00    +0.000 A 
ATOM     27  C   UNL     1      -6.003   2.500  26.128  0.00  0.00    +0.000 A 
ATOM     28  C   UNL     1      -5.297   2.856  25.893  0.00  0.00    +0.003 A 
ENDBRANCH  20  23
ENDBRANCH  14  18
BRANCH  12  11
ATOM      9  C   UNL     1      -0.129   1.470  24.164  0.00  0.00    +0.265 C 
ATOM     10  O   UNL     1      -0.504   1.159  24.830  0.00  0.00    -0.268 OA
ATOM     11  N   UNL     1      -0.346   2.213  23.879  0.00  0.00    -0.202 NA
BRANCH   9   6
ATOM      3  C   UNL     1       1.642   0.174  23.020  0.00  0.00    +0.139 A 
ATOM      4  C   UNL     1       0.868  -0.109  23.035  0.00  0.00    +0.037 A 
ATOM      5  C   UNL     1       0.277   0.323  23.416  0.00  0.00    +0.008 A 
ATOM      6  C   UNL     1       0.461   1.038  23.783  0.00  0.00    +0.055 A 
ATOM      7  C   UNL     1       1.235   1.322  23.768  0.00  0.00    +0.008 A 
ATOM      8  C   UNL     1       1.826   0.890  23.387  0.00  0.00    +0.037 A 
BRANCH   3   2
ATOM      1  C   UNL     1       2.876   0.132  22.303  0.00  0.00    +0.252 C 
ATOM      2  O   UNL     1       2.233  -0.258  22.639  0.00  0.00    -0.471 OA
ENDBRANCH   3   2
ENDBRANCH   9   6
ENDBRANCH  12  11
TORSDOF 5
ENDMDL
MODEL 8
REMARK VINA RESULT:      -9.3      4.086      5.543
REMARK  Name = 
REMARK  5 active torsions:
REMARK  status: ('A' for Active; 'I' for Inactive)
REMARK    1  A    between atoms: O_2  and  C_3
REMARK    2  A    between atoms: C_6  and  C_9
REMARK    3  A    between atoms: N_11  and  C_12
REMARK    4  A    between atoms: C_14  and  C_18
REMARK    5  A    between atoms: C_20  and  C_23
REMARK                            x       y       z     vdW  Elec       q    Type
REMARK                         _______ _______ _______ _____ _____    ______ ____
ROOT
ATOM     12  C   UNL     1      -1.155   0.767  24.257  0.00  0.00    +0.113 C 
ATOM     13  C   UNL     1      -0.526   0.915  23.745  0.00  0.00    +0.049 C 
ATOM     14  C   UNL     1      -0.058   0.235  23.714  0.00  0.00    +0.139 C 
ATOM     15  N   UNL     1      -0.399  -0.332  24.207  0.00  0.00    -0.264 NA
ATOM     16  C   UNL     1      -0.113  -1.093  24.341  0.00  0.00    +0.090 C 
ATOM     17  C   UNL     1      -1.078  -0.003  24.543  0.00  0.00    +0.094 C 
ENDROOT
BRANCH  14  18
ATOM     18  C   UNL     1       0.629   0.140  23.269  0.00  0.00    +0.251 A 
ATOM     19  N   UNL     1       1.392   0.354  23.501  0.00  0.00    -0.190 NA
ATOM     20  C   UNL     1       1.909   0.160  22.888  0.00  0.00    +0.203 A 
ATOM     21  N   UNL     1       1.467  -0.173  22.276  0.00  0.00    -0.056 NA
ATOM     22  O   UNL     1       0.675  -0.185  22.512  0.00  0.00    -0.336 OA
BRANCH  20  23
ATOM     23  C   UNL     1       2.726   0.279  22.886  0.00  0.00    +0.039 A 
ATOM     24  C   UNL     1       3.033   1.031  22.741  0.00  0.00    +0.003 A 
ATOM     25  C   UNL     1       3.849   1.149  22.739  0.00  0.00    +0.000 A 
ATOM     26  C   UNL     1       4.358   0.517  22.883  0.00  0.00    +0.000 A 
ATOM     27  C   UNL     1       4.051  -0.235  23.029  0.00  0.00    +0.000 A 
ATOM     28  C   UNL     1       3.234  -0.354  23.030  0.00  0.00    +0.003 A 
ENDBRANCH  20  23
ENDBRANCH  14  18
BRANCH  12  11
ATOM      9  C   UNL     1      -2.456   1.305  24.012  0.00  0.00    +0.265 C 
ATOM     10  O   UNL     1      -2.551   0.784  23.380  0.00  0.00    -0.268 OA
ATOM     11  N   UNL     1      -1.757   1.297  24.450  0.00  0.00    -0.202 NA
BRANCH   9   6
ATOM      3  C   UNL     1      -4.262   2.895  24.590  0.00  0.00    +0.139 A 
ATOM      4  C   UNL     1      -3.603   3.156  24.169  0.00  0.00    +0.037 A 
ATOM      5  C   UNL     1      -3.000   2.625  23.976  0.00  0.00    +0.008 A 
ATOM      6  C   UNL     1      -3.058   1.835  24.204  0.00  0.00    +0.055 A 
ATOM      7  C   UNL     1      -3.717   1.575  24.625  0.00  0.00    +0.008 A 
ATOM      8  C   UNL     1      -4.320   2.105  24.818  0.00  0.00    +0.037 A 
BRANCH   3   2
ATOM      1  C   UNL     1      -5.083   3.532  25.571  0.00  0.00    +0.252 C 
ATOM      2  O   UNL     1      -4.865   3.425  24.783  0.00  0.00    -0.471 OA
ENDBRANCH   3   2
ENDBRANCH   9   6
ENDBRANCH  12  11
TORSDOF 5
ENDMDL
