MODEL 1
REMARK VINA RESULT:      -9.2      0.000      0.000
REMARK  Name = 
REMARK  6 active torsions:
REMARK  status: ('A' for Active; 'I' for Inactive)
REMARK    1  A    between atoms: N_6  and  C_7
REMARK    2  A    between atoms: C_7  and  C_8
REMARK    3  A    between atoms: C_18  and  C_19
REMARK    4  A    between atoms: C_19  and  C_20
REMARK    5  A    between atoms: C_20  and  C_21
REMARK    6  A    between atoms: N_23  and  C_24
REMARK                            x       y       z     vdW  Elec       q    Type
REMARK                         _______ _______ _______ _____ _____    ______ ____
ROOT
ATOM      1  C   UNL     1      -1.074   0.782  23.499  0.00  0.00    +0.090 C 
ATOM      2  N   UNL     1      -0.950   1.047  24.271  0.00  0.00    -0.271 NA
ATOM      3  C   UNL     1      -0.902   1.865  24.364  0.00  0.00    +0.083 C 
ATOM      4  C   UNL     1      -0.971   2.400  23.739  0.00  0.00    +0.035 C 
ATOM      5  C   UNL     1      -0.895   3.162  24.045  0.00  0.00    +0.074 C 
ATOM      6  N   UNL     1      -0.778   3.099  24.860  0.00  0.00    -0.260 NA
ATOM     13  C   UNL     1      -0.783   2.298  25.057  0.00  0.00    +0.152 C 
ATOM     14  C   UNL     1      -0.682   2.018  25.826  0.00  0.00    +0.257 C 
ATOM     15  O   UNL     1      -0.573   2.597  26.406  0.00  0.00    -0.272 OA
ATOM     16  N   UNL     1      -0.676   1.238  26.094  0.00  0.00    -0.203 NA
ATOM     17  C   UNL     1      -0.769   0.544  25.657  0.00  0.00    +0.131 C 
ATOM     18  C   UNL     1      -0.891   0.459  24.846  0.00  0.00    +0.080 C 
ENDROOT
BRANCH   6   7
ATOM      7  C   UNL     1      -0.675   3.727  25.385  0.00  0.00    +0.121 C 
BRANCH   7   8
ATOM      8  C   UNL     1      -0.961   4.477  25.192  0.00  0.00    +0.105 A 
ATOM      9  C   UNL     1      -1.718   4.763  25.353  0.00  0.00    +0.074 A 
ATOM     10  S   UNL     1      -1.764   5.535  25.064  0.00  0.00    +0.038 S 
ATOM     11  N   UNL     1      -1.036   5.725  24.725  0.00  0.00    -0.110 NA
ATOM     12  N   UNL     1      -0.540   5.071  24.805  0.00  0.00    -0.143 NA
ENDBRANCH   7   8
ENDBRANCH   6   7
BRANCH  18  19
ATOM     19  C   UNL     1      -0.963  -0.317  24.574  0.00  0.00    +0.027 C 
BRANCH  19  20
ATOM     20  C   UNL     1      -1.310  -0.892  25.054  0.00  0.00    +0.089 C 
BRANCH  20  21
ATOM     21  C   UNL     1      -1.839  -1.435  24.729  0.00  0.00    +0.246 C 
ATOM     22  O   UNL     1      -1.578  -1.980  24.167  0.00  0.00    -0.273 OA
ATOM     23  N   UNL     1      -2.629  -1.433  24.966  0.00  0.00    -0.179 NA
BRANCH  23  24
ATOM     24  C   UNL     1      -3.158  -1.977  24.641  0.00  0.00    +0.073 A 
ATOM     25  C   UNL     1      -3.118  -2.772  24.858  0.00  0.00    +0.017 A 
ATOM     26  C   UNL     1      -3.646  -3.315  24.533  0.00  0.00    +0.001 A 
ATOM     27  C   UNL     1      -4.215  -3.064  23.991  0.00  0.00    +0.000 A 
ATOM     28  C   UNL     1      -4.255  -2.269  23.773  0.00  0.00    +0.001 A 
ATOM     29  C   UNL     1      -3.726  -1.726  24.098  0.00  0.00    +0.017 A 
ENDBRANCH  23  24
ENDBRANCH  20  21
ENDBRANCH  19  20
ENDBRANCH  18  19
TORSDOF 6
ENDMDL
MODEL 2
REMARK VINA RESULT:      -8.9      3.202      4.414
REMARK  Name = 
REMARK  6 active torsions:
REMARK  status: ('A' for Active; 'I' for Inactive)
REMARK    1  A    between atoms: N_6  and  C_7
REMARK    2  A    between atoms: C_7  and  C_8
REMARK    3  A    between atoms: C_18  and  C_19
REMARK    4  A    between atoms: C_19  and  C_20
REMARK    5  A    between atoms: C_20  and  C_21
REMARK    6  A    between atoms: N_23  and  C_24
REMARK                            x       y       z     vdW  Elec       q    Type
REMARK                         _______ _______ _______ _____ _____    ______ ____
ROOT
ATOM      1  C   UNL     1      -0.792   2.231  24.496  0.00  0.00    +0.090 C 
ATOM      2  N   UNL     1      -0.702   1.433  24.304  0.00  0.00    -0.271 NA
ATOM      3  C   UNL     1       0.033   1.221  23.995  0.00  0.00    +0.083 C 
ATOM      4  C   UNL     1       0.650   1.757  23.880  0.00  0.00    +0.035 C 
ATOM      5  C   UNL     1       1.291   1.345  23.565  0.00  0.00    +0.074 C 
ATOM      6  N   UNL     1       1.070   0.553  23.486  0.00  0.00    -0.260 NA
ATOM     13  C   UNL     1       0.293   0.477  23.752  0.00  0.00    +0.152 C 
ATOM     14  C   UNL     1      -0.118  -0.238  23.757  0.00  0.00    +0.257 C 
ATOM     15  O   UNL     1       0.299  -0.892  23.475  0.00  0.00    -0.272 OA
ATOM     16  N   UNL     1      -0.890  -0.386  24.007  0.00  0.00    -0.203 NA
ATOM     17  C   UNL     1      -1.442   0.145  24.313  0.00  0.00    +0.131 C 
ATOM     18  C   UNL     1      -1.359   0.955  24.445  0.00  0.00    +0.080 C 
ENDROOT
BRANCH   6   7
ATOM      7  C   UNL     1       1.544  -0.056  23.192  0.00  0.00    +0.121 C 
BRANCH   7   8
ATOM      8  C   UNL     1       2.260   0.121  22.823  0.00  0.00    +0.105 A 
ATOM      9  C   UNL     1       2.972   0.296  23.203  0.00  0.00    +0.074 A 
ATOM     10  S   UNL     1       3.541   0.437  22.623  0.00  0.00    +0.038 S 
ATOM     11  N   UNL     1       3.183   0.350  21.885  0.00  0.00    -0.110 NA
ATOM     12  N   UNL     1       2.390   0.154  22.009  0.00  0.00    -0.143 NA
ENDBRANCH   7   8
ENDBRANCH   6   7
BRANCH  18  19
ATOM     19  C   UNL     1      -2.019   1.336  24.761  0.00  0.00    +0.027 C 
BRANCH  19  20
ATOM     20  C   UNL     1      -2.775   1.148  24.486  0.00  0.00    +0.089 C 
BRANCH  20  21
ATOM     21  C   UNL     1      -3.439   1.459  24.863  0.00  0.00    +0.246 C 
ATOM     22  O   UNL     1      -3.523   1.384  25.680  0.00  0.00    -0.273 OA
ATOM     23  N   UNL     1      -4.020   1.845  24.422  0.00  0.00    -0.179 NA
BRANCH  23  24
ATOM     24  C   UNL     1      -4.685   2.156  24.799  0.00  0.00    +0.073 A 
ATOM     25  C   UNL     1      -5.361   1.692  24.892  0.00  0.00    +0.017 A 
ATOM     26  C   UNL     1      -6.025   2.003  25.268  0.00  0.00    +0.001 A 
ATOM     27  C   UNL     1      -6.015   2.778  25.553  0.00  0.00    +0.000 A 
ATOM     28  C   UNL     1      -5.338   3.241  25.461  0.00  0.00    +0.001 A 
ATOM     29  C   UNL     1      -4.674   2.930  25.084  0.00  0.00    +0.017 A 
ENDBRANCH  23  24
ENDBRANCH  20  21
ENDBRANCH  19  20
ENDBRANCH  18  19
TORSDOF 6
ENDMDL
MODEL 3
REMARK VINA RESULT:      -8.8      2.725      6.159
REMARK  Name = 
REMARK  6 active torsions:
REMARK  status: ('A' for Active; 'I' for Inactive)
REMARK    1  A    between atoms: N_6  and  C_7
REMARK    2  A    between atoms: C_7  and  C_8
REMARK    3  A    between atoms: C_18  and  C_19
REMARK    4  A    between atoms: C_19  and  C_20
REMARK    5  A    between atoms: C_20  and  C_21
REMARK    6  A    between atoms: N_23  and  C_24
REMARK                            x       y       z     vdW  Elec       q    Type
REMARK                         _______ _______ _______ _____ _____    ______ ____
ROOT
ATOM      1  C   UNL     1      -3.193   1.708  23.235  0.00  0.00    +0.090 C 
ATOM      2  N   UNL     1      -3.618   1.410  23.877  0.00  0.00    -0.271 NA
ATOM      3  C   UNL     1      -3.652   0.588  23.933  0.00  0.00    +0.083 C 
ATOM      4  C   UNL     1      -3.292   0.080  23.391  0.00  0.00    +0.035 C 
ATOM      5  C   UNL     1      -3.446  -0.695  23.627  0.00  0.00    +0.074 C 
ATOM      6  N   UNL     1      -3.901  -0.667  24.315  0.00  0.00    -0.260 NA
ATOM     13  C   UNL     1      -4.029   0.126  24.503  0.00  0.00    +0.152 C 
ATOM     14  C   UNL     1      -4.464   0.373  25.159  0.00  0.00    +0.257 C 
ATOM     15  O   UNL     1      -4.775  -0.229  25.630  0.00  0.00    -0.272 OA
ATOM     16  N   UNL     1      -4.631   1.142  25.406  0.00  0.00    -0.203 NA
ATOM     17  C   UNL     1      -4.402   1.855  25.058  0.00  0.00    +0.131 C 
ATOM     18  C   UNL     1      -3.952   1.974  24.377  0.00  0.00    +0.080 C 
ENDROOT
BRANCH   6   7
ATOM      7  C   UNL     1      -4.181  -1.317  24.739  0.00  0.00    +0.121 C 
BRANCH   7   8
ATOM      8  C   UNL     1      -3.899  -2.073  24.567  0.00  0.00    +0.105 A 
ATOM      9  C   UNL     1      -3.301  -2.472  24.971  0.00  0.00    +0.074 A 
ATOM     10  S   UNL     1      -3.199  -3.208  24.613  0.00  0.00    +0.038 S 
ATOM     11  N   UNL     1      -3.734  -3.265  23.988  0.00  0.00    -0.110 NA
ATOM     12  N   UNL     1      -4.167  -2.563  23.959  0.00  0.00    -0.143 NA
ENDBRANCH   7   8
ENDBRANCH   6   7
BRANCH  18  19
ATOM     19  C   UNL     1      -3.817   2.762  24.171  0.00  0.00    +0.027 C 
BRANCH  19  20
ATOM     20  C   UNL     1      -3.684   3.326  24.758  0.00  0.00    +0.089 C 
BRANCH  20  21
ATOM     21  C   UNL     1      -3.093   3.892  24.660  0.00  0.00    +0.246 C 
ATOM     22  O   UNL     1      -3.138   4.433  24.039  0.00  0.00    -0.273 OA
ATOM     23  N   UNL     1      -2.455   3.917  25.182  0.00  0.00    -0.179 NA
BRANCH  23  24
ATOM     24  C   UNL     1      -1.863   4.483  25.084  0.00  0.00    +0.073 A 
ATOM     25  C   UNL     1      -1.103   4.251  24.860  0.00  0.00    +0.017 A 
ATOM     26  C   UNL     1      -0.512   4.817  24.761  0.00  0.00    +0.001 A 
ATOM     27  C   UNL     1      -0.678   5.615  24.886  0.00  0.00    +0.000 A 
ATOM     28  C   UNL     1      -1.438   5.847  25.110  0.00  0.00    +0.001 A 
ATOM     29  C   UNL     1      -2.030   5.281  25.209  0.00  0.00    +0.017 A 
ENDBRANCH  23  24
ENDBRANCH  20  21
ENDBRANCH  19  20
ENDBRANCH  18  19
TORSDOF 6
ENDMDL
MODEL 4
REMARK VINA RESULT:      -8.5      3.234      4.866
REMARK  Name = 
REMARK  6 active torsions:
REMARK  status: ('A' for Active; 'I' for Inactive)
REMARK    1  A    between atoms: N_6  and  C_7
REMARK    2  A    between atoms: C_7  and  C_8
REMARK    3  A    between atoms: C_18  and  C_19
REMARK    4  A    between atoms: C_19  and  C_20
REMARK    5  A    between atoms: C_20  and  C_21
REMARK    6  A    between atoms: N_23  and  C_24
REMARK                            x       y       z     vdW  Elec       q    Type
REMARK                         _______ _______ _______ _____ _____    ______ ____
ROOT
ATOM      1  C   UNL     1      -0.514   2.464  24.228  0.00  0.00    +0.090 C 
ATOM      2  N   UNL     1      -0.926   1.749  24.214  0.00  0.00    -0.271 NA
ATOM      3  C   UNL     1      -1.734   1.799  24.371  0.00  0.00    +0.083 C 
ATOM      4  C   UNL     1      -2.123   2.508  24.534  0.00  0.00    +0.035 C 
ATOM      5  C   UNL     1      -2.920   2.339  24.661  0.00  0.00    +0.074 C 
ATOM      6  N   UNL     1      -3.025   1.525  24.576  0.00  0.00    -0.260 NA
ATOM     13  C   UNL     1      -2.291   1.191  24.397  0.00  0.00    +0.152 C 
ATOM     14  C   UNL     1      -2.178   0.384  24.272  0.00  0.00    +0.257 C 
ATOM     15  O   UNL     1      -2.853  -0.087  24.338  0.00  0.00    -0.272 OA
ATOM     16  N   UNL     1      -1.480  -0.016  24.091  0.00  0.00    -0.203 NA
ATOM     17  C   UNL     1      -0.721   0.294  23.989  0.00  0.00    +0.131 C 
ATOM     18  C   UNL     1      -0.475   1.080  24.044  0.00  0.00    +0.080 C 
ENDROOT
BRANCH   6   7
ATOM      7  C   UNL     1      -3.737   1.116  24.657  0.00  0.00    +0.121 C 
BRANCH   7   8
ATOM      8  C   UNL     1      -4.437   1.531  24.792  0.00  0.00    +0.105 A 
ATOM      9  C   UNL     1      -4.893   1.502  25.479  0.00  0.00    +0.074 A 
ATOM     10  S   UNL     1      -5.542   2.001  25.374  0.00  0.00    +0.038 S 
ATOM     11  N   UNL     1      -5.487   2.339  24.624  0.00  0.00    -0.110 NA
ATOM     12  N   UNL     1      -4.803   2.048  24.264  0.00  0.00    -0.143 NA
ENDBRANCH   7   8
ENDBRANCH   6   7
BRANCH  18  19
ATOM     19  C   UNL     1       0.329   1.212  23.911  0.00  0.00    +0.027 C 
BRANCH  19  20
ATOM     20  C   UNL     1       0.759   0.697  23.432  0.00  0.00    +0.089 C 
BRANCH  20  21
ATOM     21  C   UNL     1       1.581   0.752  23.400  0.00  0.00    +0.246 C 
ATOM     22  O   UNL     1       1.974   1.317  23.854  0.00  0.00    -0.273 OA
ATOM     23  N   UNL     1       2.011   0.243  22.913  0.00  0.00    -0.179 NA
BRANCH  23  24
ATOM     24  C   UNL     1       2.833   0.298  22.882  0.00  0.00    +0.073 A 
ATOM     25  C   UNL     1       3.188   0.932  22.491  0.00  0.00    +0.017 A 
ATOM     26  C   UNL     1       4.011   0.988  22.459  0.00  0.00    +0.001 A 
ATOM     27  C   UNL     1       4.478   0.410  22.818  0.00  0.00    +0.000 A 
ATOM     28  C   UNL     1       4.122  -0.223  23.209  0.00  0.00    +0.001 A 
ATOM     29  C   UNL     1       3.300  -0.279  23.241  0.00  0.00    +0.017 A 
ENDBRANCH  23  24
ENDBRANCH  20  21
ENDBRANCH  19  20
ENDBRANCH  18  19
TORSDOF 6
ENDMDL
MODEL 5
REMARK VINA RESULT:      -8.0      1.913      2.219
REMARK  Name = 
REMARK  6 active torsions:
REMARK  status: ('A' for Active; 'I' for Inactive)
REMARK    1  A    between atoms: N_6  and  C_7
REMARK    2  A    between atoms: C_7  and  C_8
REMARK    3  A    between atoms: C_18  and  C_19
REMARK    4  A    between atoms: C_19  and  C_20
REMARK    5  A    between atoms: C_20  and  C_21
REMARK    6  A    between atoms: N_23  and  C_24
REMARK                            x       y       z     vdW  Elec       q    Type
REMARK                         _______ _______ _______ _____ _____    ______ ____
ROOT
ATOM      1  C   UNL     1      -3.133   1.210  23.289  0.00  0.00    +0.090 C 
ATOM      2  N   UNL     1      -3.388   1.625  23.956  0.00  0.00    -0.271 NA
ATOM      3  C   UNL     1      -3.009   2.344  24.097  0.00  0.00    +0.083 C 
ATOM      4  C   UNL     1      -2.411   2.645  23.614  0.00  0.00    +0.035 C 
ATOM      5  C   UNL     1      -2.169   3.368  23.929  0.00  0.00    +0.074 C 
ATOM      6  N   UNL     1      -2.618   3.514  24.606  0.00  0.00    -0.260 NA
ATOM     13  C   UNL     1      -3.137   2.881  24.710  0.00  0.00    +0.152 C 
ATOM     14  C   UNL     1      -3.676   2.832  25.332  0.00  0.00    +0.257 C 
ATOM     15  O   UNL     1      -3.669   3.465  25.862  0.00  0.00    -0.272 OA
ATOM     16  N   UNL     1      -4.219   2.234  25.496  0.00  0.00    -0.203 NA
ATOM     17  C   UNL     1      -4.359   1.537  25.077  0.00  0.00    +0.131 C 
ATOM     18  C   UNL     1      -3.989   1.266  24.392  0.00  0.00    +0.080 C 
ENDROOT
BRANCH   6   7
ATOM      7  C   UNL     1      -2.558   4.177  25.094  0.00  0.00    +0.121 C 
BRANCH   7   8
ATOM      8  C   UNL     1      -1.883   4.651  25.064  0.00  0.00    +0.105 A 
ATOM      9  C   UNL     1      -1.861   5.451  24.862  0.00  0.00    +0.074 A 
ATOM     10  S   UNL     1      -1.076   5.702  24.904  0.00  0.00    +0.038 S 
ATOM     11  N   UNL     1      -0.614   5.058  25.132  0.00  0.00    -0.110 NA
ATOM     12  N   UNL     1      -1.113   4.408  25.231  0.00  0.00    -0.143 NA
ENDBRANCH   7   8
ENDBRANCH   6   7
BRANCH  18  19
ATOM     19  C   UNL     1      -4.256   0.539  24.105  0.00  0.00    +0.027 C 
BRANCH  19  20
ATOM     20  C   UNL     1      -4.384  -0.089  24.625  0.00  0.00    +0.089 C 
BRANCH  20  21
ATOM     21  C   UNL     1      -4.104  -0.842  24.438  0.00  0.00    +0.246 C 
ATOM     22  O   UNL     1      -4.344  -1.210  23.740  0.00  0.00    -0.273 OA
ATOM     23  N   UNL     1      -3.584  -1.227  24.950  0.00  0.00    -0.179 NA
BRANCH  23  24
ATOM     24  C   UNL     1      -3.305  -1.980  24.763  0.00  0.00    +0.073 A 
ATOM     25  C   UNL     1      -3.828  -2.618  24.731  0.00  0.00    +0.017 A 
ATOM     26  C   UNL     1      -3.548  -3.371  24.544  0.00  0.00    +0.001 A 
ATOM     27  C   UNL     1      -2.746  -3.488  24.390  0.00  0.00    +0.000 A 
ATOM     28  C   UNL     1      -2.223  -2.850  24.422  0.00  0.00    +0.001 A 
ATOM     29  C   UNL     1      -2.503  -2.097  24.609  0.00  0.00    +0.017 A 
ENDBRANCH  23  24
ENDBRANCH  20  21
ENDBRANCH  19  20
ENDBRANCH  18  19
TORSDOF 6
ENDMDL
MODEL 6
REMARK VINA RESULT:      -7.8      1.991      5.841
REMARK  Name = 
REMARK  6 active torsions:
REMARK  status: ('A' for Active; 'I' for Inactive)
REMARK    1  A    between atoms: N_6  and  C_7
REMARK    2  A    between atoms: C_7  and  C_8
REMARK    3  A    between atoms: C_18  and  C_19
REMARK    4  A    between atoms: C_19  and  C_20
REMARK    5  A    between atoms: C_20  and  C_21
REMARK    6  A    between atoms: N_23  and  C_24
REMARK                            x       y       z     vdW  Elec       q    Type
REMARK                         _______ _______ _______ _____ _____    ______ ____
ROOT
ATOM      1  C   UNL     1      -1.828   0.928  26.134  0.00  0.00    +0.090 C 
ATOM      2  N   UNL     1      -1.488   0.439  25.562  0.00  0.00    -0.271 NA
ATOM      3  C   UNL     1      -1.893  -0.262  25.405  0.00  0.00    +0.083 C 
ATOM      4  C   UNL     1      -2.594  -0.478  25.785  0.00  0.00    +0.035 C 
ATOM      5  C   UNL     1      -2.832  -1.208  25.485  0.00  0.00    +0.074 C 
ATOM      6  N   UNL     1      -2.279  -1.445  24.920  0.00  0.00    -0.260 NA
ATOM     13  C   UNL     1      -1.699  -0.860  24.870  0.00  0.00    +0.152 C 
ATOM     14  C   UNL     1      -1.052  -0.903  24.361  0.00  0.00    +0.257 C 
ATOM     15  O   UNL     1      -1.012  -1.580  23.889  0.00  0.00    -0.272 OA
ATOM     16  N   UNL     1      -0.439  -0.361  24.259  0.00  0.00    -0.203 NA
ATOM     17  C   UNL     1      -0.323   0.361  24.644  0.00  0.00    +0.131 C 
ATOM     18  C   UNL     1      -0.790   0.716  25.223  0.00  0.00    +0.080 C 
ENDROOT
BRANCH   6   7
ATOM      7  C   UNL     1      -2.302  -2.143  24.481  0.00  0.00    +0.121 C 
BRANCH   7   8
ATOM      8  C   UNL     1      -3.026  -2.498  24.309  0.00  0.00    +0.105 A 
ATOM      9  C   UNL     1      -3.284  -3.233  24.581  0.00  0.00    +0.074 A 
ATOM     10  S   UNL     1      -4.037  -3.368  24.274  0.00  0.00    +0.038 S 
ATOM     11  N   UNL     1      -4.246  -2.718  23.812  0.00  0.00    -0.110 NA
ATOM     12  N   UNL     1      -3.621  -2.179  23.833  0.00  0.00    -0.143 NA
ENDBRANCH   7   8
ENDBRANCH   6   7
BRANCH  18  19
ATOM     19  C   UNL     1      -0.522   1.446  25.500  0.00  0.00    +0.027 C 
BRANCH  19  20
ATOM     20  C   UNL     1      -0.260   2.020  24.967  0.00  0.00    +0.089 C 
BRANCH  20  21
ATOM     21  C   UNL     1      -0.402   2.818  25.119  0.00  0.00    +0.246 C 
ATOM     22  O   UNL     1      -0.072   3.177  25.784  0.00  0.00    -0.273 OA
ATOM     23  N   UNL     1      -0.875   3.257  24.604  0.00  0.00    -0.179 NA
BRANCH  23  24
ATOM     24  C   UNL     1      -1.017   4.056  24.755  0.00  0.00    +0.073 A 
ATOM     25  C   UNL     1      -1.702   4.284  25.155  0.00  0.00    +0.017 A 
ATOM     26  C   UNL     1      -1.844   5.082  25.306  0.00  0.00    +0.001 A 
ATOM     27  C   UNL     1      -1.302   5.653  25.058  0.00  0.00    +0.000 A 
ATOM     28  C   UNL     1      -0.617   5.424  24.659  0.00  0.00    +0.001 A 
ATOM     29  C   UNL     1      -0.474   4.626  24.508  0.00  0.00    +0.017 A 
ENDBRANCH  23  24
ENDBRANCH  20  21
ENDBRANCH  19  20
ENDBRANCH  18  19
TORSDOF 6
ENDMDL
MODEL 7
REMARK VINA RESULT:      -7.4     19.153     20.523
REMARK  Name = 
REMARK  6 active torsions:
REMARK  status: ('A' for Active; 'I' for Inactive)
REMARK    1  A    between atoms: N_6  and  C_7
REMARK    2  A    between atoms: C_7  and  C_8
REMARK    3  A    between atoms: C_18  and  C_19
REMARK    4  A    between atoms: C_19  and  C_20
REMARK    5  A    between atoms: C_20  and  C_21
REMARK    6  A    between atoms: N_23  and  C_24
REMARK                            x       y       z     vdW  Elec       q    Type
REMARK                         _______ _______ _______ _____ _____    ______ ____
ROOT
ATOM      1  C   UNL     1      17.373  -6.614  24.177  0.00  0.00    +0.090 C 
ATOM      2  N   UNL     1      17.110  -6.571  24.958  0.00  0.00    -0.271 NA
ATOM      3  C   UNL     1      17.017  -7.294  25.344  0.00  0.00    +0.083 C 
ATOM      4  C   UNL     1      17.173  -8.023  24.989  0.00  0.00    +0.035 C 
ATOM      5  C   UNL     1      17.018  -8.615  25.542  0.00  0.00    +0.074 C 
ATOM      6  N   UNL     1      16.767  -8.252  26.240  0.00  0.00    -0.260 NA
ATOM     13  C   UNL     1      16.766  -7.436  26.117  0.00  0.00    +0.152 C 
ATOM     14  C   UNL     1      16.546  -6.890  26.695  0.00  0.00    +0.257 C 
ATOM     15  O   UNL     1      16.320  -7.209  27.422  0.00  0.00    -0.272 OA
ATOM     16  N   UNL     1      16.522  -6.067  26.642  0.00  0.00    -0.203 NA
ATOM     17  C   UNL     1      16.713  -5.587  25.998  0.00  0.00    +0.131 C 
ATOM     18  C   UNL     1      16.974  -5.812  25.249  0.00  0.00    +0.080 C 
ENDROOT
BRANCH   6   7
ATOM      7  C   UNL     1      16.554  -8.638  26.938  0.00  0.00    +0.121 C 
BRANCH   7   8
ATOM      8  C   UNL     1      16.478  -9.459  26.948  0.00  0.00    +0.105 A 
ATOM      9  C   UNL     1      17.041  -9.995  27.224  0.00  0.00    +0.074 A 
ATOM     10  S   UNL     1      16.735 -10.756  27.130  0.00  0.00    +0.038 S 
ATOM     11  N   UNL     1      15.984 -10.691  26.796  0.00  0.00    -0.110 NA
ATOM     12  N   UNL     1      15.825  -9.889  26.683  0.00  0.00    -0.143 NA
ENDBRANCH   7   8
ENDBRANCH   6   7
BRANCH  18  19
ATOM     19  C   UNL     1      17.119  -5.194  24.721  0.00  0.00    +0.027 C 
BRANCH  19  20
ATOM     20  C   UNL     1      16.898  -4.423  24.916  0.00  0.00    +0.089 C 
BRANCH  20  21
ATOM     21  C   UNL     1      16.942  -3.826  24.349  0.00  0.00    +0.246 C 
ATOM     22  O   UNL     1      17.399  -3.933  23.671  0.00  0.00    -0.273 OA
ATOM     23  N   UNL     1      16.528  -3.121  24.460  0.00  0.00    -0.179 NA
BRANCH  23  24
ATOM     24  C   UNL     1      16.572  -2.523  23.893  0.00  0.00    +0.073 A 
ATOM     25  C   UNL     1      17.162  -1.948  23.945  0.00  0.00    +0.017 A 
ATOM     26  C   UNL     1      17.206  -1.351  23.378  0.00  0.00    +0.001 A 
ATOM     27  C   UNL     1      16.661  -1.328  22.759  0.00  0.00    +0.000 A 
ATOM     28  C   UNL     1      16.072  -1.903  22.707  0.00  0.00    +0.001 A 
ATOM     29  C   UNL     1      16.028  -2.501  23.274  0.00  0.00    +0.017 A 
ENDBRANCH  23  24
ENDBRANCH  20  21
ENDBRANCH  19  20
ENDBRANCH  18  19
TORSDOF 6
ENDMDL
