REMARK  Name = 
REMARK  8 active torsions:
REMARK  status: ('A' for Active; 'I' for Inactive)
REMARK    1  A    between atoms: C_2  and  C_3
REMARK    2  A    between atoms: C_3  and  C_4
REMARK    3  A    between atoms: C_7  and  C_8
REMARK    4  A    between atoms: C_8  and  C_9
REMARK    5  A    between atoms: C_11  and  C_12
REMARK    6  A    between atoms: C_15  and  C_16
REMARK    7  A    between atoms: C_16  and  N_17
REMARK    8  A    between atoms: C_21  and  C_22
REMARK                            x       y       z     vdW  Elec       q    Type
REMARK                         _______ _______ _______ _____ _____    ______ ____
ROOT
ATOM      9  C   UNL     1       0.319  -3.150   0.000  0.00  0.00    +0.027 C 
ATOM     10  C   UNL     1      -0.166  -3.817   0.000  0.00  0.00    +0.005 C 
ATOM     11  C   UNL     1      -0.987  -3.731   0.000  0.00  0.00    +0.006 C 
ATOM     15  C   UNL     1      -1.322  -2.977   0.000  0.00  0.00    +0.037 C 
ATOM     24  C   UNL     1      -0.837  -2.310   0.000  0.00  0.00    -0.034 C 
ATOM     25  C   UNL     1      -0.017  -2.396   0.000  0.00  0.00    -0.048 C 
ATOM     26  C   UNL     1       0.468  -1.729   0.000  0.00  0.00    +0.026 C 
ENDROOT
BRANCH  11  12
ATOM     12  C   UNL     1      -1.472  -4.399   0.000  0.00  0.00    +0.000 C 
ATOM     13  C   UNL     1      -2.292  -4.312   0.000  0.00  0.00    +0.000 C 
ATOM     14  C   UNL     1      -1.136  -5.152   0.000  0.00  0.00    +0.000 C 
ENDBRANCH  11  12
BRANCH   9   8
ATOM      8  C   UNL     1       1.139  -3.236   0.000  0.00  0.00    +0.091 C 
BRANCH   8   7
ATOM      4  C   UNL     1       2.037  -1.299   0.000  0.00  0.00    +0.226 A 
ATOM      5  N   UNL     1       2.704  -1.784   0.000  0.00  0.00    -0.112 NA
ATOM      6  N   UNL     1       2.449  -2.569   0.000  0.00  0.00    -0.112 NA
ATOM      7  C   UNL     1       1.624  -2.569   0.000  0.00  0.00    +0.226 A 
ATOM     27  O   UNL     1       1.369  -1.784   0.000  0.00  0.00    -0.423 OA
BRANCH   4   3
ATOM      3  C   UNL     1       2.037  -0.474   0.000  0.00  0.00    +0.087 C 
BRANCH   3   2
ATOM      1  C   UNL     1       2.751   0.763   0.000  0.00  0.00    +0.001 C 
ATOM      2  C   UNL     1       2.751  -0.062   0.000  0.00  0.00    +0.010 C 
ENDBRANCH   3   2
ENDBRANCH   4   3
ENDBRANCH   8   7
ENDBRANCH   9   8
BRANCH  15  16
ATOM     16  C   UNL     1      -2.143  -2.891   0.000  0.00  0.00    +0.076 C 
BRANCH  16  17
ATOM     17  N   UNL     1      -2.478  -2.138   0.000  0.00  0.00    -0.271 NA
ATOM     18  C   UNL     1      -3.285  -1.966   0.000  0.00  0.00    +0.072 C 
ATOM     19  C   UNL     1      -3.371  -1.145   0.000  0.00  0.00    +0.019 C 
ATOM     20  C   UNL     1      -2.618  -0.810   0.000  0.00  0.00    +0.020 C 
ATOM     21  C   UNL     1      -2.066  -1.423   0.000  0.00  0.00    +0.091 C 
BRANCH  21  22
ATOM     22  C   UNL     1      -1.245  -1.337   0.000  0.00  0.00    +0.198 C 
ATOM     23  O   UNL     1      -0.910  -0.583   0.000  0.00  0.00    -0.219 OA
ENDBRANCH  21  22
ENDBRANCH  16  17
ENDBRANCH  15  16
TORSDOF 8
