REMARK  Name = 
REMARK  7 active torsions:
REMARK  status: ('A' for Active; 'I' for Inactive)
REMARK    1  A    between atoms: C_2  and  C_3
REMARK    2  A    between atoms: C_3  and  S_4
REMARK    3  A    between atoms: S_4  and  N_7
REMARK    4  A    between atoms: N_7  and  C_8
REMARK    5  A    between atoms: C_8  and  C_9
REMARK    6  A    between atoms: C_16  and  C_17
REMARK    7  A    between atoms: C_19  and  C_23
REMARK                            x       y       z     vdW  Elec       q    Type
REMARK                         _______ _______ _______ _____ _____    ______ ____
ROOT
ATOM      9  C   UNL     1       1.814  -2.106   0.000  0.00  0.00    +0.077 C 
ATOM     10  C   UNL     1       1.661  -1.343   0.000  0.00  0.00    +0.018 C 
ATOM     11  C   UNL     1       0.923  -1.010   0.000  0.00  0.00    +0.010 C 
ATOM     12  C   UNL     1       0.961  -0.114   0.000  0.00  0.00    +0.018 C 
ATOM     13  C   UNL     1       1.205  -0.720   0.000  0.00  0.00    +0.072 C 
ATOM     14  N   UNL     1       1.065  -1.759   0.000  0.00  0.00    -0.272 NA
ATOM     15  C   UNL     1       0.226  -2.118   0.000  0.00  0.00    +0.078 C 
ATOM     16  C   UNL     1       0.119  -1.362   0.000  0.00  0.00    +0.056 C 
ENDROOT
BRANCH  16  17
ATOM     17  C   UNL     1      -0.602  -0.960   0.000  0.00  0.00    +0.058 A 
ATOM     18  C   UNL     1      -1.350  -1.307   0.000  0.00  0.00    +0.031 A 
ATOM     19  C   UNL     1      -1.911  -0.703   0.000  0.00  0.00    +0.079 A 
ATOM     20  N   UNL     1      -1.510   0.018   0.000  0.00  0.00    -0.174 NA
ATOM     21  N   UNL     1      -0.700  -0.141   0.000  0.00  0.00    -0.253 N 
ATOM     22  C   UNL     1      -0.095   0.420   0.000  0.00  0.00    +0.153 C 
BRANCH  19  23
ATOM     23  C   UNL     1      -2.730  -0.801   0.000  0.00  0.00    +0.042 C 
ATOM     24  C   UNL     1      -3.132  -1.522   0.000  0.00  0.00    +0.006 C 
ATOM     25  C   UNL     1      -3.942  -1.362   0.000  0.00  0.00    +0.000 C 
ATOM     26  C   UNL     1      -4.040  -0.543   0.000  0.00  0.00    +0.000 C 
ATOM     27  C   UNL     1      -3.292  -0.196   0.000  0.00  0.00    +0.006 C 
ENDBRANCH  19  23
ENDBRANCH  16  17
BRANCH   9   8
ATOM      8  C   UNL     1       2.324  -2.754   0.000  0.00  0.00    +0.131 C 
BRANCH   8   7
ATOM      7  N   UNL     1       2.018  -3.520   0.000  0.00  0.00    -0.081 NA
BRANCH   7   4
ATOM      4  S   UNL     1       2.529  -4.168   0.000  0.00  0.00    +0.057 S 
ATOM      5  O   UNL     1       3.177  -3.658   0.000  0.00  0.00    -0.156 OA
ATOM      6  O   UNL     1       1.881  -4.678   0.000  0.00  0.00    -0.156 OA
BRANCH   4   3
ATOM      3  C   UNL     1       3.039  -4.816   0.000  0.00  0.00    +0.171 C 
BRANCH   3   2
ATOM      1  C   UNL     1       3.244  -6.230   0.000  0.00  0.00    +0.002 C 
ATOM      2  C   UNL     1       2.733  -5.582   0.000  0.00  0.00    +0.027 C 
ENDBRANCH   3   2
ENDBRANCH   4   3
ENDBRANCH   7   4
ENDBRANCH   8   7
ENDBRANCH   9   8
TORSDOF 7
