MODEL 1
REMARK VINA RESULT:     -12.6      0.000      0.000
REMARK  Name = 
REMARK  4 active torsions:
REMARK  status: ('A' for Active; 'I' for Inactive)
REMARK    1  A    between atoms: C_4  and  C_8
REMARK    2  A    between atoms: C_14  and  C_16
REMARK    3  A    between atoms: N_18  and  C_19
REMARK    4  A    between atoms: C_26  and  C_28
REMARK                            x       y       z     vdW  Elec       q    Type
REMARK                         _______ _______ _______ _____ _____    ______ ____
ROOT
ATOM      8  C   UNL     1      -2.550  -0.753  24.517  0.00  0.00    +0.249 C 
ATOM      9  O   UNL     1      -1.748  -0.778  24.327  0.00  0.00    -0.270 OA
ATOM     10  N   UNL     1      -2.925  -0.027  24.629  0.00  0.00    -0.272 N 
ATOM     11  C   UNL     1      -3.728  -0.002  24.820  0.00  0.00    +0.115 C 
ATOM     12  C   UNL     1      -4.102   0.723  24.932  0.00  0.00    +0.115 C 
ATOM     13  N   UNL     1      -3.675   1.425  24.854  0.00  0.00    -0.270 N 
ATOM     14  C   UNL     1      -2.873   1.401  24.663  0.00  0.00    +0.174 C 
ATOM     15  C   UNL     1      -2.497   0.674  24.551  0.00  0.00    +0.123 C 
ATOM     26  C   UNL     1      -4.050   2.152  24.966  0.00  0.00    +0.226 C 
ATOM     27  O   UNL     1      -3.623   2.853  24.888  0.00  0.00    -0.275 OA
ENDROOT
BRANCH   8   4
ATOM      1  F   UNL     1      -4.362  -2.681  23.436  0.00  0.00    -0.204 F 
ATOM      2  C   UNL     1      -3.883  -2.418  24.055  0.00  0.00    +0.140 A 
ATOM      3  C   UNL     1      -3.456  -1.717  23.977  0.00  0.00    +0.034 A 
ATOM      4  C   UNL     1      -2.977  -1.455  24.595  0.00  0.00    +0.056 A 
ATOM      5  C   UNL     1      -2.926  -1.893  25.292  0.00  0.00    +0.005 A 
ATOM      6  C   UNL     1      -3.353  -2.595  25.370  0.00  0.00    +0.002 A 
ATOM      7  C   UNL     1      -3.832  -2.857  24.752  0.00  0.00    +0.030 A 
ENDBRANCH   8   4
BRANCH  26  28
ATOM     28  C   UNL     1      -4.853   2.177  25.156  0.00  0.00    +0.080 C 
ATOM     29  C   UNL     1      -5.089   2.351  25.928  0.00  0.00    +0.028 C 
ATOM     30  C   UNL     1      -5.891   2.376  26.118  0.00  0.00    +0.089 C 
ATOM     31  N   UNL     1      -6.458   2.226  25.537  0.00  0.00    -0.218 NA
ATOM     32  C   UNL     1      -6.222   2.053  24.766  0.00  0.00    +0.089 C 
ATOM     33  C   UNL     1      -5.419   2.028  24.576  0.00  0.00    +0.028 C 
ENDBRANCH  26  28
BRANCH  14  16
ATOM     16  C   UNL     1      -2.445   2.102  24.585  0.00  0.00    +0.262 C 
ATOM     17  O   UNL     1      -2.692   2.678  24.050  0.00  0.00    -0.271 OA
ATOM     18  N   UNL     1      -1.770   2.226  25.043  0.00  0.00    -0.196 NA
BRANCH  18  19
ATOM     19  C   UNL     1      -1.343   2.928  24.965  0.00  0.00    +0.173 C 
ATOM     20  C   UNL     1      -1.252   3.273  24.220  0.00  0.00    +0.033 C 
ATOM     21  C   UNL     1      -0.825   3.975  24.142  0.00  0.00    +0.026 C 
ATOM     22  C   UNL     1      -0.490   4.330  24.805  0.00  0.00    +0.115 C 
ATOM     23  N   UNL     1      -0.581   3.985  25.549  0.00  0.00    -0.204 NA
ATOM     24  C   UNL     1      -1.008   3.283  25.628  0.00  0.00    +0.261 C 
ATOM     25  O   UNL     1      -1.100   2.938  26.372  0.00  0.00    -0.271 OA
ENDBRANCH  18  19
ENDBRANCH  14  16
TORSDOF 4
ENDMDL
MODEL 2
REMARK VINA RESULT:     -12.0      1.824      4.432
REMARK  Name = 
REMARK  4 active torsions:
REMARK  status: ('A' for Active; 'I' for Inactive)
REMARK    1  A    between atoms: C_4  and  C_8
REMARK    2  A    between atoms: C_14  and  C_16
REMARK    3  A    between atoms: N_18  and  C_19
REMARK    4  A    between atoms: C_26  and  C_28
REMARK                            x       y       z     vdW  Elec       q    Type
REMARK                         _______ _______ _______ _____ _____    ______ ____
ROOT
ATOM      8  C   UNL     1      -1.201   1.698  24.682  0.00  0.00    +0.249 C 
ATOM      9  O   UNL     1      -0.682   1.100  24.457  0.00  0.00    -0.270 OA
ATOM     10  N   UNL     1      -2.011   1.549  24.723  0.00  0.00    -0.272 N 
ATOM     11  C   UNL     1      -2.531   2.148  24.949  0.00  0.00    +0.115 C 
ATOM     12  C   UNL     1      -3.341   1.998  24.990  0.00  0.00    +0.115 C 
ATOM     13  N   UNL     1      -3.632   1.248  24.806  0.00  0.00    -0.270 N 
ATOM     14  C   UNL     1      -3.112   0.649  24.580  0.00  0.00    +0.174 C 
ATOM     15  C   UNL     1      -2.301   0.799  24.539  0.00  0.00    +0.123 C 
ATOM     26  C   UNL     1      -4.442   1.097  24.847  0.00  0.00    +0.226 C 
ATOM     27  O   UNL     1      -4.732   0.348  24.663  0.00  0.00    -0.275 OA
ENDROOT
BRANCH   8   4
ATOM      1  F   UNL     1      -0.334   4.291  23.848  0.00  0.00    -0.204 F 
ATOM      2  C   UNL     1      -0.477   3.744  24.450  0.00  0.00    +0.140 A 
ATOM      3  C   UNL     1      -0.767   2.995  24.265  0.00  0.00    +0.034 A 
ATOM      4  C   UNL     1      -0.911   2.449  24.866  0.00  0.00    +0.056 A 
ATOM      5  C   UNL     1      -0.765   2.652  25.652  0.00  0.00    +0.005 A 
ATOM      6  C   UNL     1      -0.474   3.403  25.837  0.00  0.00    +0.002 A 
ATOM      7  C   UNL     1      -0.331   3.949  25.236  0.00  0.00    +0.030 A 
ENDBRANCH   8   4
BRANCH  26  28
ATOM     28  C   UNL     1      -4.962   1.697  25.073  0.00  0.00    +0.080 C 
ATOM     29  C   UNL     1      -5.298   1.690  25.826  0.00  0.00    +0.028 C 
ATOM     30  C   UNL     1      -5.818   2.289  26.052  0.00  0.00    +0.089 C 
ATOM     31  N   UNL     1      -6.002   2.897  25.524  0.00  0.00    -0.218 NA
ATOM     32  C   UNL     1      -5.666   2.903  24.771  0.00  0.00    +0.089 C 
ATOM     33  C   UNL     1      -5.146   2.304  24.545  0.00  0.00    +0.028 C 
ENDBRANCH  26  28
BRANCH  14  16
ATOM     16  C   UNL     1      -3.402  -0.102  24.396  0.00  0.00    +0.262 C 
ATOM     17  O   UNL     1      -3.959  -0.192  23.795  0.00  0.00    -0.271 OA
ATOM     18  N   UNL     1      -3.135  -0.761  24.813  0.00  0.00    -0.196 NA
BRANCH  18  19
ATOM     19  C   UNL     1      -3.425  -1.511  24.629  0.00  0.00    +0.173 C 
ATOM     20  C   UNL     1      -3.720  -1.664  23.873  0.00  0.00    +0.033 C 
ATOM     21  C   UNL     1      -4.011  -2.413  23.688  0.00  0.00    +0.026 C 
ATOM     22  C   UNL     1      -4.007  -3.009  24.257  0.00  0.00    +0.115 C 
ATOM     23  N   UNL     1      -3.712  -2.857  25.012  0.00  0.00    -0.204 NA
ATOM     24  C   UNL     1      -3.421  -2.107  25.198  0.00  0.00    +0.261 C 
ATOM     25  O   UNL     1      -3.127  -1.954  25.953  0.00  0.00    -0.271 OA
ENDBRANCH  18  19
ENDBRANCH  14  16
TORSDOF 4
ENDMDL
MODEL 3
REMARK VINA RESULT:     -11.9      1.845      3.400
REMARK  Name = 
REMARK  4 active torsions:
REMARK  status: ('A' for Active; 'I' for Inactive)
REMARK    1  A    between atoms: C_4  and  C_8
REMARK    2  A    between atoms: C_14  and  C_16
REMARK    3  A    between atoms: N_18  and  C_19
REMARK    4  A    between atoms: C_26  and  C_28
REMARK                            x       y       z     vdW  Elec       q    Type
REMARK                         _______ _______ _______ _____ _____    ______ ____
ROOT
ATOM      8  C   UNL     1      -3.680  -0.567  24.926  0.00  0.00    +0.249 C 
ATOM      9  O   UNL     1      -4.281  -0.163  25.319  0.00  0.00    -0.270 OA
ATOM     10  N   UNL     1      -2.965  -0.187  24.764  0.00  0.00    -0.272 N 
ATOM     11  C   UNL     1      -2.363  -0.591  24.371  0.00  0.00    +0.115 C 
ATOM     12  C   UNL     1      -1.649  -0.212  24.210  0.00  0.00    +0.115 C 
ATOM     13  N   UNL     1      -1.537   0.572  24.441  0.00  0.00    -0.270 N 
ATOM     14  C   UNL     1      -2.139   0.976  24.834  0.00  0.00    +0.174 C 
ATOM     15  C   UNL     1      -2.854   0.596  24.996  0.00  0.00    +0.123 C 
ATOM     26  C   UNL     1      -0.822   0.953  24.280  0.00  0.00    +0.226 C 
ATOM     27  O   UNL     1      -0.710   1.736  24.511  0.00  0.00    -0.275 OA
ENDROOT
BRANCH   8   4
ATOM      1  F   UNL     1      -3.399  -3.365  25.441  0.00  0.00    -0.204 F 
ATOM      2  C   UNL     1      -3.651  -2.749  24.951  0.00  0.00    +0.140 A 
ATOM      3  C   UNL     1      -3.539  -1.966  25.183  0.00  0.00    +0.034 A 
ATOM      4  C   UNL     1      -3.792  -1.351  24.694  0.00  0.00    +0.056 A 
ATOM      5  C   UNL     1      -4.156  -1.520  23.974  0.00  0.00    +0.005 A 
ATOM      6  C   UNL     1      -4.268  -2.304  23.742  0.00  0.00    +0.002 A 
ATOM      7  C   UNL     1      -4.015  -2.919  24.231  0.00  0.00    +0.030 A 
ENDBRANCH   8   4
BRANCH  26  28
ATOM     28  C   UNL     1      -0.219   0.548  23.886  0.00  0.00    +0.080 C 
ATOM     29  C   UNL     1      -0.031   0.746  23.107  0.00  0.00    +0.028 C 
ATOM     30  C   UNL     1       0.571   0.341  22.714  0.00  0.00    +0.089 C 
ATOM     31  N   UNL     1       0.985  -0.260  23.100  0.00  0.00    -0.218 NA
ATOM     32  C   UNL     1       0.796  -0.456  23.879  0.00  0.00    +0.089 C 
ATOM     33  C   UNL     1       0.194  -0.052  24.272  0.00  0.00    +0.028 C 
ENDBRANCH  26  28
BRANCH  14  16
ATOM     16  C   UNL     1      -2.027   1.761  25.066  0.00  0.00    +0.262 C 
ATOM     17  O   UNL     1      -1.359   1.971  25.501  0.00  0.00    -0.271 OA
ATOM     18  N   UNL     1      -2.584   2.334  24.862  0.00  0.00    -0.196 NA
BRANCH  18  19
ATOM     19  C   UNL     1      -2.472   3.118  25.094  0.00  0.00    +0.173 C 
ATOM     20  C   UNL     1      -2.047   3.287  25.781  0.00  0.00    +0.033 C 
ATOM     21  C   UNL     1      -1.935   4.071  26.013  0.00  0.00    +0.026 C 
ATOM     22  C   UNL     1      -2.246   4.684  25.559  0.00  0.00    +0.115 C 
ATOM     23  N   UNL     1      -2.671   4.515  24.872  0.00  0.00    -0.204 NA
ATOM     24  C   UNL     1      -2.783   3.731  24.640  0.00  0.00    +0.261 C 
ATOM     25  O   UNL     1      -3.207   3.562  23.953  0.00  0.00    -0.271 OA
ENDBRANCH  18  19
ENDBRANCH  14  16
TORSDOF 4
ENDMDL
MODEL 4
REMARK VINA RESULT:     -11.3      1.453      3.273
REMARK  Name = 
REMARK  4 active torsions:
REMARK  status: ('A' for Active; 'I' for Inactive)
REMARK    1  A    between atoms: C_4  and  C_8
REMARK    2  A    between atoms: C_14  and  C_16
REMARK    3  A    between atoms: N_18  and  C_19
REMARK    4  A    between atoms: C_26  and  C_28
REMARK                            x       y       z     vdW  Elec       q    Type
REMARK                         _______ _______ _______ _____ _____    ______ ____
ROOT
ATOM      8  C   UNL     1      -4.248  -0.753  24.505  0.00  0.00    +0.249 C 
ATOM      9  O   UNL     1      -5.064  -0.656  24.443  0.00  0.00    -0.270 OA
ATOM     10  N   UNL     1      -3.758  -0.094  24.582  0.00  0.00    -0.272 N 
ATOM     11  C   UNL     1      -2.942  -0.191  24.644  0.00  0.00    +0.115 C 
ATOM     12  C   UNL     1      -2.453   0.468  24.721  0.00  0.00    +0.115 C 
ATOM     13  N   UNL     1      -2.780   1.226  24.736  0.00  0.00    -0.270 N 
ATOM     14  C   UNL     1      -3.596   1.323  24.674  0.00  0.00    +0.174 C 
ATOM     15  C   UNL     1      -4.086   0.663  24.597  0.00  0.00    +0.123 C 
ATOM     26  C   UNL     1      -2.291   1.886  24.814  0.00  0.00    +0.226 C 
ATOM     27  O   UNL     1      -2.618   2.642  24.828  0.00  0.00    -0.275 OA
ENDROOT
BRANCH   8   4
ATOM      1  F   UNL     1      -3.222  -3.034  25.889  0.00  0.00    -0.204 F 
ATOM      2  C   UNL     1      -3.408  -2.650  25.182  0.00  0.00    +0.140 A 
ATOM      3  C   UNL     1      -3.735  -1.894  25.197  0.00  0.00    +0.034 A 
ATOM      4  C   UNL     1      -3.920  -1.511  24.490  0.00  0.00    +0.056 A 
ATOM      5  C   UNL     1      -3.778  -1.884  23.768  0.00  0.00    +0.005 A 
ATOM      6  C   UNL     1      -3.450  -2.641  23.754  0.00  0.00    +0.002 A 
ATOM      7  C   UNL     1      -3.265  -3.025  24.460  0.00  0.00    +0.030 A 
ENDBRANCH   8   4
BRANCH  26  28
ATOM     28  C   UNL     1      -1.473   1.788  24.876  0.00  0.00    +0.080 C 
ATOM     29  C   UNL     1      -1.012   1.724  24.194  0.00  0.00    +0.028 C 
ATOM     30  C   UNL     1      -0.195   1.626  24.256  0.00  0.00    +0.089 C 
ATOM     31  N   UNL     1       0.161   1.594  25.000  0.00  0.00    -0.218 NA
ATOM     32  C   UNL     1      -0.300   1.658  25.681  0.00  0.00    +0.089 C 
ATOM     33  C   UNL     1      -1.117   1.756  25.619  0.00  0.00    +0.028 C 
ENDBRANCH  26  28
BRANCH  14  16
ATOM     16  C   UNL     1      -3.924   2.081  24.689  0.00  0.00    +0.262 C 
ATOM     17  O   UNL     1      -3.731   2.625  24.102  0.00  0.00    -0.271 OA
ATOM     18  N   UNL     1      -4.446   2.292  25.292  0.00  0.00    -0.196 NA
BRANCH  18  19
ATOM     19  C   UNL     1      -4.773   3.049  25.307  0.00  0.00    +0.173 C 
ATOM     20  C   UNL     1      -4.486   3.632  24.797  0.00  0.00    +0.033 C 
ATOM     21  C   UNL     1      -4.813   4.389  24.811  0.00  0.00    +0.026 C 
ATOM     22  C   UNL     1      -5.426   4.563  25.334  0.00  0.00    +0.115 C 
ATOM     23  N   UNL     1      -5.713   3.982  25.843  0.00  0.00    -0.204 NA
ATOM     24  C   UNL     1      -5.386   3.224  25.829  0.00  0.00    +0.261 C 
ATOM     25  O   UNL     1      -5.672   2.642  26.339  0.00  0.00    -0.271 OA
ENDBRANCH  18  19
ENDBRANCH  14  16
TORSDOF 4
ENDMDL
MODEL 5
REMARK VINA RESULT:     -11.1      1.541      3.688
REMARK  Name = 
REMARK  4 active torsions:
REMARK  status: ('A' for Active; 'I' for Inactive)
REMARK    1  A    between atoms: C_4  and  C_8
REMARK    2  A    between atoms: C_14  and  C_16
REMARK    3  A    between atoms: N_18  and  C_19
REMARK    4  A    between atoms: C_26  and  C_28
REMARK                            x       y       z     vdW  Elec       q    Type
REMARK                         _______ _______ _______ _____ _____    ______ ____
ROOT
ATOM      8  C   UNL     1      -4.340   2.243  24.988  0.00  0.00    +0.249 C 
ATOM      9  O   UNL     1      -3.996   2.975  24.833  0.00  0.00    -0.270 OA
ATOM     10  N   UNL     1      -3.897   1.552  24.902  0.00  0.00    -0.272 N 
ATOM     11  C   UNL     1      -4.242   0.818  25.057  0.00  0.00    +0.115 C 
ATOM     12  C   UNL     1      -3.798   0.129  24.971  0.00  0.00    +0.115 C 
ATOM     13  N   UNL     1      -3.010   0.171  24.730  0.00  0.00    -0.270 N 
ATOM     14  C   UNL     1      -2.666   0.905  24.575  0.00  0.00    +0.174 C 
ATOM     15  C   UNL     1      -3.109   1.596  24.661  0.00  0.00    +0.123 C 
ATOM     26  C   UNL     1      -2.566  -0.519  24.644  0.00  0.00    +0.226 C 
ATOM     27  O   UNL     1      -1.779  -0.476  24.403  0.00  0.00    -0.275 OA
ENDROOT
BRANCH   8   4
ATOM      1  F   UNL     1      -7.086   1.718  24.391  0.00  0.00    -0.204 F 
ATOM      2  C   UNL     1      -6.500   1.937  24.931  0.00  0.00    +0.140 A 
ATOM      3  C   UNL     1      -5.713   1.980  24.690  0.00  0.00    +0.034 A 
ATOM      4  C   UNL     1      -5.128   2.199  25.229  0.00  0.00    +0.056 A 
ATOM      5  C   UNL     1      -5.331   2.375  26.009  0.00  0.00    +0.005 A 
ATOM      6  C   UNL     1      -6.119   2.332  26.250  0.00  0.00    +0.002 A 
ATOM      7  C   UNL     1      -6.704   2.113  25.711  0.00  0.00    +0.030 A 
ENDBRANCH   8   4
BRANCH  26  28
ATOM     28  C   UNL     1      -2.911  -1.253  24.799  0.00  0.00    +0.080 C 
ATOM     29  C   UNL     1      -3.262  -1.681  24.187  0.00  0.00    +0.028 C 
ATOM     30  C   UNL     1      -3.606  -2.415  24.342  0.00  0.00    +0.089 C 
ATOM     31  N   UNL     1      -3.600  -2.720  25.109  0.00  0.00    -0.218 NA
ATOM     32  C   UNL     1      -3.249  -2.292  25.720  0.00  0.00    +0.089 C 
ATOM     33  C   UNL     1      -2.905  -1.558  25.565  0.00  0.00    +0.028 C 
ENDBRANCH  26  28
BRANCH  14  16
ATOM     16  C   UNL     1      -1.877   0.948  24.334  0.00  0.00    +0.262 C 
ATOM     17  O   UNL     1      -1.626   0.532  23.668  0.00  0.00    -0.271 OA
ATOM     18  N   UNL     1      -1.341   1.407  24.761  0.00  0.00    -0.196 NA
BRANCH  18  19
ATOM     19  C   UNL     1      -0.553   1.450  24.519  0.00  0.00    +0.173 C 
ATOM     20  C   UNL     1      -0.339   1.194  23.764  0.00  0.00    +0.033 C 
ATOM     21  C   UNL     1       0.448   1.237  23.523  0.00  0.00    +0.026 C 
ATOM     22  C   UNL     1       1.021   1.535  24.035  0.00  0.00    +0.115 C 
ATOM     23  N   UNL     1       0.808   1.791  24.789  0.00  0.00    -0.204 NA
ATOM     24  C   UNL     1       0.019   1.749  25.031  0.00  0.00    +0.261 C 
ATOM     25  O   UNL     1      -0.194   2.004  25.786  0.00  0.00    -0.271 OA
ENDBRANCH  18  19
ENDBRANCH  14  16
TORSDOF 4
ENDMDL
MODEL 6
REMARK VINA RESULT:     -11.0      2.008      5.122
REMARK  Name = 
REMARK  4 active torsions:
REMARK  status: ('A' for Active; 'I' for Inactive)
REMARK    1  A    between atoms: C_4  and  C_8
REMARK    2  A    between atoms: C_14  and  C_16
REMARK    3  A    between atoms: N_18  and  C_19
REMARK    4  A    between atoms: C_26  and  C_28
REMARK                            x       y       z     vdW  Elec       q    Type
REMARK                         _______ _______ _______ _____ _____    ______ ____
ROOT
ATOM      8  C   UNL     1      -4.713   2.064  24.792  0.00  0.00    +0.249 C 
ATOM      9  O   UNL     1      -5.404   1.626  24.689  0.00  0.00    -0.270 OA
ATOM     10  N   UNL     1      -3.979   1.688  24.770  0.00  0.00    -0.272 N 
ATOM     11  C   UNL     1      -3.288   2.127  24.874  0.00  0.00    +0.115 C 
ATOM     12  C   UNL     1      -2.554   1.751  24.851  0.00  0.00    +0.115 C 
ATOM     13  N   UNL     1      -2.511   0.936  24.726  0.00  0.00    -0.270 N 
ATOM     14  C   UNL     1      -3.202   0.498  24.623  0.00  0.00    +0.174 C 
ATOM     15  C   UNL     1      -3.937   0.874  24.645  0.00  0.00    +0.123 C 
ATOM     26  C   UNL     1      -1.777   0.560  24.704  0.00  0.00    +0.226 C 
ATOM     27  O   UNL     1      -1.734  -0.254  24.578  0.00  0.00    -0.275 OA
ENDROOT
BRANCH   8   4
ATOM      1  F   UNL     1      -4.300   4.736  23.866  0.00  0.00    -0.204 F 
ATOM      2  C   UNL     1      -4.549   4.214  24.455  0.00  0.00    +0.140 A 
ATOM      3  C   UNL     1      -4.507   3.400  24.330  0.00  0.00    +0.034 A 
ATOM      4  C   UNL     1      -4.756   2.879  24.918  0.00  0.00    +0.056 A 
ATOM      5  C   UNL     1      -5.048   3.170  25.632  0.00  0.00    +0.005 A 
ATOM      6  C   UNL     1      -5.091   3.985  25.758  0.00  0.00    +0.002 A 
ATOM      7  C   UNL     1      -4.841   4.507  25.169  0.00  0.00    +0.030 A 
ENDBRANCH   8   4
BRANCH  26  28
ATOM     28  C   UNL     1      -1.085   0.999  24.807  0.00  0.00    +0.080 C 
ATOM     29  C   UNL     1      -0.642   1.231  24.150  0.00  0.00    +0.028 C 
ATOM     30  C   UNL     1       0.049   1.669  24.254  0.00  0.00    +0.089 C 
ATOM     31  N   UNL     1       0.298   1.875  25.013  0.00  0.00    -0.218 NA
ATOM     32  C   UNL     1      -0.146   1.643  25.669  0.00  0.00    +0.089 C 
ATOM     33  C   UNL     1      -0.837   1.204  25.566  0.00  0.00    +0.028 C 
ENDBRANCH  26  28
BRANCH  14  16
ATOM     16  C   UNL     1      -3.160  -0.317  24.497  0.00  0.00    +0.262 C 
ATOM     17  O   UNL     1      -2.673  -0.618  23.904  0.00  0.00    -0.271 OA
ATOM     18  N   UNL     1      -3.604  -0.830  24.966  0.00  0.00    -0.196 NA
BRANCH  18  19
ATOM     19  C   UNL     1      -3.562  -1.644  24.840  0.00  0.00    +0.173 C 
ATOM     20  C   UNL     1      -3.631  -1.947  24.075  0.00  0.00    +0.033 C 
ATOM     21  C   UNL     1      -3.588  -2.761  23.949  0.00  0.00    +0.026 C 
ATOM     22  C   UNL     1      -3.476  -3.271  24.586  0.00  0.00    +0.115 C 
ATOM     23  N   UNL     1      -3.406  -2.969  25.350  0.00  0.00    -0.204 NA
ATOM     24  C   UNL     1      -3.449  -2.154  25.477  0.00  0.00    +0.261 C 
ATOM     25  O   UNL     1      -3.379  -1.852  26.241  0.00  0.00    -0.271 OA
ENDBRANCH  18  19
ENDBRANCH  14  16
TORSDOF 4
ENDMDL
