MODEL 1
REMARK VINA RESULT:     -11.5      0.000      0.000
REMARK  Name = 
REMARK  2 active torsions:
REMARK  status: ('A' for Active; 'I' for Inactive)
REMARK    1  A    between atoms: N_6  and  C_17
REMARK    2  A    between atoms: N_10  and  C_11
REMARK                            x       y       z     vdW  Elec       q    Type
REMARK                         _______ _______ _______ _____ _____    ______ ____
ROOT
ATOM      1  O   UNL     1      -4.828   0.750  24.892  0.00  0.00    -0.252 OA
ATOM      2  C   UNL     1      -4.013   0.871  24.864  0.00  0.00    +0.311 C 
ATOM      3  N   UNL     1      -3.629   1.599  24.910  0.00  0.00    -0.261 N 
ATOM      4  C   UNL     1      -3.913   2.369  24.991  0.00  0.00    +0.112 C 
ATOM      5  C   UNL     1      -3.385   3.002  25.022  0.00  0.00    +0.094 C 
ATOM      6  N   UNL     1      -2.573   2.865  24.971  0.00  0.00    -0.271 NA
ATOM      7  C   UNL     1      -2.289   2.096  24.889  0.00  0.00    +0.094 C 
ATOM      8  C   UNL     1      -2.817   1.462  24.859  0.00  0.00    +0.113 C 
ATOM      9  C   UNL     1      -2.699   0.649  24.782  0.00  0.00    +0.121 C 
ATOM     10  N   UNL     1      -3.439   0.284  24.785  0.00  0.00    -0.241 N 
ENDROOT
BRANCH  10  11
ATOM     11  C   UNL     1      -3.579  -0.527  24.720  0.00  0.00    +0.055 A 
ATOM     12  C   UNL     1      -3.444  -1.022  25.365  0.00  0.00    +0.015 A 
ATOM     13  C   UNL     1      -3.584  -1.833  25.301  0.00  0.00    +0.001 A 
ATOM     14  C   UNL     1      -3.860  -2.147  24.591  0.00  0.00    +0.000 A 
ATOM     15  C   UNL     1      -3.996  -1.653  23.944  0.00  0.00    +0.001 A 
ATOM     16  C   UNL     1      -3.856  -0.842  24.009  0.00  0.00    +0.015 A 
ENDBRANCH  10  11
BRANCH   6  17
ATOM     17  C   UNL     1      -2.045   3.499  25.002  0.00  0.00    +0.063 C 
ATOM     18  C   UNL     1      -2.280   4.215  25.337  0.00  0.00    +0.048 C 
ATOM     19  C   UNL     1      -1.752   4.849  25.368  0.00  0.00    +0.144 C 
ATOM     20  O   UNL     1      -0.990   4.766  25.063  0.00  0.00    -0.354 OA
ATOM     21  C   UNL     1      -0.756   4.049  24.728  0.00  0.00    +0.144 C 
ATOM     22  C   UNL     1      -1.283   3.416  24.697  0.00  0.00    +0.048 C 
ENDBRANCH   6  17
TORSDOF 2
ENDMDL
MODEL 2
REMARK VINA RESULT:     -11.2      0.983      4.664
REMARK  Name = 
REMARK  2 active torsions:
REMARK  status: ('A' for Active; 'I' for Inactive)
REMARK    1  A    between atoms: N_6  and  C_17
REMARK    2  A    between atoms: N_10  and  C_11
REMARK                            x       y       z     vdW  Elec       q    Type
REMARK                         _______ _______ _______ _____ _____    ______ ____
ROOT
ATOM      1  O   UNL     1      -3.987   3.125  24.780  0.00  0.00    -0.252 OA
ATOM      2  C   UNL     1      -3.459   2.494  24.837  0.00  0.00    +0.311 C 
ATOM      3  N   UNL     1      -3.653   1.694  24.786  0.00  0.00    -0.261 N 
ATOM      4  C   UNL     1      -4.372   1.306  24.671  0.00  0.00    +0.112 C 
ATOM      5  C   UNL     1      -4.397   0.483  24.643  0.00  0.00    +0.094 C 
ATOM      6  N   UNL     1      -3.702   0.046  24.731  0.00  0.00    -0.271 NA
ATOM      7  C   UNL     1      -2.983   0.433  24.846  0.00  0.00    +0.094 C 
ATOM      8  C   UNL     1      -2.958   1.258  24.873  0.00  0.00    +0.113 C 
ATOM      9  C   UNL     1      -2.336   1.788  24.979  0.00  0.00    +0.121 C 
ATOM     10  N   UNL     1      -2.645   2.552  24.956  0.00  0.00    -0.241 N 
ENDROOT
BRANCH  10  11
ATOM     11  C   UNL     1      -2.215   3.251  25.039  0.00  0.00    +0.055 A 
ATOM     12  C   UNL     1      -2.422   3.797  25.621  0.00  0.00    +0.015 A 
ATOM     13  C   UNL     1      -1.993   4.497  25.704  0.00  0.00    +0.001 A 
ATOM     14  C   UNL     1      -1.356   4.651  25.203  0.00  0.00    +0.000 A 
ATOM     15  C   UNL     1      -1.148   4.105  24.620  0.00  0.00    +0.001 A 
ATOM     16  C   UNL     1      -1.577   3.406  24.538  0.00  0.00    +0.015 A 
ENDBRANCH  10  11
BRANCH   6  17
ATOM     17  C   UNL     1      -3.727  -0.779  24.703  0.00  0.00    +0.063 C 
ATOM     18  C   UNL     1      -3.478  -1.220  25.354  0.00  0.00    +0.048 C 
ATOM     19  C   UNL     1      -3.502  -2.045  25.326  0.00  0.00    +0.144 C 
ATOM     20  O   UNL     1      -3.776  -2.427  24.648  0.00  0.00    -0.354 OA
ATOM     21  C   UNL     1      -4.024  -1.985  23.998  0.00  0.00    +0.144 C 
ATOM     22  C   UNL     1      -4.000  -1.161  24.025  0.00  0.00    +0.048 C 
ENDBRANCH   6  17
TORSDOF 2
ENDMDL
MODEL 3
REMARK VINA RESULT:     -11.1      1.877      2.375
REMARK  Name = 
REMARK  2 active torsions:
REMARK  status: ('A' for Active; 'I' for Inactive)
REMARK    1  A    between atoms: N_6  and  C_17
REMARK    2  A    between atoms: N_10  and  C_11
REMARK                            x       y       z     vdW  Elec       q    Type
REMARK                         _______ _______ _______ _____ _____    ______ ____
ROOT
ATOM      1  O   UNL     1      -2.542  -0.201  23.949  0.00  0.00    -0.252 OA
ATOM      2  C   UNL     1      -3.250  -0.018  24.329  0.00  0.00    +0.311 C 
ATOM      3  N   UNL     1      -3.527   0.739  24.501  0.00  0.00    -0.261 N 
ATOM      4  C   UNL     1      -3.211   1.488  24.360  0.00  0.00    +0.112 C 
ATOM      5  C   UNL     1      -3.621   2.162  24.600  0.00  0.00    +0.094 C 
ATOM      6  N   UNL     1      -4.349   2.087  24.981  0.00  0.00    -0.271 NA
ATOM      7  C   UNL     1      -4.667   1.339  25.123  0.00  0.00    +0.094 C 
ATOM      8  C   UNL     1      -4.255   0.664  24.882  0.00  0.00    +0.113 C 
ATOM      9  C   UNL     1      -4.428  -0.139  24.945  0.00  0.00    +0.121 C 
ATOM     10  N   UNL     1      -3.808  -0.561  24.603  0.00  0.00    -0.241 N 
ENDROOT
BRANCH  10  11
ATOM     11  C   UNL     1      -3.753  -1.383  24.546  0.00  0.00    +0.055 A 
ATOM     12  C   UNL     1      -3.339  -1.810  25.117  0.00  0.00    +0.015 A 
ATOM     13  C   UNL     1      -3.285  -2.631  25.060  0.00  0.00    +0.001 A 
ATOM     14  C   UNL     1      -3.644  -3.025  24.431  0.00  0.00    +0.000 A 
ATOM     15  C   UNL     1      -4.059  -2.599  23.859  0.00  0.00    +0.001 A 
ATOM     16  C   UNL     1      -4.114  -1.777  23.917  0.00  0.00    +0.015 A 
ENDBRANCH  10  11
BRANCH   6  17
ATOM     17  C   UNL     1      -4.761   2.761  25.222  0.00  0.00    +0.063 C 
ATOM     18  C   UNL     1      -5.551   2.701  25.451  0.00  0.00    +0.048 C 
ATOM     19  C   UNL     1      -5.963   3.375  25.691  0.00  0.00    +0.144 C 
ATOM     20  O   UNL     1      -5.584   4.108  25.703  0.00  0.00    -0.354 OA
ATOM     21  C   UNL     1      -4.793   4.166  25.474  0.00  0.00    +0.144 C 
ATOM     22  C   UNL     1      -4.382   3.494  25.234  0.00  0.00    +0.048 C 
ENDBRANCH   6  17
TORSDOF 2
ENDMDL
