MODEL 1
REMARK VINA RESULT:     -10.5      0.000      0.000
REMARK  Name = 
REMARK  7 active torsions:
REMARK  status: ('A' for Active; 'I' for Inactive)
REMARK    1  A    between atoms: C_2  and  C_5
REMARK    2  A    between atoms: C_9  and  N_10
REMARK    3  A    between atoms: C_11  and  O_13
REMARK    4  A    between atoms: O_13  and  C_14
REMARK    5  A    between atoms: C_18  and  N_22
REMARK    6  A    between atoms: N_25  and  C_26
REMARK    7  A    between atoms: C_26  and  C_27
REMARK                            x       y       z     vdW  Elec       q    Type
REMARK                         _______ _______ _______ _____ _____    ______ ____
ROOT
ATOM     14  C   UNL     1       0.604   0.542  23.511  0.00  0.00    +0.229 C 
ATOM     15  C   UNL     1       0.625   1.349  23.678  0.00  0.00    +0.188 C 
ATOM     16  O   UNL     1      -0.075   1.546  24.066  0.00  0.00    -0.348 OA
ATOM     17  C   UNL     1      -0.529   0.862  24.140  0.00  0.00    +0.168 C 
ATOM     18  C   UNL     1      -1.242   0.559  24.425  0.00  0.00    +0.156 C 
ATOM     19  C   UNL     1      -1.262  -0.248  24.257  0.00  0.00    +0.166 C 
ATOM     20  O   UNL     1      -0.562  -0.445  23.869  0.00  0.00    -0.348 OA
ATOM     21  C   UNL     1      -0.109   0.241  23.796  0.00  0.00    +0.186 C 
ENDROOT
BRANCH  18  22
ATOM     22  N   UNL     1      -1.831   0.990  24.810  0.00  0.00    -0.184 NA
ATOM     23  C   UNL     1      -2.602   0.988  24.517  0.00  0.00    +0.340 C 
ATOM     24  O   UNL     1      -2.785   0.555  23.839  0.00  0.00    -0.249 OA
ATOM     25  N   UNL     1      -3.191   1.419  24.902  0.00  0.00    -0.182 NA
BRANCH  25  26
ATOM     26  C   UNL     1      -3.962   1.416  24.609  0.00  0.00    +0.143 C 
BRANCH  26  27
ATOM     27  C   UNL     1      -4.540   1.886  24.964  0.00  0.00    -0.001 A 
ATOM     28  C   UNL     1      -4.459   2.706  24.973  0.00  0.00    -0.003 A 
ATOM     29  C   UNL     1      -5.036   3.176  25.327  0.00  0.00    -0.000 A 
ATOM     30  C   UNL     1      -5.698   2.824  25.673  0.00  0.00    -0.000 A 
ATOM     31  C   UNL     1      -5.781   2.003  25.664  0.00  0.00    -0.000 A 
ATOM     32  C   UNL     1      -5.202   1.533  25.310  0.00  0.00    -0.003 A 
ENDBRANCH  26  27
ENDBRANCH  25  26
ENDBRANCH  18  22
BRANCH  14  13
ATOM     13  O   UNL     1       1.193   0.111  23.125  0.00  0.00    -0.432 OA
BRANCH  13  11
ATOM     10  N   UNL     1       2.582  -0.141  22.904  0.00  0.00    -0.142 NA
ATOM     11  C   UNL     1       1.980   0.354  23.172  0.00  0.00    +0.425 C 
ATOM     12  O   UNL     1       2.164   1.094  23.489  0.00  0.00    -0.224 OA
BRANCH  10   9
ATOM      5  C   UNL     1       4.668  -0.014  23.535  0.00  0.00    +0.073 A 
ATOM      6  C   UNL     1       4.943   0.589  23.044  0.00  0.00    +0.004 A 
ATOM      7  C   UNL     1       4.431   0.950  22.507  0.00  0.00    +0.001 A 
ATOM      8  C   UNL     1       3.644   0.706  22.460  0.00  0.00    +0.017 A 
ATOM      9  C   UNL     1       3.369   0.102  22.951  0.00  0.00    +0.077 A 
ATOM     33  C   UNL     1       3.881  -0.258  23.487  0.00  0.00    +0.021 A 
BRANCH   5   2
ATOM      1  F   UNL     1       5.692  -0.735  24.609  0.00  0.00    -0.166 F 
ATOM      2  C   UNL     1       5.180  -0.374  24.071  0.00  0.00    +0.419 C 
ATOM      3  F   UNL     1       5.010  -1.110  23.740  0.00  0.00    -0.166 F 
ATOM      4  F   UNL     1       5.351   0.362  24.404  0.00  0.00    -0.166 F 
ENDBRANCH   5   2
ENDBRANCH  10   9
ENDBRANCH  13  11
ENDBRANCH  14  13
TORSDOF 7
ENDMDL
MODEL 2
REMARK VINA RESULT:     -10.4      3.605      7.763
REMARK  Name = 
REMARK  7 active torsions:
REMARK  status: ('A' for Active; 'I' for Inactive)
REMARK    1  A    between atoms: C_2  and  C_5
REMARK    2  A    between atoms: C_9  and  N_10
REMARK    3  A    between atoms: C_11  and  O_13
REMARK    4  A    between atoms: O_13  and  C_14
REMARK    5  A    between atoms: C_18  and  N_22
REMARK    6  A    between atoms: N_25  and  C_26
REMARK    7  A    between atoms: C_26  and  C_27
REMARK                            x       y       z     vdW  Elec       q    Type
REMARK                         _______ _______ _______ _____ _____    ______ ____
ROOT
ATOM     14  C   UNL     1      -1.460   1.486  23.787  0.00  0.00    +0.229 C 
ATOM     15  C   UNL     1      -1.123   2.202  24.019  0.00  0.00    +0.188 C 
ATOM     16  O   UNL     1      -0.303   2.109  24.021  0.00  0.00    -0.348 OA
ATOM     17  C   UNL     1      -0.133   1.336  23.791  0.00  0.00    +0.168 C 
ATOM     18  C   UNL     1       0.477   0.800  23.649  0.00  0.00    +0.156 C 
ATOM     19  C   UNL     1       0.141   0.083  23.417  0.00  0.00    +0.166 C 
ATOM     20  O   UNL     1      -0.679   0.177  23.415  0.00  0.00    -0.348 OA
ATOM     21  C   UNL     1      -0.848   0.951  23.646  0.00  0.00    +0.186 C 
ENDROOT
BRANCH  18  22
ATOM     22  N   UNL     1       1.285   0.953  23.726  0.00  0.00    -0.184 NA
ATOM     23  C   UNL     1       1.828   0.557  23.248  0.00  0.00    +0.340 C 
ATOM     24  O   UNL     1       1.564   0.006  22.693  0.00  0.00    -0.249 OA
ATOM     25  N   UNL     1       2.635   0.711  23.326  0.00  0.00    -0.182 NA
BRANCH  25  26
ATOM     26  C   UNL     1       3.178   0.314  22.848  0.00  0.00    +0.143 C 
BRANCH  26  27
ATOM     27  C   UNL     1       3.949   0.189  23.114  0.00  0.00    -0.001 A 
ATOM     28  C   UNL     1       4.505   0.796  23.068  0.00  0.00    -0.003 A 
ATOM     29  C   UNL     1       5.275   0.671  23.334  0.00  0.00    -0.000 A 
ATOM     30  C   UNL     1       5.490  -0.062  23.646  0.00  0.00    -0.000 A 
ATOM     31  C   UNL     1       4.934  -0.670  23.692  0.00  0.00    -0.000 A 
ATOM     32  C   UNL     1       4.163  -0.545  23.426  0.00  0.00    -0.003 A 
ENDBRANCH  26  27
ENDBRANCH  25  26
ENDBRANCH  18  22
BRANCH  14  13
ATOM     13  O   UNL     1      -2.267   1.332  23.710  0.00  0.00    -0.432 OA
BRANCH  13  11
ATOM     10  N   UNL     1      -3.502   2.032  23.871  0.00  0.00    -0.142 NA
ATOM     11  C   UNL     1      -2.810   1.722  24.194  0.00  0.00    +0.425 C 
ATOM     12  O   UNL     1      -2.659   1.802  25.001  0.00  0.00    -0.224 OA
BRANCH  10   9
ATOM      5  C   UNL     1      -5.249   2.412  25.123  0.00  0.00    +0.073 A 
ATOM      6  C   UNL     1      -5.130   3.203  25.322  0.00  0.00    +0.004 A 
ATOM      7  C   UNL     1      -4.468   3.605  25.036  0.00  0.00    +0.001 A 
ATOM      8  C   UNL     1      -3.925   3.214  24.553  0.00  0.00    +0.017 A 
ATOM      9  C   UNL     1      -4.045   2.422  24.354  0.00  0.00    +0.077 A 
ATOM     33  C   UNL     1      -4.706   2.021  24.640  0.00  0.00    +0.021 A 
BRANCH   5   2
ATOM      1  F   UNL     1      -6.573   1.609  25.695  0.00  0.00    -0.166 F 
ATOM      2  C   UNL     1      -5.911   2.011  25.409  0.00  0.00    +0.419 C 
ATOM      3  F   UNL     1      -5.570   1.984  26.159  0.00  0.00    -0.166 F 
ATOM      4  F   UNL     1      -6.252   2.037  24.658  0.00  0.00    -0.166 F 
ENDBRANCH   5   2
ENDBRANCH  10   9
ENDBRANCH  13  11
ENDBRANCH  14  13
TORSDOF 7
ENDMDL
MODEL 3
REMARK VINA RESULT:      -9.6      3.067      7.202
REMARK  Name = 
REMARK  7 active torsions:
REMARK  status: ('A' for Active; 'I' for Inactive)
REMARK    1  A    between atoms: C_2  and  C_5
REMARK    2  A    between atoms: C_9  and  N_10
REMARK    3  A    between atoms: C_11  and  O_13
REMARK    4  A    between atoms: O_13  and  C_14
REMARK    5  A    between atoms: C_18  and  N_22
REMARK    6  A    between atoms: N_25  and  C_26
REMARK    7  A    between atoms: C_26  and  C_27
REMARK                            x       y       z     vdW  Elec       q    Type
REMARK                         _______ _______ _______ _____ _____    ______ ____
ROOT
ATOM     14  C   UNL     1      -0.975   1.265  24.174  0.00  0.00    +0.229 C 
ATOM     15  C   UNL     1      -0.625   1.691  24.787  0.00  0.00    +0.188 C 
ATOM     16  O   UNL     1       0.192   1.676  24.673  0.00  0.00    -0.348 OA
ATOM     17  C   UNL     1       0.346   1.241  23.990  0.00  0.00    +0.168 C 
ATOM     18  C   UNL     1       0.946   0.962  23.496  0.00  0.00    +0.156 C 
ATOM     19  C   UNL     1       0.595   0.536  22.883  0.00  0.00    +0.166 C 
ATOM     20  O   UNL     1      -0.222   0.551  22.998  0.00  0.00    -0.348 OA
ATOM     21  C   UNL     1      -0.376   0.987  23.682  0.00  0.00    +0.186 C 
ENDROOT
BRANCH  18  22
ATOM     22  N   UNL     1       1.755   1.088  23.598  0.00  0.00    -0.184 NA
ATOM     23  C   UNL     1       2.300   0.617  23.196  0.00  0.00    +0.340 C 
ATOM     24  O   UNL     1       2.036   0.020  22.691  0.00  0.00    -0.249 OA
ATOM     25  N   UNL     1       3.109   0.742  23.298  0.00  0.00    -0.182 NA
BRANCH  25  26
ATOM     26  C   UNL     1       3.654   0.271  22.895  0.00  0.00    +0.143 C 
BRANCH  26  27
ATOM     27  C   UNL     1       4.391   0.114  23.230  0.00  0.00    -0.001 A 
ATOM     28  C   UNL     1       4.963   0.707  23.268  0.00  0.00    -0.003 A 
ATOM     29  C   UNL     1       5.699   0.550  23.602  0.00  0.00    -0.000 A 
ATOM     30  C   UNL     1       5.866  -0.201  23.900  0.00  0.00    -0.000 A 
ATOM     31  C   UNL     1       5.294  -0.796  23.862  0.00  0.00    -0.000 A 
ATOM     32  C   UNL     1       4.556  -0.638  23.527  0.00  0.00    -0.003 A 
ENDBRANCH  26  27
ENDBRANCH  25  26
ENDBRANCH  18  22
BRANCH  14  13
ATOM     13  O   UNL     1      -1.785   1.139  24.072  0.00  0.00    -0.432 OA
BRANCH  13  11
ATOM     10  N   UNL     1      -2.799   0.138  24.170  0.00  0.00    -0.142 NA
ATOM     11  C   UNL     1      -2.169   0.551  24.504  0.00  0.00    +0.425 C 
ATOM     12  O   UNL     1      -1.921   0.376  25.273  0.00  0.00    -0.224 OA
BRANCH  10   9
ATOM      5  C   UNL     1      -3.593  -1.812  24.749  0.00  0.00    +0.073 A 
ATOM      6  C   UNL     1      -3.952  -1.627  25.468  0.00  0.00    +0.004 A 
ATOM      7  C   UNL     1      -3.927  -0.853  25.755  0.00  0.00    +0.001 A 
ATOM      8  C   UNL     1      -3.543  -0.266  25.322  0.00  0.00    +0.017 A 
ATOM      9  C   UNL     1      -3.183  -0.451  24.603  0.00  0.00    +0.077 A 
ATOM     33  C   UNL     1      -3.208  -1.224  24.316  0.00  0.00    +0.021 A 
BRANCH   5   2
ATOM      1  F   UNL     1      -3.643  -3.358  24.176  0.00  0.00    -0.166 F 
ATOM      2  C   UNL     1      -3.618  -2.585  24.463  0.00  0.00    +0.419 C 
ATOM      3  F   UNL     1      -4.237  -2.378  23.960  0.00  0.00    -0.166 F 
ATOM      4  F   UNL     1      -2.998  -2.792  24.966  0.00  0.00    -0.166 F 
ENDBRANCH   5   2
ENDBRANCH  10   9
ENDBRANCH  13  11
ENDBRANCH  14  13
TORSDOF 7
ENDMDL
MODEL 4
REMARK VINA RESULT:      -9.4      2.835      7.043
REMARK  Name = 
REMARK  7 active torsions:
REMARK  status: ('A' for Active; 'I' for Inactive)
REMARK    1  A    between atoms: C_2  and  C_5
REMARK    2  A    between atoms: C_9  and  N_10
REMARK    3  A    between atoms: C_11  and  O_13
REMARK    4  A    between atoms: O_13  and  C_14
REMARK    5  A    between atoms: C_18  and  N_22
REMARK    6  A    between atoms: N_25  and  C_26
REMARK    7  A    between atoms: C_26  and  C_27
REMARK                            x       y       z     vdW  Elec       q    Type
REMARK                         _______ _______ _______ _____ _____    ______ ____
ROOT
ATOM     14  C   UNL     1      -1.186   0.477  24.292  0.00  0.00    +0.229 C 
ATOM     15  C   UNL     1      -0.862   0.112  24.957  0.00  0.00    +0.188 C 
ATOM     16  O   UNL     1      -0.107  -0.155  24.758  0.00  0.00    -0.348 OA
ATOM     17  C   UNL     1       0.035   0.044  23.971  0.00  0.00    +0.168 C 
ATOM     18  C   UNL     1       0.589   0.003  23.361  0.00  0.00    +0.156 C 
ATOM     19  C   UNL     1       0.265   0.368  22.696  0.00  0.00    +0.166 C 
ATOM     20  O   UNL     1      -0.490   0.635  22.895  0.00  0.00    -0.348 OA
ATOM     21  C   UNL     1      -0.632   0.435  23.683  0.00  0.00    +0.186 C 
ENDROOT
BRANCH  18  22
ATOM     22  N   UNL     1       1.337  -0.343  23.408  0.00  0.00    -0.184 NA
ATOM     23  C   UNL     1       1.993   0.049  23.098  0.00  0.00    +0.340 C 
ATOM     24  O   UNL     1       1.902   0.786  22.740  0.00  0.00    -0.249 OA
ATOM     25  N   UNL     1       2.741  -0.297  23.145  0.00  0.00    -0.182 NA
BRANCH  25  26
ATOM     26  C   UNL     1       3.397   0.094  22.834  0.00  0.00    +0.143 C 
BRANCH  26  27
ATOM     27  C   UNL     1       4.142  -0.015  23.172  0.00  0.00    -0.001 A 
ATOM     28  C   UNL     1       4.677   0.610  23.205  0.00  0.00    -0.003 A 
ATOM     29  C   UNL     1       5.421   0.500  23.542  0.00  0.00    -0.000 A 
ATOM     30  C   UNL     1       5.631  -0.237  23.847  0.00  0.00    -0.000 A 
ATOM     31  C   UNL     1       5.096  -0.865  23.814  0.00  0.00    -0.000 A 
ATOM     32  C   UNL     1       4.351  -0.754  23.476  0.00  0.00    -0.003 A 
ENDBRANCH  26  27
ENDBRANCH  25  26
ENDBRANCH  18  22
BRANCH  14  13
ATOM     13  O   UNL     1      -1.934   0.823  24.245  0.00  0.00    -0.432 OA
BRANCH  13  11
ATOM     10  N   UNL     1      -2.403   2.169  24.338  0.00  0.00    -0.142 NA
ATOM     11  C   UNL     1      -2.110   1.489  24.699  0.00  0.00    +0.425 C 
ATOM     12  O   UNL     1      -1.992   1.473  25.516  0.00  0.00    -0.224 OA
BRANCH  10   9
ATOM      5  C   UNL     1      -2.230   4.136  25.268  0.00  0.00    +0.073 A 
ATOM      6  C   UNL     1      -2.932   4.167  25.700  0.00  0.00    +0.004 A 
ATOM      7  C   UNL     1      -3.458   3.531  25.678  0.00  0.00    +0.001 A 
ATOM      8  C   UNL     1      -3.281   2.866  25.224  0.00  0.00    +0.017 A 
ATOM      9  C   UNL     1      -2.579   2.835  24.792  0.00  0.00    +0.077 A 
ATOM     33  C   UNL     1      -2.054   3.470  24.814  0.00  0.00    +0.021 A 
BRANCH   5   2
ATOM      1  F   UNL     1      -1.179   5.408  25.312  0.00  0.00    -0.166 F 
ATOM      2  C   UNL     1      -1.705   4.772  25.290  0.00  0.00    +0.419 C 
ATOM      3  F   UNL     1      -2.076   5.102  24.633  0.00  0.00    -0.166 F 
ATOM      4  F   UNL     1      -1.332   4.442  25.948  0.00  0.00    -0.166 F 
ENDBRANCH   5   2
ENDBRANCH  10   9
ENDBRANCH  13  11
ENDBRANCH  14  13
TORSDOF 7
ENDMDL
MODEL 5
REMARK VINA RESULT:      -7.8     17.319     17.863
REMARK  Name = 
REMARK  7 active torsions:
REMARK  status: ('A' for Active; 'I' for Inactive)
REMARK    1  A    between atoms: C_2  and  C_5
REMARK    2  A    between atoms: C_9  and  N_10
REMARK    3  A    between atoms: C_11  and  O_13
REMARK    4  A    between atoms: O_13  and  C_14
REMARK    5  A    between atoms: C_18  and  N_22
REMARK    6  A    between atoms: N_25  and  C_26
REMARK    7  A    between atoms: C_26  and  C_27
REMARK                            x       y       z     vdW  Elec       q    Type
REMARK                         _______ _______ _______ _____ _____    ______ ____
ROOT
ATOM     14  C   UNL     1      -5.113  -9.254  10.010  0.00  0.00    +0.229 C 
ATOM     15  C   UNL     1      -5.016  -8.566  10.456  0.00  0.00    +0.188 C 
ATOM     16  O   UNL     1      -5.547  -8.002  10.172  0.00  0.00    -0.348 OA
ATOM     17  C   UNL     1      -5.972  -8.340   9.552  0.00  0.00    +0.168 C 
ATOM     18  C   UNL     1      -6.562  -8.202   8.992  0.00  0.00    +0.156 C 
ATOM     19  C   UNL     1      -6.659  -8.889   8.547  0.00  0.00    +0.166 C 
ATOM     20  O   UNL     1      -6.128  -9.453   8.831  0.00  0.00    -0.348 OA
ATOM     21  C   UNL     1      -5.703  -9.114   9.452  0.00  0.00    +0.186 C 
ENDROOT
BRANCH  18  22
ATOM     22  N   UNL     1      -6.982  -7.498   8.896  0.00  0.00    -0.184 NA
ATOM     23  C   UNL     1      -7.790  -7.519   8.732  0.00  0.00    +0.340 C 
ATOM     24  O   UNL     1      -8.179  -8.244   8.665  0.00  0.00    -0.249 OA
ATOM     25  N   UNL     1      -8.210  -6.815   8.635  0.00  0.00    -0.182 NA
BRANCH  25  26
ATOM     26  C   UNL     1      -9.019  -6.836   8.472  0.00  0.00    +0.143 C 
BRANCH  26  27
ATOM     27  C   UNL     1      -9.482  -6.165   8.591  0.00  0.00    -0.001 A 
ATOM     28  C   UNL     1     -10.257  -6.239   8.864  0.00  0.00    -0.003 A 
ATOM     29  C   UNL     1     -10.719  -5.568   8.983  0.00  0.00    -0.000 A 
ATOM     30  C   UNL     1     -10.408  -4.820   8.829  0.00  0.00    -0.000 A 
ATOM     31  C   UNL     1      -9.633  -4.743   8.556  0.00  0.00    -0.000 A 
ATOM     32  C   UNL     1      -9.170  -5.416   8.437  0.00  0.00    -0.003 A 
ENDBRANCH  26  27
ENDBRANCH  25  26
ENDBRANCH  18  22
BRANCH  14  13
ATOM     13  O   UNL     1      -4.693  -9.957  10.107  0.00  0.00    -0.432 OA
BRANCH  13  11
ATOM     10  N   UNL     1      -3.300 -10.102  10.387  0.00  0.00    -0.142 NA
ATOM     11  C   UNL     1      -4.074  -9.997  10.650  0.00  0.00    +0.425 C 
ATOM     12  O   UNL     1      -4.230  -9.932  11.459  0.00  0.00    -0.224 OA
BRANCH  10   9
ATOM      5  C   UNL     1      -1.454  -9.624  11.450  0.00  0.00    +0.073 A 
ATOM      6  C   UNL     1      -1.441 -10.222  12.018  0.00  0.00    +0.004 A 
ATOM      7  C   UNL     1      -2.048 -10.781  12.042  0.00  0.00    +0.001 A 
ATOM      8  C   UNL     1      -2.667 -10.741  11.498  0.00  0.00    +0.017 A 
ATOM      9  C   UNL     1      -2.680 -10.142  10.931  0.00  0.00    +0.077 A 
ATOM     33  C   UNL     1      -2.073  -9.584  10.907  0.00  0.00    +0.021 A 
BRANCH   5   2
ATOM      1  F   UNL     1      -0.240  -8.507  11.403  0.00  0.00    -0.166 F 
ATOM      2  C   UNL     1      -0.847  -9.066  11.427  0.00  0.00    +0.419 C 
ATOM      3  F   UNL     1      -0.937  -8.935  12.236  0.00  0.00    -0.166 F 
ATOM      4  F   UNL     1      -0.757  -9.197  10.617  0.00  0.00    -0.166 F 
ENDBRANCH   5   2
ENDBRANCH  10   9
ENDBRANCH  13  11
ENDBRANCH  14  13
TORSDOF 7
ENDMDL
MODEL 6
REMARK VINA RESULT:      -7.8     14.964     15.659
REMARK  Name = 
REMARK  7 active torsions:
REMARK  status: ('A' for Active; 'I' for Inactive)
REMARK    1  A    between atoms: C_2  and  C_5
REMARK    2  A    between atoms: C_9  and  N_10
REMARK    3  A    between atoms: C_11  and  O_13
REMARK    4  A    between atoms: O_13  and  C_14
REMARK    5  A    between atoms: C_18  and  N_22
REMARK    6  A    between atoms: N_25  and  C_26
REMARK    7  A    between atoms: C_26  and  C_27
REMARK                            x       y       z     vdW  Elec       q    Type
REMARK                         _______ _______ _______ _____ _____    ______ ____
ROOT
ATOM     14  C   UNL     1      -4.958 -10.629  14.165  0.00  0.00    +0.229 C 
ATOM     15  C   UNL     1      -5.627 -10.756  13.699  0.00  0.00    +0.188 C 
ATOM     16  O   UNL     1      -6.292 -10.650  14.175  0.00  0.00    -0.348 OA
ATOM     17  C   UNL     1      -6.035 -10.459  14.935  0.00  0.00    +0.168 C 
ATOM     18  C   UNL     1      -6.286 -10.276  15.699  0.00  0.00    +0.156 C 
ATOM     19  C   UNL     1      -5.617 -10.150  16.165  0.00  0.00    +0.166 C 
ATOM     20  O   UNL     1      -4.952 -10.255  15.689  0.00  0.00    -0.348 OA
ATOM     21  C   UNL     1      -5.210 -10.446  14.928  0.00  0.00    +0.186 C 
ENDROOT
BRANCH  18  22
ATOM     22  N   UNL     1      -7.070 -10.227  15.953  0.00  0.00    -0.184 NA
ATOM     23  C   UNL     1      -7.302  -9.623  16.463  0.00  0.00    +0.340 C 
ATOM     24  O   UNL     1      -6.750  -9.066  16.721  0.00  0.00    -0.249 OA
ATOM     25  N   UNL     1      -8.086  -9.574  16.717  0.00  0.00    -0.182 NA
BRANCH  25  26
ATOM     26  C   UNL     1      -8.317  -8.969  17.228  0.00  0.00    +0.143 C 
BRANCH  26  27
ATOM     27  C   UNL     1      -9.118  -8.841  17.381  0.00  0.00    -0.001 A 
ATOM     28  C   UNL     1      -9.553  -9.399  17.804  0.00  0.00    -0.003 A 
ATOM     29  C   UNL     1     -10.352  -9.271  17.956  0.00  0.00    -0.000 A 
ATOM     30  C   UNL     1     -10.719  -8.583  17.685  0.00  0.00    -0.000 A 
ATOM     31  C   UNL     1     -10.284  -8.023  17.261  0.00  0.00    -0.000 A 
ATOM     32  C   UNL     1      -9.483  -8.152  17.108  0.00  0.00    -0.003 A 
ENDBRANCH  26  27
ENDBRANCH  25  26
ENDBRANCH  18  22
BRANCH  14  13
ATOM     13  O   UNL     1      -4.174 -10.678  13.912  0.00  0.00    -0.432 OA
BRANCH  13  11
ATOM     10  N   UNL     1      -3.285 -10.734  12.794  0.00  0.00    -0.142 NA
ATOM     11  C   UNL     1      -3.973 -10.446  13.146  0.00  0.00    +0.425 C 
ATOM     12  O   UNL     1      -4.461  -9.924  12.732  0.00  0.00    -0.224 OA
BRANCH  10   9
ATOM      5  C   UNL     1      -2.246  -9.760  11.140  0.00  0.00    +0.073 A 
ATOM      6  C   UNL     1      -2.682 -10.039  10.497  0.00  0.00    +0.004 A 
ATOM      7  C   UNL     1      -3.318 -10.549  10.620  0.00  0.00    +0.001 A 
ATOM      8  C   UNL     1      -3.519 -10.781  11.386  0.00  0.00    +0.017 A 
ATOM      9  C   UNL     1      -3.083 -10.502  12.029  0.00  0.00    +0.077 A 
ATOM     33  C   UNL     1      -2.447  -9.992  11.905  0.00  0.00    +0.021 A 
BRANCH   5   2
ATOM      1  F   UNL     1      -0.973  -8.740  10.893  0.00  0.00    -0.166 F 
ATOM      2  C   UNL     1      -1.610  -9.250  11.017  0.00  0.00    +0.419 C 
ATOM      3  F   UNL     1      -1.130  -9.738  11.476  0.00  0.00    -0.166 F 
ATOM      4  F   UNL     1      -2.089  -8.761  10.556  0.00  0.00    -0.166 F 
ENDBRANCH   5   2
ENDBRANCH  10   9
ENDBRANCH  13  11
ENDBRANCH  14  13
TORSDOF 7
ENDMDL
MODEL 7
REMARK VINA RESULT:      -7.3     15.488     16.407
REMARK  Name = 
REMARK  7 active torsions:
REMARK  status: ('A' for Active; 'I' for Inactive)
REMARK    1  A    between atoms: C_2  and  C_5
REMARK    2  A    between atoms: C_9  and  N_10
REMARK    3  A    between atoms: C_11  and  O_13
REMARK    4  A    between atoms: O_13  and  C_14
REMARK    5  A    between atoms: C_18  and  N_22
REMARK    6  A    between atoms: N_25  and  C_26
REMARK    7  A    between atoms: C_26  and  C_27
REMARK                            x       y       z     vdW  Elec       q    Type
REMARK                         _______ _______ _______ _____ _____    ______ ____
ROOT
ATOM     14  C   UNL     1      -6.378  -9.395  12.785  0.00  0.00    +0.229 C 
ATOM     15  C   UNL     1      -5.657  -9.626  13.113  0.00  0.00    +0.188 C 
ATOM     16  O   UNL     1      -5.807  -9.939  13.861  0.00  0.00    -0.348 OA
ATOM     17  C   UNL     1      -6.619  -9.902  13.996  0.00  0.00    +0.168 C 
ATOM     18  C   UNL     1      -7.214 -10.072  14.541  0.00  0.00    +0.156 C 
ATOM     19  C   UNL     1      -7.935  -9.841  14.214  0.00  0.00    +0.166 C 
ATOM     20  O   UNL     1      -7.785  -9.528  13.465  0.00  0.00    -0.348 OA
ATOM     21  C   UNL     1      -6.972  -9.565  13.331  0.00  0.00    +0.186 C 
ENDROOT
BRANCH  18  22
ATOM     22  N   UNL     1      -7.107 -10.414  15.285  0.00  0.00    -0.184 NA
ATOM     23  C   UNL     1      -7.297  -9.989  15.965  0.00  0.00    +0.340 C 
ATOM     24  O   UNL     1      -7.594  -9.222  15.904  0.00  0.00    -0.249 OA
ATOM     25  N   UNL     1      -7.189 -10.330  16.709  0.00  0.00    -0.182 NA
BRANCH  25  26
ATOM     26  C   UNL     1      -7.379  -9.905  17.390  0.00  0.00    +0.143 C 
BRANCH  26  27
ATOM     27  C   UNL     1      -7.168 -10.197  18.132  0.00  0.00    -0.001 A 
ATOM     28  C   UNL     1      -6.377 -10.204  18.364  0.00  0.00    -0.003 A 
ATOM     29  C   UNL     1      -6.166 -10.496  19.105  0.00  0.00    -0.000 A 
ATOM     30  C   UNL     1      -6.748 -10.781  19.617  0.00  0.00    -0.000 A 
ATOM     31  C   UNL     1      -7.540 -10.774  19.386  0.00  0.00    -0.000 A 
ATOM     32  C   UNL     1      -7.751 -10.482  18.643  0.00  0.00    -0.003 A 
ENDBRANCH  26  27
ENDBRANCH  25  26
ENDBRANCH  18  22
BRANCH  14  13
ATOM     13  O   UNL     1      -6.485  -9.053  12.042  0.00  0.00    -0.432 OA
BRANCH  13  11
ATOM     10  N   UNL     1      -5.499  -8.614  11.105  0.00  0.00    -0.142 NA
ATOM     11  C   UNL     1      -5.956  -9.218  11.431  0.00  0.00    +0.425 C 
ATOM     12  O   UNL     1      -5.884  -9.990  11.146  0.00  0.00    -0.224 OA
BRANCH  10   9
ATOM      5  C   UNL     1      -3.651  -9.113  10.055  0.00  0.00    +0.073 A 
ATOM      6  C   UNL     1      -3.912  -9.110   9.272  0.00  0.00    +0.004 A 
ATOM      7  C   UNL     1      -4.701  -8.942   9.100  0.00  0.00    +0.001 A 
ATOM      8  C   UNL     1      -5.230  -8.777   9.712  0.00  0.00    +0.017 A 
ATOM      9  C   UNL     1      -4.970  -8.779  10.494  0.00  0.00    +0.077 A 
ATOM     33  C   UNL     1      -4.181  -8.947  10.666  0.00  0.00    +0.021 A 
BRANCH   5   2
ATOM      1  F   UNL     1      -2.073  -9.448  10.398  0.00  0.00    -0.166 F 
ATOM      2  C   UNL     1      -2.863  -9.281  10.227  0.00  0.00    +0.419 C 
ATOM      3  F   UNL     1      -2.719  -8.478  10.350  0.00  0.00    -0.166 F 
ATOM      4  F   UNL     1      -3.006 -10.084  10.103  0.00  0.00    -0.166 F 
ENDBRANCH   5   2
ENDBRANCH  10   9
ENDBRANCH  13  11
ENDBRANCH  14  13
TORSDOF 7
ENDMDL
MODEL 8
REMARK VINA RESULT:      -6.9     15.917     16.599
REMARK  Name = 
REMARK  7 active torsions:
REMARK  status: ('A' for Active; 'I' for Inactive)
REMARK    1  A    between atoms: C_2  and  C_5
REMARK    2  A    between atoms: C_9  and  N_10
REMARK    3  A    between atoms: C_11  and  O_13
REMARK    4  A    between atoms: O_13  and  C_14
REMARK    5  A    between atoms: C_18  and  N_22
REMARK    6  A    between atoms: N_25  and  C_26
REMARK    7  A    between atoms: C_26  and  C_27
REMARK                            x       y       z     vdW  Elec       q    Type
REMARK                         _______ _______ _______ _____ _____    ______ ____
ROOT
ATOM     14  C   UNL     1      -6.418 -10.113  12.381  0.00  0.00    +0.229 C 
ATOM     15  C   UNL     1      -5.953  -9.875  13.019  0.00  0.00    +0.188 C 
ATOM     16  O   UNL     1      -6.451  -9.741  13.662  0.00  0.00    -0.348 OA
ATOM     17  C   UNL     1      -7.224  -9.896  13.422  0.00  0.00    +0.168 C 
ATOM     18  C   UNL     1      -8.011  -9.910  13.671  0.00  0.00    +0.156 C 
ATOM     19  C   UNL     1      -8.477 -10.148  13.033  0.00  0.00    +0.166 C 
ATOM     20  O   UNL     1      -7.978 -10.282  12.390  0.00  0.00    -0.348 OA
ATOM     21  C   UNL     1      -7.204 -10.126  12.630  0.00  0.00    +0.186 C 
ENDROOT
BRANCH  18  22
ATOM     22  N   UNL     1      -8.284  -9.719  14.426  0.00  0.00    -0.184 NA
ATOM     23  C   UNL     1      -8.992  -9.305  14.516  0.00  0.00    +0.340 C 
ATOM     24  O   UNL     1      -9.428  -9.083  13.852  0.00  0.00    -0.249 OA
ATOM     25  N   UNL     1      -9.265  -9.114  15.271  0.00  0.00    -0.182 NA
BRANCH  25  26
ATOM     26  C   UNL     1      -9.973  -8.700  15.361  0.00  0.00    +0.143 C 
BRANCH  26  27
ATOM     27  C   UNL     1     -10.207  -8.439  16.108  0.00  0.00    -0.001 A 
ATOM     28  C   UNL     1     -10.397  -8.985  16.696  0.00  0.00    -0.003 A 
ATOM     29  C   UNL     1     -10.631  -8.723  17.442  0.00  0.00    -0.000 A 
ATOM     30  C   UNL     1     -10.674  -7.915  17.601  0.00  0.00    -0.000 A 
ATOM     31  C   UNL     1     -10.484  -7.368  17.013  0.00  0.00    -0.000 A 
ATOM     32  C   UNL     1     -10.250  -7.630  16.266  0.00  0.00    -0.003 A 
ENDBRANCH  26  27
ENDBRANCH  25  26
ENDBRANCH  18  22
BRANCH  14  13
ATOM     13  O   UNL     1      -6.145 -10.304  11.626  0.00  0.00    -0.432 OA
BRANCH  13  11
ATOM     10  N   UNL     1      -4.922 -10.312  10.888  0.00  0.00    -0.142 NA
ATOM     11  C   UNL     1      -5.501  -9.900  11.305  0.00  0.00    +0.425 C 
ATOM     12  O   UNL     1      -5.438  -9.083  11.402  0.00  0.00    -0.224 OA
BRANCH  10   9
ATOM      5  C   UNL     1      -2.892  -9.561  10.601  0.00  0.00    +0.073 A 
ATOM      6  C   UNL     1      -2.991  -9.100   9.924  0.00  0.00    +0.004 A 
ATOM      7  C   UNL     1      -3.733  -9.044   9.568  0.00  0.00    +0.001 A 
ATOM      8  C   UNL     1      -4.376  -9.448   9.889  0.00  0.00    +0.017 A 
ATOM      9  C   UNL     1      -4.278  -9.908  10.567  0.00  0.00    +0.077 A 
ATOM     33  C   UNL     1      -3.536  -9.965  10.922  0.00  0.00    +0.021 A 
BRANCH   5   2
ATOM      1  F   UNL     1      -1.408  -9.674  11.313  0.00  0.00    -0.166 F 
ATOM      2  C   UNL     1      -2.151  -9.617  10.957  0.00  0.00    +0.419 C 
ATOM      3  F   UNL     1      -2.257 -10.429  11.050  0.00  0.00    -0.166 F 
ATOM      4  F   UNL     1      -2.044  -8.804  10.865  0.00  0.00    -0.166 F 
ENDBRANCH   5   2
ENDBRANCH  10   9
ENDBRANCH  13  11
ENDBRANCH  14  13
TORSDOF 7
ENDMDL
