MODEL 1
REMARK VINA RESULT:     -15.6      0.000      0.000
REMARK  Name = 
REMARK  3 active torsions:
REMARK  status: ('A' for Active; 'I' for Inactive)
REMARK    1  A    between atoms: C_5  and  C_6
REMARK    2  A    between atoms: C_6  and  N_7
REMARK    3  A    between atoms: C_14  and  C_21
REMARK                            x       y       z     vdW  Elec       q    Type
REMARK                         _______ _______ _______ _____ _____    ______ ____
ROOT
ATOM      7  N   UNL     1      -2.039   1.643  25.012  0.00  0.00    -0.269 NA
ATOM      8  C   UNL     1      -1.282   1.290  25.032  0.00  0.00    +0.074 C 
ATOM      9  C   UNL     1      -1.539   0.341  24.931  0.00  0.00    +0.039 C 
ATOM     10  C   UNL     1      -1.583  -0.469  24.856  0.00  0.00    +0.011 C 
ATOM     11  C   UNL     1      -2.026   0.075  24.874  0.00  0.00    +0.054 C 
ATOM     12  C   UNL     1      -1.762   0.988  24.973  0.00  0.00    +0.078 C 
ATOM     13  C   UNL     1      -2.922   0.278  24.832  0.00  0.00    +0.041 A 
ATOM     14  C   UNL     1      -3.657  -0.086  24.750  0.00  0.00    +0.014 A 
ATOM     15  C   UNL     1      -4.344   0.370  24.744  0.00  0.00    +0.006 A 
ATOM     16  C   UNL     1      -4.296   1.190  24.819  0.00  0.00    +0.061 A 
ATOM     17  C   UNL     1      -3.560   1.554  24.901  0.00  0.00    +0.261 A 
ATOM     18  O   UNL     1      -3.512   2.374  24.977  0.00  0.00    -0.267 OA
ATOM     19  N   UNL     1      -2.873   1.098  24.908  0.00  0.00    -0.299 N 
ATOM     20  C   UNL     1      -2.472   0.562  24.887  0.00  0.00    +0.110 C 
ENDROOT
BRANCH  14  21
ATOM     21  C   UNL     1      -3.706  -0.906  24.674  0.00  0.00    +0.029 A 
ATOM     22  C   UNL     1      -3.546  -1.391  25.322  0.00  0.00    +0.002 A 
ATOM     23  C   UNL     1      -3.595  -2.211  25.246  0.00  0.00    +0.000 A 
ATOM     24  C   UNL     1      -3.803  -2.547  24.522  0.00  0.00    +0.002 A 
ATOM     25  C   UNL     1      -3.962  -2.063  23.874  0.00  0.00    +0.030 A 
ATOM     26  C   UNL     1      -3.914  -1.242  23.950  0.00  0.00    +0.140 A 
ATOM     27  F   UNL     1      -4.073  -0.757  23.301  0.00  0.00    -0.204 F 
ENDBRANCH  14  21
BRANCH   7   6
ATOM      6  C   UNL     1      -2.613   2.236  25.026  0.00  0.00    +0.099 C 
BRANCH   6   5
ATOM      1  F   UNL     1      -1.720   5.380  25.484  0.00  0.00    -0.204 F 
ATOM      2  C   UNL     1      -1.943   4.594  25.370  0.00  0.00    +0.140 A 
ATOM      3  C   UNL     1      -2.238   4.153  26.001  0.00  0.00    +0.029 A 
ATOM      4  C   UNL     1      -2.461   3.367  25.887  0.00  0.00    -0.001 A 
ATOM      5  C   UNL     1      -2.389   3.022  25.140  0.00  0.00    -0.006 A 
ATOM     28  C   UNL     1      -2.094   3.463  24.509  0.00  0.00    -0.001 A 
ATOM     29  C   UNL     1      -1.871   4.250  24.624  0.00  0.00    +0.029 A 
ENDBRANCH   6   5
ENDBRANCH   7   6
TORSDOF 3
ENDMDL
MODEL 2
REMARK VINA RESULT:     -15.1      1.127      4.653
REMARK  Name = 
REMARK  3 active torsions:
REMARK  status: ('A' for Active; 'I' for Inactive)
REMARK    1  A    between atoms: C_5  and  C_6
REMARK    2  A    between atoms: C_6  and  N_7
REMARK    3  A    between atoms: C_14  and  C_21
REMARK                            x       y       z     vdW  Elec       q    Type
REMARK                         _______ _______ _______ _____ _____    ______ ____
ROOT
ATOM      7  N   UNL     1      -3.232   0.730  24.717  0.00  0.00    -0.269 NA
ATOM      8  C   UNL     1      -3.918   1.090  24.403  0.00  0.00    +0.074 C 
ATOM      9  C   UNL     1      -3.641   2.037  24.443  0.00  0.00    +0.039 C 
ATOM     10  C   UNL     1      -3.566   2.848  24.410  0.00  0.00    +0.011 C 
ATOM     11  C   UNL     1      -3.179   2.299  24.615  0.00  0.00    +0.054 C 
ATOM     12  C   UNL     1      -3.461   1.388  24.569  0.00  0.00    +0.078 C 
ATOM     13  C   UNL     1      -2.359   2.089  24.973  0.00  0.00    +0.041 A 
ATOM     14  C   UNL     1      -1.664   2.447  25.234  0.00  0.00    +0.014 A 
ATOM     15  C   UNL     1      -1.047   1.984  25.528  0.00  0.00    +0.006 A 
ATOM     16  C   UNL     1      -1.126   1.163  25.560  0.00  0.00    +0.061 A 
ATOM     17  C   UNL     1      -1.822   0.805  25.299  0.00  0.00    +0.261 A 
ATOM     18  O   UNL     1      -1.901  -0.015  25.331  0.00  0.00    -0.267 OA
ATOM     19  N   UNL     1      -2.438   1.268  25.005  0.00  0.00    -0.299 N 
ATOM     20  C   UNL     1      -2.787   1.808  24.817  0.00  0.00    +0.110 C 
ENDROOT
BRANCH  14  21
ATOM     21  C   UNL     1      -1.584   3.267  25.202  0.00  0.00    +0.029 A 
ATOM     22  C   UNL     1      -2.029   3.745  25.707  0.00  0.00    +0.002 A 
ATOM     23  C   UNL     1      -1.949   4.565  25.675  0.00  0.00    +0.000 A 
ATOM     24  C   UNL     1      -1.426   4.909  25.137  0.00  0.00    +0.002 A 
ATOM     25  C   UNL     1      -0.982   4.431  24.632  0.00  0.00    +0.030 A 
ATOM     26  C   UNL     1      -1.061   3.611  24.664  0.00  0.00    +0.140 A 
ATOM     27  F   UNL     1      -0.617   3.132  24.159  0.00  0.00    -0.204 F 
ENDBRANCH  14  21
BRANCH   7   6
ATOM      6  C   UNL     1      -2.727   0.131  24.975  0.00  0.00    +0.099 C 
BRANCH   6   5
ATOM      1  F   UNL     1      -3.745  -3.009  24.950  0.00  0.00    -0.204 F 
ATOM      2  C   UNL     1      -3.490  -2.224  24.957  0.00  0.00    +0.140 A 
ATOM      3  C   UNL     1      -3.527  -1.785  25.653  0.00  0.00    +0.029 A 
ATOM      4  C   UNL     1      -3.272  -0.999  25.660  0.00  0.00    -0.001 A 
ATOM      5  C   UNL     1      -2.981  -0.654  24.969  0.00  0.00    -0.006 A 
ATOM     28  C   UNL     1      -2.945  -1.094  24.272  0.00  0.00    -0.001 A 
ATOM     29  C   UNL     1      -3.200  -1.879  24.266  0.00  0.00    +0.029 A 
ENDBRANCH   6   5
ENDBRANCH   7   6
TORSDOF 3
ENDMDL
MODEL 3
REMARK VINA RESULT:     -15.1      1.281      4.450
REMARK  Name = 
REMARK  3 active torsions:
REMARK  status: ('A' for Active; 'I' for Inactive)
REMARK    1  A    between atoms: C_5  and  C_6
REMARK    2  A    between atoms: C_6  and  N_7
REMARK    3  A    between atoms: C_14  and  C_21
REMARK                            x       y       z     vdW  Elec       q    Type
REMARK                         _______ _______ _______ _____ _____    ______ ____
ROOT
ATOM      7  N   UNL     1      -2.908   0.017  24.542  0.00  0.00    -0.269 NA
ATOM      8  C   UNL     1      -2.091   0.101  24.386  0.00  0.00    +0.074 C 
ATOM      9  C   UNL     1      -2.007   1.082  24.469  0.00  0.00    +0.039 C 
ATOM     10  C   UNL     1      -1.773   1.862  24.501  0.00  0.00    +0.011 C 
ATOM     11  C   UNL     1      -2.365   1.494  24.583  0.00  0.00    +0.054 C 
ATOM     12  C   UNL     1      -2.431   0.544  24.499  0.00  0.00    +0.078 C 
ATOM     13  C   UNL     1      -3.258   1.598  24.774  0.00  0.00    +0.041 A 
ATOM     14  C   UNL     1      -3.812   2.184  24.946  0.00  0.00    +0.014 A 
ATOM     15  C   UNL     1      -4.599   1.979  25.084  0.00  0.00    +0.006 A 
ATOM     16  C   UNL     1      -4.832   1.189  25.050  0.00  0.00    +0.061 A 
ATOM     17  C   UNL     1      -4.278   0.602  24.878  0.00  0.00    +0.261 A 
ATOM     18  O   UNL     1      -4.511  -0.189  24.845  0.00  0.00    -0.267 OA
ATOM     19  N   UNL     1      -3.491   0.807  24.740  0.00  0.00    -0.299 N 
ATOM     20  C   UNL     1      -2.941   1.181  24.667  0.00  0.00    +0.110 C 
ENDROOT
BRANCH  14  21
ATOM     21  C   UNL     1      -3.579   2.975  24.980  0.00  0.00    +0.029 A 
ATOM     22  C   UNL     1      -3.150   3.251  25.627  0.00  0.00    +0.002 A 
ATOM     23  C   UNL     1      -2.917   4.042  25.661  0.00  0.00    +0.000 A 
ATOM     24  C   UNL     1      -3.113   4.556  25.047  0.00  0.00    +0.002 A 
ATOM     25  C   UNL     1      -3.542   4.280  24.399  0.00  0.00    +0.030 A 
ATOM     26  C   UNL     1      -3.775   3.489  24.365  0.00  0.00    +0.140 A 
ATOM     27  F   UNL     1      -4.204   3.212  23.717  0.00  0.00    -0.204 F 
ENDBRANCH  14  21
BRANCH   7   6
ATOM      6  C   UNL     1      -3.636  -0.355  24.651  0.00  0.00    +0.099 C 
BRANCH   6   5
ATOM      1  F   UNL     1      -3.883  -3.629  24.320  0.00  0.00    -0.204 F 
ATOM      2  C   UNL     1      -3.822  -2.810  24.402  0.00  0.00    +0.140 A 
ATOM      3  C   UNL     1      -4.085  -2.314  23.799  0.00  0.00    +0.029 A 
ATOM      4  C   UNL     1      -4.023  -1.495  23.882  0.00  0.00    -0.001 A 
ATOM      5  C   UNL     1      -3.698  -1.173  24.569  0.00  0.00    -0.006 A 
ATOM     28  C   UNL     1      -3.435  -1.670  25.172  0.00  0.00    -0.001 A 
ATOM     29  C   UNL     1      -3.496  -2.489  25.089  0.00  0.00    +0.029 A 
ENDBRANCH   6   5
ENDBRANCH   7   6
TORSDOF 3
ENDMDL
