REMARK  Name = 
REMARK  9 active torsions:
REMARK  status: ('A' for Active; 'I' for Inactive)
REMARK    1  A    between atoms: O_2  and  C_3
REMARK    2  A    between atoms: C_8  and  C_9
REMARK    3  A    between atoms: C_9  and  N_10
REMARK    4  A    between atoms: C_11  and  C_13
REMARK    5  A    between atoms: C_13  and  C_14
REMARK    6  A    between atoms: C_20  and  C_22
REMARK    7  A    between atoms: C_24  and  O_29
REMARK    8  A    between atoms: O_29  and  C_30
REMARK    9  A    between atoms: N_32  and  C_33
REMARK                            x       y       z     vdW  Elec       q    Type
REMARK                         _______ _______ _______ _____ _____    ______ ____
ROOT
ATOM     14  C   UNL     1      -4.287   0.825   0.000  0.00  0.00    +0.040 C 
ATOM     15  C   UNL     1      -5.001   1.238   0.000  0.00  0.00    +0.152 C 
ATOM     16  O   UNL     1      -5.716   0.825   0.000  0.00  0.00    -0.223 OA
ATOM     17  C   UNL     1      -5.001   2.062   0.000  0.00  0.00    +0.033 C 
ATOM     18  C   UNL     1      -4.287   2.475   0.000  0.00  0.00    +0.003 C 
ATOM     19  C   UNL     1      -3.572   2.062   0.000  0.00  0.00    +0.006 C 
ATOM     20  C   UNL     1      -2.858   2.475   0.000  0.00  0.00    +0.068 C 
ATOM     21  C   UNL     1      -3.388   3.107   0.000  0.00  0.00    +0.006 C 
ATOM     24  C   UNL     1      -2.143   2.062   0.000  0.00  0.00    +0.173 C 
ATOM     25  C   UNL     1      -2.143   1.238   0.000  0.00  0.00    +0.044 C 
ATOM     26  C   UNL     1      -2.858   0.825   0.000  0.00  0.00    +0.004 C 
ATOM     27  C   UNL     1      -3.572   1.238   0.000  0.00  0.00    +0.003 C 
ATOM     28  C   UNL     1      -3.572   0.412   0.000  0.00  0.00    +0.000 C 
ENDROOT
BRANCH  20  22
ATOM     22  C   UNL     1      -2.328   3.107   0.000  0.00  0.00    +0.185 C 
ATOM     23  O   UNL     1      -1.515   2.964   0.000  0.00  0.00    -0.220 OA
ENDBRANCH  20  22
BRANCH  14  13
ATOM     13  C   UNL     1      -4.287   0.000   0.000  0.00  0.00    +0.089 C 
BRANCH  13  11
ATOM     10  N   UNL     1      -5.001  -1.238   0.000  0.00  0.00    -0.200 NA
ATOM     11  C   UNL     1      -5.001  -0.412   0.000  0.00  0.00    +0.242 C 
ATOM     12  O   UNL     1      -5.716   0.000   0.000  0.00  0.00    -0.273 OA
BRANCH  10   9
ATOM      9  C   UNL     1      -5.716  -1.650   0.000  0.00  0.00    +0.144 C 
BRANCH   9   8
ATOM      3  C   UNL     1      -5.001  -2.888   0.000  0.00  0.00    +0.136 A 
ATOM      4  C   UNL     1      -5.001  -3.712   0.000  0.00  0.00    +0.037 A 
ATOM      5  C   UNL     1      -5.716  -4.125   0.000  0.00  0.00    +0.003 A 
ATOM      6  C   UNL     1      -6.430  -3.712   0.000  0.00  0.00    -0.000 A 
ATOM      7  C   UNL     1      -6.430  -2.888   0.000  0.00  0.00    +0.000 A 
ATOM      8  C   UNL     1      -5.716  -2.475   0.000  0.00  0.00    +0.033 A 
BRANCH   3   2
ATOM      1  C   UNL     1      -3.572  -2.888   0.000  0.00  0.00    +0.252 C 
ATOM      2  O   UNL     1      -4.287  -2.475   0.000  0.00  0.00    -0.472 OA
ENDBRANCH   3   2
ENDBRANCH   9   8
ENDBRANCH  10   9
ENDBRANCH  13  11
ENDBRANCH  14  13
BRANCH  24  29
ATOM     29  O   UNL     1      -1.429   2.475   0.000  0.00  0.00    -0.437 OA
BRANCH  29  30
ATOM     30  C   UNL     1      -0.715   2.062   0.000  0.00  0.00    +0.421 C 
ATOM     31  O   UNL     1      -0.715   1.238   0.000  0.00  0.00    -0.225 OA
ATOM     32  N   UNL     1       0.000   2.475   0.000  0.00  0.00    -0.170 NA
BRANCH  32  33
ATOM     33  C   UNL     1       0.715   2.062   0.000  0.00  0.00    +0.099 C 
ATOM     34  C   UNL     1       1.429   2.475   0.000  0.00  0.00    +0.024 C 
ATOM     35  C   UNL     1       0.715   1.238   0.000  0.00  0.00    +0.024 C 
ENDBRANCH  32  33
ENDBRANCH  29  30
ENDBRANCH  24  29
TORSDOF 9
