MODEL 1
REMARK VINA RESULT:      -8.3      0.000      0.000
REMARK  Name = 
REMARK  6 active torsions:
REMARK  status: ('A' for Active; 'I' for Inactive)
REMARK    1  A    between atoms: C_3  and  N_17
REMARK    2  A    between atoms: C_6  and  C_7
REMARK    3  A    between atoms: C_7  and  N_8
REMARK    4  A    between atoms: C_9  and  C_11
REMARK    5  A    between atoms: N_17  and  C_18
REMARK    6  A    between atoms: C_18  and  C_19
REMARK                            x       y       z     vdW  Elec       q    Type
REMARK                         _______ _______ _______ _____ _____    ______ ____
ROOT
ATOM      1  O   UNL     1      -3.788   2.413  24.198  0.00  0.00    -0.219 OA
ATOM      2  C   UNL     1      -3.147   2.015  24.531  0.00  0.00    +0.199 C 
ATOM      3  C   UNL     1      -2.434   2.355  24.767  0.00  0.00    +0.135 C 
ATOM      4  C   UNL     1      -1.953   1.757  25.067  0.00  0.00    +0.162 C 
ATOM      5  O   UNL     1      -2.368   1.046  25.017  0.00  0.00    -0.350 OA
ATOM      6  C   UNL     1      -3.106   1.205  24.685  0.00  0.00    +0.169 C 
ENDROOT
BRANCH   6   7
ATOM      7  C   UNL     1      -3.699   0.652  24.534  0.00  0.00    +0.148 C 
BRANCH   7   8
ATOM      8  N   UNL     1      -3.520  -0.153  24.526  0.00  0.00    -0.199 NA
ATOM      9  C   UNL     1      -4.127  -0.710  24.469  0.00  0.00    +0.265 C 
ATOM     10  O   UNL     1      -4.912  -0.461  24.420  0.00  0.00    -0.268 OA
BRANCH   9  11
ATOM     11  C   UNL     1      -3.948  -1.515  24.461  0.00  0.00    +0.058 A 
ATOM     12  C   UNL     1      -4.144  -1.975  23.805  0.00  0.00    +0.025 A 
ATOM     13  C   UNL     1      -3.965  -2.781  23.798  0.00  0.00    +0.099 A 
ATOM     14  N   UNL     1      -3.589  -3.125  24.445  0.00  0.00    -0.242 NA
ATOM     15  C   UNL     1      -3.393  -2.666  25.102  0.00  0.00    +0.099 A 
ATOM     16  C   UNL     1      -3.572  -1.861  25.110  0.00  0.00    +0.025 A 
ENDBRANCH   9  11
ENDBRANCH   7   8
ENDBRANCH   6   7
BRANCH   3  17
ATOM     17  N   UNL     1      -2.237   3.155  24.712  0.00  0.00    -0.208 NA
BRANCH  17  18
ATOM     18  C   UNL     1      -1.656   3.471  25.205  0.00  0.00    +0.136 C 
BRANCH  18  19
ATOM     19  C   UNL     1      -1.407   4.251  25.102  0.00  0.00    +0.097 A 
ATOM     20  C   UNL     1      -0.676   4.490  24.802  0.00  0.00    +0.117 A 
ATOM     21  N   UNL     1      -0.662   5.315  24.795  0.00  0.00    -0.221 NA
ATOM     22  C   UNL     1      -1.384   5.585  25.090  0.00  0.00    +0.199 A 
ATOM     23  N   UNL     1      -1.844   4.927  25.280  0.00  0.00    -0.225 NA
ENDBRANCH  18  19
ENDBRANCH  17  18
ENDBRANCH   3  17
TORSDOF 6
ENDMDL
MODEL 2
REMARK VINA RESULT:      -7.8      1.034      5.954
REMARK  Name = 
REMARK  6 active torsions:
REMARK  status: ('A' for Active; 'I' for Inactive)
REMARK    1  A    between atoms: C_3  and  N_17
REMARK    2  A    between atoms: C_6  and  C_7
REMARK    3  A    between atoms: C_7  and  N_8
REMARK    4  A    between atoms: C_9  and  C_11
REMARK    5  A    between atoms: N_17  and  C_18
REMARK    6  A    between atoms: C_18  and  C_19
REMARK                            x       y       z     vdW  Elec       q    Type
REMARK                         _______ _______ _______ _____ _____    ______ ____
ROOT
ATOM      1  O   UNL     1      -1.281  -0.051  25.609  0.00  0.00    -0.219 OA
ATOM      2  C   UNL     1      -1.872   0.338  25.185  0.00  0.00    +0.199 C 
ATOM      3  C   UNL     1      -2.513  -0.018  24.808  0.00  0.00    +0.135 C 
ATOM      4  C   UNL     1      -2.963   0.575  24.455  0.00  0.00    +0.162 C 
ATOM      5  O   UNL     1      -2.601   1.299  24.613  0.00  0.00    -0.350 OA
ATOM      6  C   UNL     1      -1.926   1.153  25.065  0.00  0.00    +0.169 C 
ENDROOT
BRANCH   6   7
ATOM      7  C   UNL     1      -1.399   1.721  25.346  0.00  0.00    +0.148 C 
BRANCH   7   8
ATOM      8  N   UNL     1      -1.519   2.518  25.172  0.00  0.00    -0.199 NA
ATOM      9  C   UNL     1      -1.045   3.094  25.525  0.00  0.00    +0.265 C 
ATOM     10  O   UNL     1      -0.449   2.871  26.050  0.00  0.00    -0.268 OA
BRANCH   9  11
ATOM     11  C   UNL     1      -1.165   3.891  25.351  0.00  0.00    +0.058 A 
ATOM     12  C   UNL     1      -0.610   4.305  24.902  0.00  0.00    +0.025 A 
ATOM     13  C   UNL     1      -0.731   5.102  24.728  0.00  0.00    +0.099 A 
ATOM     14  N   UNL     1      -1.407   5.486  25.003  0.00  0.00    -0.242 NA
ATOM     15  C   UNL     1      -1.963   5.073  25.452  0.00  0.00    +0.099 A 
ATOM     16  C   UNL     1      -1.842   4.275  25.625  0.00  0.00    +0.025 A 
ENDBRANCH   9  11
ENDBRANCH   7   8
ENDBRANCH   6   7
BRANCH   3  17
ATOM     17  N   UNL     1      -2.676  -0.827  24.789  0.00  0.00    -0.208 NA
BRANCH  17  18
ATOM     18  C   UNL     1      -3.451  -1.089  24.685  0.00  0.00    +0.136 C 
BRANCH  18  19
ATOM     19  C   UNL     1      -3.600  -1.888  24.541  0.00  0.00    +0.097 A 
ATOM     20  C   UNL     1      -4.030  -2.194  23.906  0.00  0.00    +0.117 A 
ATOM     21  N   UNL     1      -4.042  -3.016  23.979  0.00  0.00    -0.221 NA
ATOM     22  C   UNL     1      -3.618  -3.218  24.658  0.00  0.00    +0.199 A 
ATOM     23  N   UNL     1      -3.346  -2.520  25.005  0.00  0.00    -0.225 NA
ENDBRANCH  18  19
ENDBRANCH  17  18
ENDBRANCH   3  17
TORSDOF 6
ENDMDL
MODEL 3
REMARK VINA RESULT:      -7.1      2.917      4.318
REMARK  Name = 
REMARK  6 active torsions:
REMARK  status: ('A' for Active; 'I' for Inactive)
REMARK    1  A    between atoms: C_3  and  N_17
REMARK    2  A    between atoms: C_6  and  C_7
REMARK    3  A    between atoms: C_7  and  N_8
REMARK    4  A    between atoms: C_9  and  C_11
REMARK    5  A    between atoms: N_17  and  C_18
REMARK    6  A    between atoms: C_18  and  C_19
REMARK                            x       y       z     vdW  Elec       q    Type
REMARK                         _______ _______ _______ _____ _____    ______ ____
ROOT
ATOM      1  O   UNL     1      -0.928   2.615  23.579  0.00  0.00    -0.219 OA
ATOM      2  C   UNL     1      -1.239   1.910  23.873  0.00  0.00    +0.199 C 
ATOM      3  C   UNL     1      -0.839   1.191  23.935  0.00  0.00    +0.135 C 
ATOM      4  C   UNL     1      -1.359   0.637  24.256  0.00  0.00    +0.162 C 
ATOM      5  O   UNL     1      -2.080   1.013  24.392  0.00  0.00    -0.350 OA
ATOM      6  C   UNL     1      -2.007   1.799  24.155  0.00  0.00    +0.169 C 
ENDROOT
BRANCH   6   7
ATOM      7  C   UNL     1      -2.597   2.374  24.194  0.00  0.00    +0.148 C 
BRANCH   7   8
ATOM      8  N   UNL     1      -3.308   2.210  24.577  0.00  0.00    -0.199 NA
ATOM      9  C   UNL     1      -3.935   2.745  24.532  0.00  0.00    +0.265 C 
ATOM     10  O   UNL     1      -3.849   3.444  24.102  0.00  0.00    -0.268 OA
BRANCH   9  11
ATOM     11  C   UNL     1      -4.647   2.580  24.915  0.00  0.00    +0.058 A 
ATOM     12  C   UNL     1      -5.160   2.012  24.607  0.00  0.00    +0.025 A 
ATOM     13  C   UNL     1      -5.872   1.848  24.991  0.00  0.00    +0.099 A 
ATOM     14  N   UNL     1      -6.070   2.251  25.682  0.00  0.00    -0.242 NA
ATOM     15  C   UNL     1      -5.558   2.819  25.990  0.00  0.00    +0.099 A 
ATOM     16  C   UNL     1      -4.846   2.984  25.607  0.00  0.00    +0.025 A 
ENDBRANCH   9  11
ENDBRANCH   7   8
ENDBRANCH   6   7
BRANCH   3  17
ATOM     17  N   UNL     1      -0.056   1.052  23.715  0.00  0.00    -0.208 NA
BRANCH  17  18
ATOM     18  C   UNL     1       0.190   0.286  23.531  0.00  0.00    +0.136 C 
BRANCH  18  19
ATOM     19  C   UNL     1       0.905   0.167  23.136  0.00  0.00    +0.097 A 
ATOM     20  C   UNL     1       1.012  -0.277  22.449  0.00  0.00    +0.117 A 
ATOM     21  N   UNL     1       1.812  -0.248  22.248  0.00  0.00    -0.221 NA
ATOM     22  C   UNL     1       2.199   0.214  22.812  0.00  0.00    +0.199 A 
ATOM     23  N   UNL     1       1.639   0.471  23.360  0.00  0.00    -0.225 NA
ENDBRANCH  18  19
ENDBRANCH  17  18
ENDBRANCH   3  17
TORSDOF 6
ENDMDL
MODEL 4
REMARK VINA RESULT:      -5.8     14.577     16.929
REMARK  Name = 
REMARK  6 active torsions:
REMARK  status: ('A' for Active; 'I' for Inactive)
REMARK    1  A    between atoms: C_3  and  N_17
REMARK    2  A    between atoms: C_6  and  C_7
REMARK    3  A    between atoms: C_7  and  N_8
REMARK    4  A    between atoms: C_9  and  C_11
REMARK    5  A    between atoms: N_17  and  C_18
REMARK    6  A    between atoms: C_18  and  C_19
REMARK                            x       y       z     vdW  Elec       q    Type
REMARK                         _______ _______ _______ _____ _____    ______ ____
ROOT
ATOM      1  O   UNL     1      -2.877 -10.698  14.110  0.00  0.00    -0.219 OA
ATOM      2  C   UNL     1      -3.658 -10.571  13.879  0.00  0.00    +0.199 C 
ATOM      3  C   UNL     1      -4.315 -10.554  14.377  0.00  0.00    +0.135 C 
ATOM      4  C   UNL     1      -4.983 -10.411  13.914  0.00  0.00    +0.162 C 
ATOM      5  O   UNL     1      -4.738 -10.339  13.129  0.00  0.00    -0.350 OA
ATOM      6  C   UNL     1      -3.920 -10.438  13.107  0.00  0.00    +0.169 C 
ENDROOT
BRANCH   6   7
ATOM      7  C   UNL     1      -3.446 -10.410  12.433  0.00  0.00    +0.148 C 
BRANCH   7   8
ATOM      8  N   UNL     1      -3.772 -10.185  11.709  0.00  0.00    -0.199 NA
ATOM      9  C   UNL     1      -3.296 -10.147  11.036  0.00  0.00    +0.265 C 
ATOM     10  O   UNL     1      -2.494 -10.334  11.088  0.00  0.00    -0.268 OA
BRANCH   9  11
ATOM     11  C   UNL     1      -3.622  -9.923  10.312  0.00  0.00    +0.058 A 
ATOM     12  C   UNL     1      -3.600  -9.133  10.077  0.00  0.00    +0.025 A 
ATOM     13  C   UNL     1      -3.926  -8.908   9.353  0.00  0.00    +0.099 A 
ATOM     14  N   UNL     1      -4.274  -9.474   8.865  0.00  0.00    -0.242 NA
ATOM     15  C   UNL     1      -4.297 -10.265   9.100  0.00  0.00    +0.099 A 
ATOM     16  C   UNL     1      -3.971 -10.489   9.823  0.00  0.00    +0.025 A 
ENDBRANCH   9  11
ENDBRANCH   7   8
ENDBRANCH   6   7
BRANCH   3  17
ATOM     17  N   UNL     1      -4.306 -10.661  15.195  0.00  0.00    -0.208 NA
BRANCH  17  18
ATOM     18  C   UNL     1      -4.979 -10.487  15.641  0.00  0.00    +0.136 C 
BRANCH  18  19
ATOM     19  C   UNL     1      -4.972 -10.603  16.458  0.00  0.00    +0.097 A 
ATOM     20  C   UNL     1      -5.637 -10.672  16.943  0.00  0.00    +0.117 A 
ATOM     21  N   UNL     1      -5.376 -10.781  17.718  0.00  0.00    -0.221 NA
ATOM     22  C   UNL     1      -4.551 -10.780  17.712  0.00  0.00    +0.199 A 
ATOM     23  N   UNL     1      -4.301 -10.670  16.933  0.00  0.00    -0.225 NA
ENDBRANCH  18  19
ENDBRANCH  17  18
ENDBRANCH   3  17
TORSDOF 6
ENDMDL
