REMARK  Name = 
REMARK  7 active torsions:
REMARK  status: ('A' for Active; 'I' for Inactive)
REMARK    1  A    between atoms: O_2  and  C_3
REMARK    2  A    between atoms: C_6  and  C_7
REMARK    3  A    between atoms: C_7  and  N_8
REMARK    4  A    between atoms: C_11  and  C_13
REMARK    5  A    between atoms: C_16  and  C_17
REMARK    6  A    between atoms: C_17  and  O_18
REMARK    7  A    between atoms: O_18  and  C_19
REMARK                            x       y       z     vdW  Elec       q    Type
REMARK                         _______ _______ _______ _____ _____    ______ ____
ROOT
ATOM      8  N   UNL     1       2.739  -4.278   0.000  0.00  0.00    -0.268 NA
ATOM      9  C   UNL     1       3.406  -4.763   0.000  0.00  0.00    +0.073 C 
ATOM     10  C   UNL     1       3.151  -5.548   0.000  0.00  0.00    +0.028 C 
ATOM     11  C   UNL     1       2.326  -5.548   0.000  0.00  0.00    +0.096 C 
ATOM     12  C   UNL     1       2.071  -4.763   0.000  0.00  0.00    +0.082 C 
ENDROOT
BRANCH  11  13
ATOM     13  C   UNL     1       1.841  -6.215   0.000  0.00  0.00    +0.227 A 
ATOM     14  N   UNL     1       2.096  -7.000   0.000  0.00  0.00    -0.112 NA
ATOM     15  N   UNL     1       1.429  -7.484   0.000  0.00  0.00    -0.108 NA
ATOM     16  C   UNL     1       0.761  -7.000   0.000  0.00  0.00    +0.270 A 
ATOM     26  O   UNL     1       1.016  -6.215   0.000  0.00  0.00    -0.420 OA
BRANCH  16  17
ATOM     17  C   UNL     1      -0.023  -7.255   0.000  0.00  0.00    +0.291 C 
BRANCH  17  18
ATOM     18  O   UNL     1      -0.195  -8.062   0.000  0.00  0.00    -0.465 OA
BRANCH  18  19
ATOM     19  C   UNL     1      -0.979  -8.316   0.000  0.00  0.00    +0.139 A 
ATOM     20  C   UNL     1      -1.151  -9.123   0.000  0.00  0.00    +0.039 A 
ATOM     21  C   UNL     1      -1.935  -9.378   0.000  0.00  0.00    +0.033 A 
ATOM     22  C   UNL     1      -2.549  -8.826   0.000  0.00  0.00    +0.140 A 
ATOM     23  F   UNL     1      -3.333  -9.081   0.000  0.00  0.00    -0.204 F 
ATOM     24  C   UNL     1      -2.377  -8.019   0.000  0.00  0.00    +0.033 A 
ATOM     25  C   UNL     1      -1.592  -7.764   0.000  0.00  0.00    +0.039 A 
ENDBRANCH  18  19
ENDBRANCH  17  18
ENDBRANCH  16  17
ENDBRANCH  11  13
BRANCH   8   7
ATOM      7  C   UNL     1       2.739  -3.453   0.000  0.00  0.00    +0.099 C 
BRANCH   7   6
ATOM      3  C   UNL     1       4.882  -2.216   0.000  0.00  0.00    +0.139 A 
ATOM      4  C   UNL     1       4.882  -3.041   0.000  0.00  0.00    +0.037 A 
ATOM      5  C   UNL     1       4.168  -3.453   0.000  0.00  0.00    +0.000 A 
ATOM      6  C   UNL     1       3.453  -3.041   0.000  0.00  0.00    -0.006 A 
ATOM     27  C   UNL     1       3.453  -2.216   0.000  0.00  0.00    +0.000 A 
ATOM     28  C   UNL     1       4.168  -1.803   0.000  0.00  0.00    +0.037 A 
BRANCH   3   2
ATOM      1  C   UNL     1       5.597  -0.978   0.000  0.00  0.00    +0.252 C 
ATOM      2  O   UNL     1       5.597  -1.803   0.000  0.00  0.00    -0.471 OA
ENDBRANCH   3   2
ENDBRANCH   7   6
ENDBRANCH   8   7
TORSDOF 7
