REMARK  Name = 
REMARK  5 active torsions:
REMARK  status: ('A' for Active; 'I' for Inactive)
REMARK    1  A    between atoms: C_2  and  C_4
REMARK    2  A    between atoms: C_7  and  C_8
REMARK    3  A    between atoms: C_8  and  N_9
REMARK    4  A    between atoms: C_14  and  C_15
REMARK    5  A    between atoms: C_17  and  C_20
REMARK                            x       y       z     vdW  Elec       q    Type
REMARK                         _______ _______ _______ _____ _____    ______ ____
ROOT
ATOM      9  N   UNL     1       0.000   0.000   0.000  0.00  0.00    -0.260 NA
ATOM     10  C   UNL     1       0.000   0.825   0.000  0.00  0.00    +0.105 C 
ATOM     11  C   UNL     1       0.715   1.238   0.000  0.00  0.00    +0.160 C 
ATOM     12  O   UNL     1       1.429   0.825   0.000  0.00  0.00    -0.350 OA
ATOM     13  C   UNL     1       1.429   0.000   0.000  0.00  0.00    +0.166 C 
ATOM     14  C   UNL     1       0.715  -0.412   0.000  0.00  0.00    +0.147 C 
ENDROOT
BRANCH  14  15
ATOM     15  C   UNL     1       0.715  -1.238   0.000  0.00  0.00    +0.156 A 
ATOM     16  N   UNL     1       1.382  -1.722   0.000  0.00  0.00    -0.228 NA
ATOM     17  C   UNL     1       1.127  -2.507   0.000  0.00  0.00    +0.102 A 
ATOM     18  C   UNL     1       0.302  -2.507   0.000  0.00  0.00    +0.119 A 
ATOM     19  N   UNL     1       0.047  -1.722   0.000  0.00  0.00    -0.226 NA
BRANCH  17  20
ATOM     20  C   UNL     1       1.612  -3.175   0.000  0.00  0.00    +0.019 A 
ATOM     21  C   UNL     1       2.432  -3.088   0.000  0.00  0.00    +0.002 A 
ATOM     22  C   UNL     1       2.917  -3.756   0.000  0.00  0.00    +0.011 A 
ATOM     23  C   UNL     1       2.582  -4.509   0.000  0.00  0.00    +0.058 A 
ATOM     24 CL   UNL     1       3.067  -5.177   0.000  0.00  0.00    -0.082 Cl
ATOM     25  C   UNL     1       1.761  -4.596   0.000  0.00  0.00    +0.011 A 
ATOM     26  C   UNL     1       1.276  -3.928   0.000  0.00  0.00    +0.002 A 
ENDBRANCH  17  20
ENDBRANCH  14  15
BRANCH   9   8
ATOM      8  C   UNL     1      -0.715  -0.412   0.000  0.00  0.00    +0.100 C 
BRANCH   8   7
ATOM      4  C   UNL     1      -2.858   0.825   0.000  0.00  0.00    +0.080 A 
ATOM      5  C   UNL     1      -2.143   1.238   0.000  0.00  0.00    +0.006 A 
ATOM      6  C   UNL     1      -1.429   0.825   0.000  0.00  0.00    -0.003 A 
ATOM      7  C   UNL     1      -1.429   0.000   0.000  0.00  0.00    -0.006 A 
ATOM     27  C   UNL     1      -2.143  -0.412   0.000  0.00  0.00    -0.003 A 
ATOM     28  C   UNL     1      -2.858   0.000   0.000  0.00  0.00    +0.006 A 
BRANCH   4   2
ATOM      1  O   UNL     1      -4.287   0.825   0.000  0.00  0.00    -0.241 OA
ATOM      2  C   UNL     1      -3.572   1.238   0.000  0.00  0.00    +0.388 C 
ATOM      3  O   UNL     1      -3.572   2.062   0.000  0.00  0.00    -0.241 OA
ENDBRANCH   4   2
ENDBRANCH   8   7
ENDBRANCH   9   8
TORSDOF 5
