MODEL 1
REMARK VINA RESULT:     -11.4      0.000      0.000
REMARK  Name = 
REMARK  5 active torsions:
REMARK  status: ('A' for Active; 'I' for Inactive)
REMARK    1  A    between atoms: S_2  and  N_4
REMARK    2  A    between atoms: S_2  and  C_24
REMARK    3  A    between atoms: N_4  and  C_5
REMARK    4  A    between atoms: C_9  and  N_13
REMARK    5  A    between atoms: C_17  and  C_18
REMARK                            x       y       z     vdW  Elec       q    Type
REMARK                         _______ _______ _______ _____ _____    ______ ____
ROOT
ATOM      5  C   UNL     1      -3.881   0.493  24.315  0.00  0.00    +0.157 C 
ATOM      6  C   UNL     1      -4.283   0.349  25.021  0.00  0.00    +0.164 C 
ATOM      7  O   UNL     1      -4.544   1.073  25.317  0.00  0.00    -0.350 OA
ATOM      8  C   UNL     1      -4.304   1.665  24.795  0.00  0.00    +0.169 C 
ATOM      9  C   UNL     1      -4.316   2.477  24.655  0.00  0.00    +0.167 C 
ATOM     10  C   UNL     1      -3.913   2.621  23.949  0.00  0.00    +0.169 C 
ATOM     11  O   UNL     1      -3.652   1.897  23.653  0.00  0.00    -0.350 OA
ATOM     12  C   UNL     1      -3.893   1.306  24.176  0.00  0.00    +0.164 C 
ENDROOT
BRANCH   9  13
ATOM     13  N   UNL     1      -4.669   3.047  25.137  0.00  0.00    -0.210 N 
ATOM     14  N   UNL     1      -5.475   3.110  25.304  0.00  0.00    -0.043 NA
ATOM     15  N   UNL     1      -5.581   3.755  25.806  0.00  0.00    -0.023 NA
ATOM     16  N   UNL     1      -4.842   4.091  25.949  0.00  0.00    -0.108 NA
ATOM     17  C   UNL     1      -4.278   3.654  25.536  0.00  0.00    +0.184 A 
BRANCH  17  18
ATOM     18  C   UNL     1      -3.466   3.798  25.524  0.00  0.00    +0.037 A 
ATOM     19  C   UNL     1      -2.983   3.491  26.119  0.00  0.00    +0.003 A 
ATOM     20  C   UNL     1      -2.171   3.636  26.107  0.00  0.00    +0.000 A 
ATOM     21  C   UNL     1      -1.841   4.087  25.500  0.00  0.00    +0.000 A 
ATOM     22  C   UNL     1      -2.324   4.394  24.905  0.00  0.00    +0.000 A 
ATOM     23  C   UNL     1      -3.136   4.249  24.917  0.00  0.00    +0.003 A 
ENDBRANCH  17  18
ENDBRANCH   9  13
BRANCH   5   4
ATOM      4  N   UNL     1      -3.528  -0.076  23.834  0.00  0.00    -0.074 NA
BRANCH   4   2
ATOM      1  O   UNL     1      -2.781  -0.733  24.445  0.00  0.00    -0.151 OA
ATOM      2  S   UNL     1      -3.506  -0.865  24.075  0.00  0.00    +0.083 S 
ATOM      3  O   UNL     1      -4.231  -0.999  23.704  0.00  0.00    -0.151 OA
BRANCH   2  24
ATOM     24  C   UNL     1      -3.484  -1.654  24.316  0.00  0.00    +0.153 A 
ATOM     25  C   UNL     1      -3.997  -2.251  24.069  0.00  0.00    +0.027 A 
ATOM     26  C   UNL     1      -3.775  -2.950  24.447  0.00  0.00    +0.009 A 
ATOM     27  C   UNL     1      -3.126  -2.786  24.927  0.00  0.00    +0.037 A 
ATOM     28  S   UNL     1      -2.946  -1.984  24.847  0.00  0.00    -0.067 S 
ENDBRANCH   2  24
ENDBRANCH   4   2
ENDBRANCH   5   4
TORSDOF 5
ENDMDL
MODEL 2
REMARK VINA RESULT:     -10.4      3.025      5.348
REMARK  Name = 
REMARK  5 active torsions:
REMARK  status: ('A' for Active; 'I' for Inactive)
REMARK    1  A    between atoms: S_2  and  N_4
REMARK    2  A    between atoms: S_2  and  C_24
REMARK    3  A    between atoms: N_4  and  C_5
REMARK    4  A    between atoms: C_9  and  N_13
REMARK    5  A    between atoms: C_17  and  C_18
REMARK                            x       y       z     vdW  Elec       q    Type
REMARK                         _______ _______ _______ _____ _____    ______ ____
ROOT
ATOM      5  C   UNL     1      -0.457   1.293  25.138  0.00  0.00    +0.157 C 
ATOM      6  C   UNL     1      -0.413   1.189  24.321  0.00  0.00    +0.164 C 
ATOM      7  O   UNL     1      -0.720   0.444  24.143  0.00  0.00    -0.350 OA
ATOM      8  C   UNL     1      -0.954   0.088  24.848  0.00  0.00    +0.169 C 
ATOM      9  C   UNL     1      -1.288  -0.591  25.176  0.00  0.00    +0.167 C 
ATOM     10  C   UNL     1      -1.332  -0.487  25.993  0.00  0.00    +0.169 C 
ATOM     11  O   UNL     1      -1.025   0.257  26.171  0.00  0.00    -0.350 OA
ATOM     12  C   UNL     1      -0.791   0.613  25.464  0.00  0.00    +0.164 C 
ENDROOT
BRANCH   9  13
ATOM     13  N   UNL     1      -1.535  -1.259  24.758  0.00  0.00    -0.210 N 
ATOM     14  N   UNL     1      -1.044  -1.833  24.425  0.00  0.00    -0.043 NA
ATOM     15  N   UNL     1      -1.522  -2.398  24.062  0.00  0.00    -0.023 NA
ATOM     16  N   UNL     1      -2.308  -2.174  24.169  0.00  0.00    -0.108 NA
ATOM     17  C   UNL     1      -2.316  -1.470  24.599  0.00  0.00    +0.184 A 
BRANCH  17  18
ATOM     18  C   UNL     1      -2.989  -1.050  24.830  0.00  0.00    +0.037 A 
ATOM     19  C   UNL     1      -3.295  -1.147  25.590  0.00  0.00    +0.003 A 
ATOM     20  C   UNL     1      -3.966  -0.728  25.821  0.00  0.00    +0.000 A 
ATOM     21  C   UNL     1      -4.333  -0.211  25.291  0.00  0.00    +0.000 A 
ATOM     22  C   UNL     1      -4.026  -0.115  24.531  0.00  0.00    +0.000 A 
ATOM     23  C   UNL     1      -3.354  -0.534  24.301  0.00  0.00    +0.003 A 
ENDBRANCH  17  18
ENDBRANCH   9  13
BRANCH   5   4
ATOM      4  N   UNL     1      -0.210   1.960  25.556  0.00  0.00    -0.074 NA
BRANCH   4   2
ATOM      1  O   UNL     1      -0.937   2.631  26.175  0.00  0.00    -0.151 OA
ATOM      2  S   UNL     1      -0.582   2.686  25.432  0.00  0.00    +0.083 S 
ATOM      3  O   UNL     1      -0.228   2.742  24.689  0.00  0.00    -0.151 OA
BRANCH   2  24
ATOM     24  C   UNL     1      -0.954   3.412  25.309  0.00  0.00    +0.153 A 
ATOM     25  C   UNL     1      -1.731   3.600  25.515  0.00  0.00    +0.027 A 
ATOM     26  C   UNL     1      -1.872   4.381  25.292  0.00  0.00    +0.009 A 
ATOM     27  C   UNL     1      -1.184   4.676  24.947  0.00  0.00    +0.037 A 
ATOM     28  S   UNL     1      -0.616   4.077  24.958  0.00  0.00    -0.067 S 
ENDBRANCH   2  24
ENDBRANCH   4   2
ENDBRANCH   5   4
TORSDOF 5
ENDMDL
MODEL 3
REMARK VINA RESULT:     -10.3      2.137      4.937
REMARK  Name = 
REMARK  5 active torsions:
REMARK  status: ('A' for Active; 'I' for Inactive)
REMARK    1  A    between atoms: S_2  and  N_4
REMARK    2  A    between atoms: S_2  and  C_24
REMARK    3  A    between atoms: N_4  and  C_5
REMARK    4  A    between atoms: C_9  and  N_13
REMARK    5  A    between atoms: C_17  and  C_18
REMARK                            x       y       z     vdW  Elec       q    Type
REMARK                         _______ _______ _______ _____ _____    ______ ____
ROOT
ATOM      5  C   UNL     1      -2.910   1.848  24.367  0.00  0.00    +0.157 C 
ATOM      6  C   UNL     1      -2.470   1.982  25.052  0.00  0.00    +0.164 C 
ATOM      7  O   UNL     1      -1.980   1.330  25.171  0.00  0.00    -0.350 OA
ATOM      8  C   UNL     1      -2.116   0.793  24.560  0.00  0.00    +0.169 C 
ATOM      9  C   UNL     1      -1.898   0.058  24.255  0.00  0.00    +0.167 C 
ATOM     10  C   UNL     1      -2.337  -0.075  23.570  0.00  0.00    +0.169 C 
ATOM     11  O   UNL     1      -2.828   0.577  23.451  0.00  0.00    -0.350 OA
ATOM     12  C   UNL     1      -2.691   1.114  24.063  0.00  0.00    +0.164 C 
ENDROOT
BRANCH   9  13
ATOM     13  N   UNL     1      -1.337  -0.454  24.579  0.00  0.00    -0.210 N 
ATOM     14  N   UNL     1      -0.525  -0.314  24.631  0.00  0.00    -0.043 NA
ATOM     15  N   UNL     1      -0.177  -0.969  24.992  0.00  0.00    -0.023 NA
ATOM     16  N   UNL     1      -0.773  -1.513  25.162  0.00  0.00    -0.108 NA
ATOM     17  C   UNL     1      -1.490  -1.194  24.907  0.00  0.00    +0.184 A 
BRANCH  17  18
ATOM     18  C   UNL     1      -2.230  -1.554  24.970  0.00  0.00    +0.037 A 
ATOM     19  C   UNL     1      -2.699  -1.421  25.636  0.00  0.00    +0.003 A 
ATOM     20  C   UNL     1      -3.438  -1.781  25.698  0.00  0.00    +0.000 A 
ATOM     21  C   UNL     1      -3.710  -2.274  25.094  0.00  0.00    +0.000 A 
ATOM     22  C   UNL     1      -3.240  -2.407  24.429  0.00  0.00    +0.000 A 
ATOM     23  C   UNL     1      -2.501  -2.047  24.367  0.00  0.00    +0.003 A 
ENDBRANCH  17  18
ENDBRANCH   9  13
BRANCH   5   4
ATOM      4  N   UNL     1      -3.470   2.360  24.043  0.00  0.00    -0.074 NA
BRANCH   4   2
ATOM      1  O   UNL     1      -4.576   2.049  24.250  0.00  0.00    -0.151 OA
ATOM      2  S   UNL     1      -4.081   2.655  24.514  0.00  0.00    +0.083 S 
ATOM      3  O   UNL     1      -3.587   3.261  24.778  0.00  0.00    -0.151 OA
BRANCH   2  24
ATOM     24  C   UNL     1      -4.692   2.949  24.983  0.00  0.00    +0.153 A 
ATOM     25  C   UNL     1      -5.350   2.524  25.245  0.00  0.00    +0.027 A 
ATOM     26  C   UNL     1      -5.817   3.031  25.697  0.00  0.00    +0.009 A 
ATOM     27  C   UNL     1      -5.450   3.769  25.716  0.00  0.00    +0.037 A 
ATOM     28  S   UNL     1      -4.754   3.718  25.274  0.00  0.00    -0.067 S 
ENDBRANCH   2  24
ENDBRANCH   4   2
ENDBRANCH   5   4
TORSDOF 5
ENDMDL
MODEL 4
REMARK VINA RESULT:     -10.3      1.761      2.206
REMARK  Name = 
REMARK  5 active torsions:
REMARK  status: ('A' for Active; 'I' for Inactive)
REMARK    1  A    between atoms: S_2  and  N_4
REMARK    2  A    between atoms: S_2  and  C_24
REMARK    3  A    between atoms: N_4  and  C_5
REMARK    4  A    between atoms: C_9  and  N_13
REMARK    5  A    between atoms: C_17  and  C_18
REMARK                            x       y       z     vdW  Elec       q    Type
REMARK                         _______ _______ _______ _____ _____    ______ ____
ROOT
ATOM      5  C   UNL     1      -3.166   0.473  24.602  0.00  0.00    +0.157 C 
ATOM      6  C   UNL     1      -2.454   0.228  24.939  0.00  0.00    +0.164 C 
ATOM      7  O   UNL     1      -1.912   0.846  24.865  0.00  0.00    -0.350 OA
ATOM      8  C   UNL     1      -2.288   1.472  24.483  0.00  0.00    +0.169 C 
ATOM      9  C   UNL     1      -2.187   2.240  24.201  0.00  0.00    +0.167 C 
ATOM     10  C   UNL     1      -2.899   2.486  23.865  0.00  0.00    +0.169 C 
ATOM     11  O   UNL     1      -3.441   1.868  23.939  0.00  0.00    -0.350 OA
ATOM     12  C   UNL     1      -3.064   1.242  24.321  0.00  0.00    +0.164 C 
ENDROOT
BRANCH   9  13
ATOM     13  N   UNL     1      -1.494   2.686  24.248  0.00  0.00    -0.210 N 
ATOM     14  N   UNL     1      -0.793   2.538  23.838  0.00  0.00    -0.043 NA
ATOM     15  N   UNL     1      -0.246   3.118  24.050  0.00  0.00    -0.023 NA
ATOM     16  N   UNL     1      -0.609   3.625  24.589  0.00  0.00    -0.108 NA
ATOM     17  C   UNL     1      -1.380   3.358  24.712  0.00  0.00    +0.184 A 
BRANCH  17  18
ATOM     18  C   UNL     1      -1.939   3.704  25.211  0.00  0.00    +0.037 A 
ATOM     19  C   UNL     1      -1.956   3.505  26.012  0.00  0.00    +0.003 A 
ATOM     20  C   UNL     1      -2.515   3.850  26.511  0.00  0.00    +0.000 A 
ATOM     21  C   UNL     1      -3.057   4.394  26.209  0.00  0.00    +0.000 A 
ATOM     22  C   UNL     1      -3.040   4.593  25.408  0.00  0.00    +0.000 A 
ATOM     23  C   UNL     1      -2.481   4.247  24.910  0.00  0.00    +0.003 A 
ENDBRANCH  17  18
ENDBRANCH   9  13
BRANCH   5   4
ATOM      4  N   UNL     1      -3.859   0.028  24.556  0.00  0.00    -0.074 NA
BRANCH   4   2
ATOM      1  O   UNL     1      -3.794  -0.779  23.715  0.00  0.00    -0.151 OA
ATOM      2  S   UNL     1      -3.820  -0.796  24.540  0.00  0.00    +0.083 S 
ATOM      3  O   UNL     1      -3.845  -0.814  25.364  0.00  0.00    -0.151 OA
BRANCH   2  24
ATOM     24  C   UNL     1      -3.780  -1.620  24.523  0.00  0.00    +0.153 A 
ATOM     25  C   UNL     1      -3.463  -2.103  25.113  0.00  0.00    +0.027 A 
ATOM     26  C   UNL     1      -3.538  -2.887  24.868  0.00  0.00    +0.009 A 
ATOM     27  C   UNL     1      -3.901  -2.890  24.128  0.00  0.00    +0.037 A 
ATOM     28  S   UNL     1      -4.051  -2.106  23.914  0.00  0.00    -0.067 S 
ENDBRANCH   2  24
ENDBRANCH   4   2
ENDBRANCH   5   4
TORSDOF 5
ENDMDL
