MODEL 1
REMARK VINA RESULT:      -9.6      0.000      0.000
REMARK  Name = 
REMARK  6 active torsions:
REMARK  status: ('A' for Active; 'I' for Inactive)
REMARK    1  A    between atoms: S_2  and  N_5
REMARK    2  A    between atoms: N_5  and  C_6
REMARK    3  A    between atoms: C_6  and  C_7
REMARK    4  A    between atoms: C_9  and  C_10
REMARK    5  A    between atoms: C_10  and  C_11
REMARK    6  A    between atoms: N_16  and  C_19
REMARK                            x       y       z     vdW  Elec       q    Type
REMARK                         _______ _______ _______ _____ _____    ______ ____
ROOT
ATOM     10  C   UNL     1      -4.397   2.267  25.001  0.00  0.00    +0.117 C 
ENDROOT
BRANCH  10  11
ATOM     11  C   UNL     1      -4.071   1.871  24.354  0.00  0.00    +0.228 C 
ATOM     12  O   UNL     1      -3.818   2.298  23.695  0.00  0.00    -0.275 OA
ATOM     13  N   UNL     1      -3.998   1.050  24.367  0.00  0.00    -0.276 N 
ATOM     14  C   UNL     1      -3.673   0.654  23.720  0.00  0.00    +0.115 C 
ATOM     15  C   UNL     1      -3.600  -0.167  23.733  0.00  0.00    +0.114 C 
ATOM     16  N   UNL     1      -3.852  -0.594  24.392  0.00  0.00    -0.290 N 
ATOM     17  C   UNL     1      -4.178  -0.198  25.039  0.00  0.00    +0.114 C 
ATOM     18  C   UNL     1      -4.251   0.623  25.027  0.00  0.00    +0.115 C 
BRANCH  16  19
ATOM     19  C   UNL     1      -3.780  -1.415  24.405  0.00  0.00    +0.132 A 
ATOM     20  C   UNL     1      -4.222  -1.877  23.884  0.00  0.00    +0.034 A 
ATOM     21  C   UNL     1      -4.148  -2.699  23.897  0.00  0.00    +0.004 A 
ATOM     22  C   UNL     1      -3.633  -3.058  24.430  0.00  0.00    +0.021 A 
ATOM     23  C   UNL     1      -3.190  -2.597  24.952  0.00  0.00    +0.100 A 
ATOM     24  N   UNL     1      -3.263  -1.775  24.939  0.00  0.00    -0.229 NA
ENDBRANCH  16  19
ENDBRANCH  10  11
BRANCH  10   9
ATOM      7  C   UNL     1      -3.078   3.836  25.596  0.00  0.00    +0.167 C 
ATOM      8  O   UNL     1      -3.238   3.159  25.155  0.00  0.00    -0.351 OA
ATOM      9  C   UNL     1      -4.011   2.921  25.323  0.00  0.00    +0.157 C 
ATOM     25  C   UNL     1      -4.328   3.451  25.869  0.00  0.00    +0.212 C 
ATOM     26  O   UNL     1      -5.087   3.422  26.189  0.00  0.00    -0.218 OA
ATOM     27  C   UNL     1      -3.752   4.018  26.038  0.00  0.00    +0.213 C 
ATOM     28  O   UNL     1      -3.834   4.653  26.557  0.00  0.00    -0.218 OA
BRANCH   7   6
ATOM      6  C   UNL     1      -2.370   4.259  25.597  0.00  0.00    +0.147 C 
BRANCH   6   5
ATOM      5  N   UNL     1      -1.828   4.157  24.984  0.00  0.00    -0.079 NA
BRANCH   5   2
ATOM      1  C   UNL     1      -0.399   4.982  24.999  0.00  0.00    +0.197 C 
ATOM      2  S   UNL     1      -1.114   4.569  24.991  0.00  0.00    +0.059 S 
ATOM      3  O   UNL     1      -0.719   3.879  25.215  0.00  0.00    -0.156 OA
ATOM      4  O   UNL     1      -1.509   5.258  24.768  0.00  0.00    -0.156 OA
ENDBRANCH   5   2
ENDBRANCH   6   5
ENDBRANCH   7   6
ENDBRANCH  10   9
TORSDOF 6
ENDMDL
MODEL 2
REMARK VINA RESULT:      -9.3      3.178      6.096
REMARK  Name = 
REMARK  6 active torsions:
REMARK  status: ('A' for Active; 'I' for Inactive)
REMARK    1  A    between atoms: S_2  and  N_5
REMARK    2  A    between atoms: N_5  and  C_6
REMARK    3  A    between atoms: C_6  and  C_7
REMARK    4  A    between atoms: C_9  and  C_10
REMARK    5  A    between atoms: C_10  and  C_11
REMARK    6  A    between atoms: N_16  and  C_19
REMARK                            x       y       z     vdW  Elec       q    Type
REMARK                         _______ _______ _______ _____ _____    ______ ____
ROOT
ATOM     10  C   UNL     1      -0.719   0.019  25.065  0.00  0.00    +0.117 C 
ENDROOT
BRANCH  10  11
ATOM     11  C   UNL     1      -0.726   0.553  24.435  0.00  0.00    +0.228 C 
ATOM     12  O   UNL     1      -0.577   0.286  23.668  0.00  0.00    -0.275 OA
ATOM     13  N   UNL     1      -0.881   1.351  24.572  0.00  0.00    -0.276 N 
ATOM     14  C   UNL     1      -0.888   1.884  23.942  0.00  0.00    +0.115 C 
ATOM     15  C   UNL     1      -1.043   2.682  24.079  0.00  0.00    +0.114 C 
ATOM     16  N   UNL     1      -1.191   2.948  24.846  0.00  0.00    -0.290 N 
ATOM     17  C   UNL     1      -1.184   2.415  25.476  0.00  0.00    +0.114 C 
ATOM     18  C   UNL     1      -1.029   1.617  25.339  0.00  0.00    +0.115 C 
BRANCH  16  19
ATOM     19  C   UNL     1      -1.346   3.747  24.982  0.00  0.00    +0.132 A 
ATOM     20  C   UNL     1      -0.759   4.310  24.848  0.00  0.00    +0.034 A 
ATOM     21  C   UNL     1      -0.915   5.109  24.985  0.00  0.00    +0.004 A 
ATOM     22  C   UNL     1      -1.657   5.343  25.256  0.00  0.00    +0.021 A 
ATOM     23  C   UNL     1      -2.245   4.781  25.390  0.00  0.00    +0.100 A 
ATOM     24  N   UNL     1      -2.089   3.982  25.253  0.00  0.00    -0.229 NA
ENDBRANCH  16  19
ENDBRANCH  10  11
BRANCH  10   9
ATOM      7  C   UNL     1      -1.919  -1.705  24.686  0.00  0.00    +0.167 C 
ATOM      8  O   UNL     1      -1.808  -0.888  24.674  0.00  0.00    -0.351 OA
ATOM      9  C   UNL     1      -1.057  -0.728  24.977  0.00  0.00    +0.157 C 
ATOM     25  C   UNL     1      -0.704  -1.447  25.176  0.00  0.00    +0.212 C 
ATOM     26  O   UNL     1       0.049  -1.544  25.498  0.00  0.00    -0.218 OA
ATOM     27  C   UNL     1      -1.236  -2.051  24.996  0.00  0.00    +0.213 C 
ATOM     28  O   UNL     1      -1.109  -2.858  25.107  0.00  0.00    -0.218 OA
BRANCH   7   6
ATOM      6  C   UNL     1      -2.593  -2.107  24.432  0.00  0.00    +0.147 C 
BRANCH   6   5
ATOM      5  N   UNL     1      -3.329  -1.735  24.457  0.00  0.00    -0.079 NA
BRANCH   5   2
ATOM      1  C   UNL     1      -4.630  -2.427  23.714  0.00  0.00    +0.197 C 
ATOM      2  S   UNL     1      -3.979  -2.081  24.086  0.00  0.00    +0.059 S 
ATOM      3  O   UNL     1      -4.014  -1.447  23.557  0.00  0.00    -0.156 OA
ATOM      4  O   UNL     1      -3.944  -2.713  24.614  0.00  0.00    -0.156 OA
ENDBRANCH   5   2
ENDBRANCH   6   5
ENDBRANCH   7   6
ENDBRANCH  10   9
TORSDOF 6
ENDMDL
MODEL 3
REMARK VINA RESULT:      -8.7      1.864      2.823
REMARK  Name = 
REMARK  6 active torsions:
REMARK  status: ('A' for Active; 'I' for Inactive)
REMARK    1  A    between atoms: S_2  and  N_5
REMARK    2  A    between atoms: N_5  and  C_6
REMARK    3  A    between atoms: C_6  and  C_7
REMARK    4  A    between atoms: C_9  and  C_10
REMARK    5  A    between atoms: C_10  and  C_11
REMARK    6  A    between atoms: N_16  and  C_19
REMARK                            x       y       z     vdW  Elec       q    Type
REMARK                         _______ _______ _______ _____ _____    ______ ____
ROOT
ATOM     10  C   UNL     1      -1.028   2.002  24.804  0.00  0.00    +0.117 C 
ENDROOT
BRANCH  10  11
ATOM     11  C   UNL     1      -1.001   1.415  25.384  0.00  0.00    +0.228 C 
ATOM     12  O   UNL     1      -0.653   1.575  26.115  0.00  0.00    -0.275 OA
ATOM     13  N   UNL     1      -1.322   0.671  25.234  0.00  0.00    -0.276 N 
ATOM     14  C   UNL     1      -1.295   0.085  25.813  0.00  0.00    +0.115 C 
ATOM     15  C   UNL     1      -1.616  -0.660  25.662  0.00  0.00    +0.114 C 
ATOM     16  N   UNL     1      -1.965  -0.819  24.932  0.00  0.00    -0.290 N 
ATOM     17  C   UNL     1      -1.991  -0.232  24.352  0.00  0.00    +0.114 C 
ATOM     18  C   UNL     1      -1.670   0.512  24.502  0.00  0.00    +0.115 C 
BRANCH  16  19
ATOM     19  C   UNL     1      -2.286  -1.563  24.781  0.00  0.00    +0.132 A 
ATOM     20  C   UNL     1      -3.084  -1.706  24.929  0.00  0.00    +0.034 A 
ATOM     21  C   UNL     1      -3.405  -2.452  24.778  0.00  0.00    +0.004 A 
ATOM     22  C   UNL     1      -2.926  -3.053  24.479  0.00  0.00    +0.021 A 
ATOM     23  C   UNL     1      -2.128  -2.911  24.331  0.00  0.00    +0.100 A 
ATOM     24  N   UNL     1      -1.807  -2.166  24.482  0.00  0.00    -0.229 NA
ENDBRANCH  16  19
ENDBRANCH  10  11
BRANCH  10   9
ATOM      7  C   UNL     1      -2.458   3.537  25.198  0.00  0.00    +0.167 C 
ATOM      8  O   UNL     1      -2.262   2.741  25.107  0.00  0.00    -0.351 OA
ATOM      9  C   UNL     1      -1.456   2.695  24.937  0.00  0.00    +0.157 C 
ATOM     25  C   UNL     1      -1.153   3.462  24.923  0.00  0.00    +0.212 C 
ATOM     26  O   UNL     1      -0.370   3.672  24.773  0.00  0.00    -0.218 OA
ATOM     27  C   UNL     1      -1.772   3.983  25.084  0.00  0.00    +0.213 C 
ATOM     28  O   UNL     1      -1.716   4.805  25.125  0.00  0.00    -0.218 OA
BRANCH   7   6
ATOM      6  C   UNL     1      -3.207   3.836  25.373  0.00  0.00    +0.147 C 
BRANCH   6   5
ATOM      5  N   UNL     1      -3.870   3.349  25.311  0.00  0.00    -0.079 NA
BRANCH   5   2
ATOM      1  C   UNL     1      -5.374   3.962  25.600  0.00  0.00    +0.197 C 
ATOM      2  S   UNL     1      -4.621   3.655  25.455  0.00  0.00    +0.059 S 
ATOM      3  O   UNL     1      -4.705   3.829  24.652  0.00  0.00    -0.156 OA
ATOM      4  O   UNL     1      -4.538   3.482  26.258  0.00  0.00    -0.156 OA
ENDBRANCH   5   2
ENDBRANCH   6   5
ENDBRANCH   7   6
ENDBRANCH  10   9
TORSDOF 6
ENDMDL
MODEL 4
REMARK VINA RESULT:      -8.1      2.961      5.216
REMARK  Name = 
REMARK  6 active torsions:
REMARK  status: ('A' for Active; 'I' for Inactive)
REMARK    1  A    between atoms: S_2  and  N_5
REMARK    2  A    between atoms: N_5  and  C_6
REMARK    3  A    between atoms: C_6  and  C_7
REMARK    4  A    between atoms: C_9  and  C_10
REMARK    5  A    between atoms: C_10  and  C_11
REMARK    6  A    between atoms: N_16  and  C_19
REMARK                            x       y       z     vdW  Elec       q    Type
REMARK                         _______ _______ _______ _____ _____    ______ ____
ROOT
ATOM     10  C   UNL     1      -1.134   1.713  24.053  0.00  0.00    +0.117 C 
ENDROOT
BRANCH  10  11
ATOM     11  C   UNL     1      -1.796   1.885  23.592  0.00  0.00    +0.228 C 
ATOM     12  O   UNL     1      -1.768   1.777  22.774  0.00  0.00    -0.275 OA
ATOM     13  N   UNL     1      -2.486   2.164  23.948  0.00  0.00    -0.276 N 
ATOM     14  C   UNL     1      -3.147   2.336  23.487  0.00  0.00    +0.115 C 
ATOM     15  C   UNL     1      -3.837   2.615  23.842  0.00  0.00    +0.114 C 
ATOM     16  N   UNL     1      -3.865   2.722  24.660  0.00  0.00    -0.290 N 
ATOM     17  C   UNL     1      -3.203   2.550  25.121  0.00  0.00    +0.114 C 
ATOM     18  C   UNL     1      -2.513   2.271  24.766  0.00  0.00    +0.115 C 
BRANCH  16  19
ATOM     19  C   UNL     1      -4.555   3.002  25.016  0.00  0.00    +0.132 A 
ATOM     20  C   UNL     1      -5.154   2.475  25.225  0.00  0.00    +0.034 A 
ATOM     21  C   UNL     1      -5.844   2.755  25.581  0.00  0.00    +0.004 A 
ATOM     22  C   UNL     1      -5.934   3.561  25.727  0.00  0.00    +0.021 A 
ATOM     23  C   UNL     1      -5.336   4.089  25.519  0.00  0.00    +0.100 A 
ATOM     24  N   UNL     1      -4.646   3.809  25.162  0.00  0.00    -0.229 NA
ENDBRANCH  16  19
ENDBRANCH  10  11
BRANCH  10   9
ATOM      7  C   UNL     1      -0.690  -0.374  24.137  0.00  0.00    +0.167 C 
ATOM      8  O   UNL     1      -1.222   0.253  24.202  0.00  0.00    -0.351 OA
ATOM      9  C   UNL     1      -0.813   0.953  24.048  0.00  0.00    +0.157 C 
ATOM     25  C   UNL     1      -0.027   0.759  23.888  0.00  0.00    +0.212 C 
ATOM     26  O   UNL     1       0.576   1.290  23.705  0.00  0.00    -0.218 OA
ATOM     27  C   UNL     1       0.049  -0.061  23.943  0.00  0.00    +0.213 C 
ATOM     28  O   UNL     1       0.742  -0.493  23.825  0.00  0.00    -0.218 OA
BRANCH   7   6
ATOM      6  C   UNL     1      -0.865  -1.172  24.247  0.00  0.00    +0.147 C 
BRANCH   6   5
ATOM      5  N   UNL     1      -1.574  -1.394  24.604  0.00  0.00    -0.079 NA
BRANCH   5   2
ATOM      1  C   UNL     1      -2.071  -2.967  24.549  0.00  0.00    +0.197 C 
ATOM      2  S   UNL     1      -1.822  -2.180  24.577  0.00  0.00    +0.059 S 
ATOM      3  O   UNL     1      -1.198  -2.394  25.073  0.00  0.00    -0.156 OA
ATOM      4  O   UNL     1      -2.446  -1.965  24.081  0.00  0.00    -0.156 OA
ENDBRANCH   5   2
ENDBRANCH   6   5
ENDBRANCH   7   6
ENDBRANCH  10   9
TORSDOF 6
ENDMDL
MODEL 5
REMARK VINA RESULT:      -6.6     15.135     16.798
REMARK  Name = 
REMARK  6 active torsions:
REMARK  status: ('A' for Active; 'I' for Inactive)
REMARK    1  A    between atoms: S_2  and  N_5
REMARK    2  A    between atoms: N_5  and  C_6
REMARK    3  A    between atoms: C_6  and  C_7
REMARK    4  A    between atoms: C_9  and  C_10
REMARK    5  A    between atoms: C_10  and  C_11
REMARK    6  A    between atoms: N_16  and  C_19
REMARK                            x       y       z     vdW  Elec       q    Type
REMARK                         _______ _______ _______ _____ _____    ______ ____
ROOT
ATOM     10  C   UNL     1      -3.280 -10.487  13.924  0.00  0.00    +0.117 C 
ENDROOT
BRANCH  10  11
ATOM     11  C   UNL     1      -4.090 -10.614  14.022  0.00  0.00    +0.228 C 
ATOM     12  O   UNL     1      -4.563 -10.781  13.367  0.00  0.00    -0.275 OA
ATOM     13  N   UNL     1      -4.425 -10.573  14.774  0.00  0.00    -0.276 N 
ATOM     14  C   UNL     1      -5.234 -10.699  14.873  0.00  0.00    +0.115 C 
ATOM     15  C   UNL     1      -5.570 -10.659  15.625  0.00  0.00    +0.114 C 
ATOM     16  N   UNL     1      -5.097 -10.492  16.280  0.00  0.00    -0.290 N 
ATOM     17  C   UNL     1      -4.287 -10.365  16.181  0.00  0.00    +0.114 C 
ATOM     18  C   UNL     1      -3.951 -10.406  15.429  0.00  0.00    +0.115 C 
BRANCH  16  19
ATOM     19  C   UNL     1      -5.432 -10.451  17.032  0.00  0.00    +0.132 A 
ATOM     20  C   UNL     1      -5.040 -10.781  17.677  0.00  0.00    +0.034 A 
ATOM     21  C   UNL     1      -5.376 -10.740  18.430  0.00  0.00    +0.004 A 
ATOM     22  C   UNL     1      -6.105 -10.369  18.536  0.00  0.00    +0.021 A 
ATOM     23  C   UNL     1      -6.499 -10.039  17.891  0.00  0.00    +0.100 A 
ATOM     24  N   UNL     1      -6.162 -10.080  17.138  0.00  0.00    -0.229 NA
ENDBRANCH  16  19
ENDBRANCH  10  11
BRANCH  10   9
ATOM      7  C   UNL     1      -2.853 -10.162  11.857  0.00  0.00    +0.167 C 
ATOM      8  O   UNL     1      -3.383 -10.181  12.489  0.00  0.00    -0.351 OA
ATOM      9  C   UNL     1      -2.965 -10.400  13.167  0.00  0.00    +0.157 C 
ATOM     25  C   UNL     1      -2.176 -10.517  12.953  0.00  0.00    +0.212 C 
ATOM     26  O   UNL     1      -1.565 -10.741  13.459  0.00  0.00    -0.218 OA
ATOM     27  C   UNL     1      -2.107 -10.369  12.144  0.00  0.00    +0.213 C 
ATOM     28  O   UNL     1      -1.415 -10.421  11.699  0.00  0.00    -0.218 OA
BRANCH   7   6
ATOM      6  C   UNL     1      -3.037  -9.969  11.076  0.00  0.00    +0.147 C 
BRANCH   6   5
ATOM      5  N   UNL     1      -3.758  -9.612  10.898  0.00  0.00    -0.079 NA
BRANCH   5   2
ATOM      1  C   UNL     1      -4.124  -9.226   9.336  0.00  0.00    +0.197 C 
ATOM      2  S   UNL     1      -3.941  -9.419  10.118  0.00  0.00    +0.059 S 
ATOM      3  O   UNL     1      -3.961  -8.619  10.320  0.00  0.00    -0.156 OA
ATOM      4  O   UNL     1      -3.921 -10.219   9.915  0.00  0.00    -0.156 OA
ENDBRANCH   5   2
ENDBRANCH   6   5
ENDBRANCH   7   6
ENDBRANCH  10   9
TORSDOF 6
ENDMDL
MODEL 6
REMARK VINA RESULT:      -6.0     18.354     19.211
REMARK  Name = 
REMARK  6 active torsions:
REMARK  status: ('A' for Active; 'I' for Inactive)
REMARK    1  A    between atoms: S_2  and  N_5
REMARK    2  A    between atoms: N_5  and  C_6
REMARK    3  A    between atoms: C_6  and  C_7
REMARK    4  A    between atoms: C_9  and  C_10
REMARK    5  A    between atoms: C_10  and  C_11
REMARK    6  A    between atoms: N_16  and  C_19
REMARK                            x       y       z     vdW  Elec       q    Type
REMARK                         _______ _______ _______ _____ _____    ______ ____
ROOT
ATOM     10  C   UNL     1      -6.259  -8.244   9.253  0.00  0.00    +0.117 C 
ENDROOT
BRANCH  10  11
ATOM     11  C   UNL     1      -5.827  -8.923   9.071  0.00  0.00    +0.228 C 
ATOM     12  O   UNL     1      -6.091  -9.433   8.479  0.00  0.00    -0.275 OA
ATOM     13  N   UNL     1      -5.131  -9.092   9.480  0.00  0.00    -0.276 N 
ATOM     14  C   UNL     1      -4.699  -9.770   9.298  0.00  0.00    +0.115 C 
ATOM     15  C   UNL     1      -4.003  -9.939   9.707  0.00  0.00    +0.114 C 
ATOM     16  N   UNL     1      -3.739  -9.429  10.299  0.00  0.00    -0.290 N 
ATOM     17  C   UNL     1      -4.171  -8.750  10.482  0.00  0.00    +0.114 C 
ATOM     18  C   UNL     1      -4.867  -8.581  10.073  0.00  0.00    +0.115 C 
BRANCH  16  19
ATOM     19  C   UNL     1      -3.043  -9.598  10.709  0.00  0.00    +0.132 A 
ATOM     20  C   UNL     1      -2.355  -9.174  10.545  0.00  0.00    +0.034 A 
ATOM     21  C   UNL     1      -1.659  -9.343  10.955  0.00  0.00    +0.004 A 
ATOM     22  C   UNL     1      -1.652  -9.936  11.528  0.00  0.00    +0.021 A 
ATOM     23  C   UNL     1      -2.339 -10.361  11.692  0.00  0.00    +0.100 A 
ATOM     24  N   UNL     1      -3.035 -10.192  11.282  0.00  0.00    -0.229 NA
ENDBRANCH  16  19
ENDBRANCH  10  11
BRANCH  10   9
ATOM      7  C   UNL     1      -8.355  -8.625   9.386  0.00  0.00    +0.167 C 
ATOM      8  O   UNL     1      -7.574  -8.827   9.557  0.00  0.00    -0.351 OA
ATOM      9  C   UNL     1      -7.083  -8.257   9.217  0.00  0.00    +0.157 C 
ATOM     25  C   UNL     1      -7.561  -7.703   8.836  0.00  0.00    +0.212 C 
ATOM     26  O   UNL     1      -7.299  -7.039   8.423  0.00  0.00    -0.218 OA
ATOM     27  C   UNL     1      -8.347  -7.931   8.940  0.00  0.00    +0.213 C 
ATOM     28  O   UNL     1      -9.009  -7.534   8.649  0.00  0.00    -0.218 OA
BRANCH   7   6
ATOM      6  C   UNL     1      -9.027  -9.044   9.619  0.00  0.00    +0.147 C 
BRANCH   6   5
ATOM      5  N   UNL     1      -8.979  -9.593  10.232  0.00  0.00    -0.079 NA
BRANCH   5   2
ATOM      1  C   UNL     1     -10.327 -10.413  10.715  0.00  0.00    +0.197 C 
ATOM      2  S   UNL     1      -9.652 -10.003  10.473  0.00  0.00    +0.059 S 
ATOM      3  O   UNL     1      -9.740  -9.484  11.110  0.00  0.00    -0.156 OA
ATOM      4  O   UNL     1      -9.565 -10.521   9.837  0.00  0.00    -0.156 OA
ENDBRANCH   5   2
ENDBRANCH   6   5
ENDBRANCH   7   6
ENDBRANCH  10   9
TORSDOF 6
ENDMDL
MODEL 7
REMARK VINA RESULT:      -6.0     15.126     16.689
REMARK  Name = 
REMARK  6 active torsions:
REMARK  status: ('A' for Active; 'I' for Inactive)
REMARK    1  A    between atoms: S_2  and  N_5
REMARK    2  A    between atoms: N_5  and  C_6
REMARK    3  A    between atoms: C_6  and  C_7
REMARK    4  A    between atoms: C_9  and  C_10
REMARK    5  A    between atoms: C_10  and  C_11
REMARK    6  A    between atoms: N_16  and  C_19
REMARK                            x       y       z     vdW  Elec       q    Type
REMARK                         _______ _______ _______ _____ _____    ______ ____
ROOT
ATOM     10  C   UNL     1      -6.112  -9.569  13.558  0.00  0.00    +0.117 C 
ENDROOT
BRANCH  10  11
ATOM     11  C   UNL     1      -5.569 -10.076  13.917  0.00  0.00    +0.228 C 
ATOM     12  O   UNL     1      -5.020 -10.485  13.457  0.00  0.00    -0.275 OA
ATOM     13  N   UNL     1      -5.576 -10.175  14.736  0.00  0.00    -0.276 N 
ATOM     14  C   UNL     1      -5.034 -10.682  15.095  0.00  0.00    +0.115 C 
ATOM     15  C   UNL     1      -5.040 -10.781  15.914  0.00  0.00    +0.114 C 
ATOM     16  N   UNL     1      -5.589 -10.373  16.374  0.00  0.00    -0.290 N 
ATOM     17  C   UNL     1      -6.132  -9.865  16.015  0.00  0.00    +0.114 C 
ATOM     18  C   UNL     1      -6.125  -9.766  15.196  0.00  0.00    +0.115 C 
BRANCH  16  19
ATOM     19  C   UNL     1      -5.596 -10.471  17.193  0.00  0.00    +0.132 A 
ATOM     20  C   UNL     1      -4.898 -10.656  17.592  0.00  0.00    +0.034 A 
ATOM     21  C   UNL     1      -4.905 -10.755  18.412  0.00  0.00    +0.004 A 
ATOM     22  C   UNL     1      -5.610 -10.669  18.831  0.00  0.00    +0.021 A 
ATOM     23  C   UNL     1      -6.308 -10.484  18.433  0.00  0.00    +0.100 A 
ATOM     24  N   UNL     1      -6.301 -10.385  17.613  0.00  0.00    -0.229 NA
ENDBRANCH  16  19
ENDBRANCH  10  11
BRANCH  10   9
ATOM      7  C   UNL     1      -5.914  -9.514  11.433  0.00  0.00    +0.167 C 
ATOM      8  O   UNL     1      -5.584  -9.485  12.189  0.00  0.00    -0.351 OA
ATOM      9  C   UNL     1      -6.195  -9.567  12.738  0.00  0.00    +0.157 C 
ATOM     25  C   UNL     1      -6.903  -9.646  12.321  0.00  0.00    +0.212 C 
ATOM     26  O   UNL     1      -7.652  -9.741  12.652  0.00  0.00    -0.218 OA
ATOM     27  C   UNL     1      -6.729  -9.613  11.515  0.00  0.00    +0.213 C 
ATOM     28  O   UNL     1      -7.274  -9.669  10.899  0.00  0.00    -0.218 OA
BRANCH   7   6
ATOM      6  C   UNL     1      -5.501  -9.454  10.721  0.00  0.00    +0.147 C 
BRANCH   6   5
ATOM      5  N   UNL     1      -4.792  -9.034  10.689  0.00  0.00    -0.079 NA
BRANCH   5   2
ATOM      1  C   UNL     1      -3.968  -8.913   9.264  0.00  0.00    +0.197 C 
ATOM      2  S   UNL     1      -4.381  -8.973   9.977  0.00  0.00    +0.059 S 
ATOM      3  O   UNL     1      -4.571  -8.171   9.935  0.00  0.00    -0.156 OA
ATOM      4  O   UNL     1      -4.191  -9.775  10.019  0.00  0.00    -0.156 OA
ENDBRANCH   5   2
ENDBRANCH   6   5
ENDBRANCH   7   6
ENDBRANCH  10   9
TORSDOF 6
ENDMDL
MODEL 8
REMARK VINA RESULT:      -6.0     18.347     19.162
REMARK  Name = 
REMARK  6 active torsions:
REMARK  status: ('A' for Active; 'I' for Inactive)
REMARK    1  A    between atoms: S_2  and  N_5
REMARK    2  A    between atoms: N_5  and  C_6
REMARK    3  A    between atoms: C_6  and  C_7
REMARK    4  A    between atoms: C_9  and  C_10
REMARK    5  A    between atoms: C_10  and  C_11
REMARK    6  A    between atoms: N_16  and  C_19
REMARK                            x       y       z     vdW  Elec       q    Type
REMARK                         _______ _______ _______ _____ _____    ______ ____
ROOT
ATOM     10  C   UNL     1      -6.581  -9.136   9.682  0.00  0.00    +0.117 C 
ENDROOT
BRANCH  10  11
ATOM     11  C   UNL     1      -5.867  -9.048   9.276  0.00  0.00    +0.228 C 
ATOM     12  O   UNL     1      -5.869  -8.797   8.490  0.00  0.00    -0.275 OA
ATOM     13  N   UNL     1      -5.154  -9.211   9.656  0.00  0.00    -0.276 N 
ATOM     14  C   UNL     1      -4.441  -9.123   9.250  0.00  0.00    +0.115 C 
ATOM     15  C   UNL     1      -3.727  -9.286   9.629  0.00  0.00    +0.114 C 
ATOM     16  N   UNL     1      -3.725  -9.537  10.415  0.00  0.00    -0.290 N 
ATOM     17  C   UNL     1      -4.439  -9.625  10.822  0.00  0.00    +0.114 C 
ATOM     18  C   UNL     1      -5.153  -9.462  10.442  0.00  0.00    +0.115 C 
BRANCH  16  19
ATOM     19  C   UNL     1      -3.012  -9.700  10.795  0.00  0.00    +0.132 A 
ATOM     20  C   UNL     1      -2.362  -9.204  10.683  0.00  0.00    +0.034 A 
ATOM     21  C   UNL     1      -1.648  -9.368  11.064  0.00  0.00    +0.004 A 
ATOM     22  C   UNL     1      -1.584 -10.027  11.555  0.00  0.00    +0.021 A 
ATOM     23  C   UNL     1      -2.233 -10.523  11.667  0.00  0.00    +0.100 A 
ATOM     24  N   UNL     1      -2.947 -10.360  11.287  0.00  0.00    -0.229 NA
ENDBRANCH  16  19
ENDBRANCH  10  11
BRANCH  10   9
ATOM      7  C   UNL     1      -8.280  -8.222   8.768  0.00  0.00    +0.167 C 
ATOM      8  O   UNL     1      -7.538  -8.169   9.125  0.00  0.00    -0.351 OA
ATOM      9  C   UNL     1      -7.292  -8.933   9.316  0.00  0.00    +0.157 C 
ATOM     25  C   UNL     1      -7.881  -9.459   9.078  0.00  0.00    +0.212 C 
ATOM     26  O   UNL     1      -7.864 -10.279   9.163  0.00  0.00    -0.218 OA
ATOM     27  C   UNL     1      -8.492  -9.019   8.739  0.00  0.00    +0.213 C 
ATOM     28  O   UNL     1      -9.192  -9.323   8.426  0.00  0.00    -0.218 OA
BRANCH   7   6
ATOM      6  C   UNL     1      -8.730  -7.590   8.489  0.00  0.00    +0.147 C 
BRANCH   6   5
ATOM      5  N   UNL     1      -8.637  -6.840   8.819  0.00  0.00    -0.079 NA
BRANCH   5   2
ATOM      1  C   UNL     1      -9.469  -5.556   8.200  0.00  0.00    +0.197 C 
ATOM      2  S   UNL     1      -9.053  -6.199   8.510  0.00  0.00    +0.059 S 
ATOM      3  O   UNL     1      -9.737  -6.456   8.895  0.00  0.00    -0.156 OA
ATOM      4  O   UNL     1      -8.370  -5.942   8.125  0.00  0.00    -0.156 OA
ENDBRANCH   5   2
ENDBRANCH   6   5
ENDBRANCH   7   6
ENDBRANCH  10   9
TORSDOF 6
ENDMDL
MODEL 9
REMARK VINA RESULT:      -5.9     16.299     17.962
REMARK  Name = 
REMARK  6 active torsions:
REMARK  status: ('A' for Active; 'I' for Inactive)
REMARK    1  A    between atoms: S_2  and  N_5
REMARK    2  A    between atoms: N_5  and  C_6
REMARK    3  A    between atoms: C_6  and  C_7
REMARK    4  A    between atoms: C_9  and  C_10
REMARK    5  A    between atoms: C_10  and  C_11
REMARK    6  A    between atoms: N_16  and  C_19
REMARK                            x       y       z     vdW  Elec       q    Type
REMARK                         _______ _______ _______ _____ _____    ______ ____
ROOT
ATOM     10  C   UNL     1      -3.831 -10.324  11.306  0.00  0.00    +0.117 C 
ENDROOT
BRANCH  10  11
ATOM     11  C   UNL     1      -4.223 -10.495  12.011  0.00  0.00    +0.228 C 
ATOM     12  O   UNL     1      -5.038 -10.628  12.007  0.00  0.00    -0.275 OA
ATOM     13  N   UNL     1      -3.802 -10.534  12.719  0.00  0.00    -0.276 N 
ATOM     14  C   UNL     1      -4.195 -10.706  13.424  0.00  0.00    +0.115 C 
ATOM     15  C   UNL     1      -3.774 -10.745  14.132  0.00  0.00    +0.114 C 
ATOM     16  N   UNL     1      -2.959 -10.612  14.136  0.00  0.00    -0.290 N 
ATOM     17  C   UNL     1      -2.567 -10.440  13.430  0.00  0.00    +0.114 C 
ATOM     18  C   UNL     1      -2.988 -10.401  12.722  0.00  0.00    +0.115 C 
BRANCH  16  19
ATOM     19  C   UNL     1      -2.538 -10.651  14.844  0.00  0.00    +0.132 A 
ATOM     20  C   UNL     1      -2.936 -10.599  15.564  0.00  0.00    +0.034 A 
ATOM     21  C   UNL     1      -2.514 -10.638  16.272  0.00  0.00    +0.004 A 
ATOM     22  C   UNL     1      -1.695 -10.728  16.259  0.00  0.00    +0.021 A 
ATOM     23  C   UNL     1      -1.296 -10.780  15.539  0.00  0.00    +0.100 A 
ATOM     24  N   UNL     1      -1.718 -10.741  14.831  0.00  0.00    -0.229 NA
ENDBRANCH  16  19
ENDBRANCH  10  11
BRANCH  10   9
ATOM      7  C   UNL     1      -5.227  -9.491   9.922  0.00  0.00    +0.167 C 
ATOM      8  O   UNL     1      -5.053  -9.833  10.652  0.00  0.00    -0.351 OA
ATOM      9  C   UNL     1      -4.242  -9.984  10.677  0.00  0.00    +0.157 C 
ATOM     25  C   UNL     1      -3.915  -9.735   9.961  0.00  0.00    +0.212 C 
ATOM     26  O   UNL     1      -3.119  -9.782   9.750  0.00  0.00    -0.218 OA
ATOM     27  C   UNL     1      -4.523  -9.430   9.495  0.00  0.00    +0.213 C 
ATOM     28  O   UNL     1      -4.443  -9.120   8.735  0.00  0.00    -0.218 OA
BRANCH   7   6
ATOM      6  C   UNL     1      -5.973  -9.252   9.664  0.00  0.00    +0.147 C 
BRANCH   6   5
ATOM      5  N   UNL     1      -6.565  -9.083  10.213  0.00  0.00    -0.079 NA
BRANCH   5   2
ATOM      1  C   UNL     1      -8.099  -8.756   9.699  0.00  0.00    +0.197 C 
ATOM      2  S   UNL     1      -7.331  -8.920   9.956  0.00  0.00    +0.059 S 
ATOM      3  O   UNL     1      -7.113  -8.138   9.802  0.00  0.00    -0.156 OA
ATOM      4  O   UNL     1      -7.549  -9.701  10.110  0.00  0.00    -0.156 OA
ENDBRANCH   5   2
ENDBRANCH   6   5
ENDBRANCH   7   6
ENDBRANCH  10   9
TORSDOF 6
ENDMDL
MODEL 10
REMARK VINA RESULT:      -5.6     15.116     16.489
REMARK  Name = 
REMARK  6 active torsions:
REMARK  status: ('A' for Active; 'I' for Inactive)
REMARK    1  A    between atoms: S_2  and  N_5
REMARK    2  A    between atoms: N_5  and  C_6
REMARK    3  A    between atoms: C_6  and  C_7
REMARK    4  A    between atoms: C_9  and  C_10
REMARK    5  A    between atoms: C_10  and  C_11
REMARK    6  A    between atoms: N_16  and  C_19
REMARK                            x       y       z     vdW  Elec       q    Type
REMARK                         _______ _______ _______ _____ _____    ______ ____
ROOT
ATOM     10  C   UNL     1      -5.877 -10.191  14.740  0.00  0.00    +0.117 C 
ENDROOT
BRANCH  10  11
ATOM     11  C   UNL     1      -6.677 -10.352  14.616  0.00  0.00    +0.228 C 
ATOM     12  O   UNL     1      -6.913 -10.781  13.951  0.00  0.00    -0.275 OA
ATOM     13  N   UNL     1      -7.241 -10.085  15.155  0.00  0.00    -0.276 N 
ATOM     14  C   UNL     1      -8.040 -10.246  15.031  0.00  0.00    +0.115 C 
ATOM     15  C   UNL     1      -8.603  -9.978  15.571  0.00  0.00    +0.114 C 
ATOM     16  N   UNL     1      -8.368  -9.549  16.235  0.00  0.00    -0.290 N 
ATOM     17  C   UNL     1      -7.568  -9.388  16.359  0.00  0.00    +0.114 C 
ATOM     18  C   UNL     1      -7.004  -9.656  15.820  0.00  0.00    +0.115 C 
BRANCH  16  19
ATOM     19  C   UNL     1      -8.931  -9.282  16.775  0.00  0.00    +0.132 A 
ATOM     20  C   UNL     1      -9.211  -8.507  16.730  0.00  0.00    +0.034 A 
ATOM     21  C   UNL     1      -9.775  -8.240  17.270  0.00  0.00    +0.004 A 
ATOM     22  C   UNL     1     -10.059  -8.748  17.854  0.00  0.00    +0.021 A 
ATOM     23  C   UNL     1      -9.780  -9.523  17.900  0.00  0.00    +0.100 A 
ATOM     24  N   UNL     1      -9.216  -9.790  17.360  0.00  0.00    -0.229 NA
ENDBRANCH  16  19
ENDBRANCH  10  11
BRANCH  10   9
ATOM      7  C   UNL     1      -4.818 -10.125  12.888  0.00  0.00    +0.167 C 
ATOM      8  O   UNL     1      -5.501  -9.996  13.332  0.00  0.00    -0.351 OA
ATOM      9  C   UNL     1      -5.346 -10.226  14.110  0.00  0.00    +0.157 C 
ATOM     25  C   UNL     1      -4.568 -10.498  14.145  0.00  0.00    +0.212 C 
ATOM     26  O   UNL     1      -4.184 -10.781  14.818  0.00  0.00    -0.218 OA
ATOM     27  C   UNL     1      -4.241 -10.435  13.390  0.00  0.00    +0.213 C 
ATOM     28  O   UNL     1      -3.474 -10.646  13.175  0.00  0.00    -0.218 OA
BRANCH   7   6
ATOM      6  C   UNL     1      -4.728  -9.972  12.082  0.00  0.00    +0.147 C 
BRANCH   6   5
ATOM      5  N   UNL     1      -5.287  -9.515  11.683  0.00  0.00    -0.079 NA
BRANCH   5   2
ATOM      1  C   UNL     1      -5.156  -9.285  10.055  0.00  0.00    +0.197 C 
ATOM      2  S   UNL     1      -5.222  -9.400  10.870  0.00  0.00    +0.059 S 
ATOM      3  O   UNL     1      -4.790  -8.708  11.002  0.00  0.00    -0.156 OA
ATOM      4  O   UNL     1      -5.652 -10.091  10.738  0.00  0.00    -0.156 OA
ENDBRANCH   5   2
ENDBRANCH   6   5
ENDBRANCH   7   6
ENDBRANCH  10   9
TORSDOF 6
ENDMDL
