MODEL 1
REMARK VINA RESULT:     -14.7      0.000      0.000
REMARK  Name = 
REMARK  4 active torsions:
REMARK  status: ('A' for Active; 'I' for Inactive)
REMARK    1  A    between atoms: C_2  and  O_5
REMARK    2  A    between atoms: O_5  and  C_6
REMARK    3  A    between atoms: C_9  and  C_12
REMARK    4  A    between atoms: C_20  and  C_22
REMARK                            x       y       z     vdW  Elec       q    Type
REMARK                         _______ _______ _______ _____ _____    ______ ____
ROOT
ATOM     12  C   UNL     1      -3.444   1.053  24.462  0.00  0.00    +0.012 A 
ATOM     13  C   UNL     1      -2.699   1.281  24.733  0.00  0.00    +0.041 A 
ATOM     14  C   UNL     1      -1.923   0.924  25.072  0.00  0.00    +0.058 C 
ATOM     15  C   UNL     1      -1.629   0.311  25.244  0.00  0.00    +0.011 C 
ATOM     16  C   UNL     1      -1.425   1.100  25.251  0.00  0.00    +0.043 C 
ATOM     17  C   UNL     1      -1.000   1.987  25.336  0.00  0.00    +0.096 C 
ATOM     18  N   UNL     1      -1.619   2.468  25.048  0.00  0.00    -0.275 N 
ATOM     19  C   UNL     1      -1.498   1.775  25.160  0.00  0.00    +0.100 C 
ATOM     20  C   UNL     1      -2.023   3.153  24.826  0.00  0.00    +0.255 C 
ATOM     21  O   UNL     1      -2.791   3.101  24.528  0.00  0.00    -0.269 OA
ATOM     27  C   UNL     1      -2.232   1.482  24.898  0.00  0.00    +0.110 C 
ATOM     28  N   UNL     1      -2.490   2.079  24.742  0.00  0.00    -0.299 N 
ATOM     29  C   UNL     1      -3.025   2.649  24.478  0.00  0.00    +0.261 A 
ATOM     30  O   UNL     1      -3.054   3.469  24.391  0.00  0.00    -0.267 OA
ATOM     31  C   UNL     1      -3.770   2.421  24.207  0.00  0.00    +0.061 A 
ATOM     32  C   UNL     1      -3.979   1.623  24.198  0.00  0.00    +0.006 A 
ENDROOT
BRANCH  12   9
ATOM      6  C   UNL     1      -4.072  -1.341  24.436  0.00  0.00    +0.147 A 
ATOM      7  C   UNL     1      -4.184  -0.893  25.119  0.00  0.00    +0.037 A 
ATOM      8  C   UNL     1      -3.975  -0.095  25.128  0.00  0.00    +0.003 A 
ATOM      9  C   UNL     1      -3.653   0.255  24.453  0.00  0.00    +0.001 A 
ATOM     10  C   UNL     1      -3.542  -0.194  23.770  0.00  0.00    +0.003 A 
ATOM     11  C   UNL     1      -3.751  -0.992  23.762  0.00  0.00    +0.037 A 
BRANCH   6   5
ATOM      5  O   UNL     1      -4.282  -2.138  24.428  0.00  0.00    -0.404 OA
BRANCH   5   2
ATOM      1  F   UNL     1      -3.111  -3.300  24.468  0.00  0.00    -0.133 F 
ATOM      2  C   UNL     1      -3.696  -2.720  24.448  0.00  0.00    +0.575 C 
ATOM      3  F   UNL     1      -3.739  -2.789  23.627  0.00  0.00    -0.133 F 
ATOM      4  F   UNL     1      -3.654  -2.650  25.269  0.00  0.00    -0.133 F 
ENDBRANCH   5   2
ENDBRANCH   6   5
ENDBRANCH  12   9
BRANCH  20  22
ATOM     22  C   UNL     1      -1.658   3.889  24.901  0.00  0.00    +0.083 A 
ATOM     23  C   UNL     1      -1.000   4.150  24.477  0.00  0.00    +0.012 A 
ATOM     24  C   UNL     1      -0.823   4.916  24.728  0.00  0.00    +0.008 A 
ATOM     25  C   UNL     1      -1.371   5.128  25.307  0.00  0.00    +0.036 A 
ATOM     26  S   UNL     1      -1.887   4.494  25.415  0.00  0.00    -0.082 S 
ENDBRANCH  20  22
TORSDOF 4
ENDMDL
MODEL 2
REMARK VINA RESULT:     -14.5      3.008      4.971
REMARK  Name = 
REMARK  4 active torsions:
REMARK  status: ('A' for Active; 'I' for Inactive)
REMARK    1  A    between atoms: C_2  and  O_5
REMARK    2  A    between atoms: O_5  and  C_6
REMARK    3  A    between atoms: C_9  and  C_12
REMARK    4  A    between atoms: C_20  and  C_22
REMARK                            x       y       z     vdW  Elec       q    Type
REMARK                         _______ _______ _______ _____ _____    ______ ____
ROOT
ATOM     12  C   UNL     1      -3.318   2.055  24.985  0.00  0.00    +0.012 A 
ATOM     13  C   UNL     1      -2.840   1.395  24.857  0.00  0.00    +0.041 A 
ATOM     14  C   UNL     1      -1.955   1.158  24.783  0.00  0.00    +0.058 C 
ATOM     15  C   UNL     1      -1.309   1.431  24.802  0.00  0.00    +0.011 C 
ATOM     16  C   UNL     1      -1.651   0.699  24.696  0.00  0.00    +0.043 C 
ATOM     17  C   UNL     1      -1.870  -0.253  24.549  0.00  0.00    +0.096 C 
ATOM     18  N   UNL     1      -2.703  -0.212  24.589  0.00  0.00    -0.275 N 
ATOM     19  C   UNL     1      -2.151   0.235  24.640  0.00  0.00    +0.100 C 
ATOM     20  C   UNL     1      -3.488  -0.469  24.578  0.00  0.00    +0.255 C 
ATOM     21  O   UNL     1      -4.101   0.073  24.692  0.00  0.00    -0.269 OA
ATOM     27  C   UNL     1      -2.578   0.937  24.772  0.00  0.00    +0.110 C 
ATOM     28  N   UNL     1      -3.183   0.652  24.750  0.00  0.00    -0.299 N 
ATOM     29  C   UNL     1      -4.003   0.569  24.769  0.00  0.00    +0.261 A 
ATOM     30  O   UNL     1      -4.560  -0.034  24.693  0.00  0.00    -0.267 OA
ATOM     31  C   UNL     1      -4.481   1.229  24.896  0.00  0.00    +0.061 A 
ATOM     32  C   UNL     1      -4.139   1.972  25.004  0.00  0.00    +0.006 A 
ENDROOT
BRANCH  12   9
ATOM      6  C   UNL     1      -2.291   4.283  25.308  0.00  0.00    +0.147 A 
ATOM      7  C   UNL     1      -2.416   3.789  25.956  0.00  0.00    +0.037 A 
ATOM      8  C   UNL     1      -2.759   3.046  25.849  0.00  0.00    +0.003 A 
ATOM      9  C   UNL     1      -2.976   2.798  25.093  0.00  0.00    +0.001 A 
ATOM     10  C   UNL     1      -2.850   3.292  24.444  0.00  0.00    +0.003 A 
ATOM     11  C   UNL     1      -2.508   4.035  24.552  0.00  0.00    +0.037 A 
BRANCH   6   5
ATOM      5  O   UNL     1      -1.949   5.025  25.416  0.00  0.00    -0.404 OA
BRANCH   5   2
ATOM      1  F   UNL     1      -0.498   5.377  24.712  0.00  0.00    -0.133 F 
ATOM      2  C   UNL     1      -1.223   5.201  25.064  0.00  0.00    +0.575 C 
ATOM      3  F   UNL     1      -1.602   5.714  24.541  0.00  0.00    -0.133 F 
ATOM      4  F   UNL     1      -0.844   4.688  25.588  0.00  0.00    -0.133 F 
ENDBRANCH   5   2
ENDBRANCH   6   5
ENDBRANCH  12   9
BRANCH  20  22
ATOM     22  C   UNL     1      -3.659  -1.266  24.455  0.00  0.00    +0.083 A 
ATOM     23  C   UNL     1      -3.981  -1.592  23.769  0.00  0.00    +0.012 A 
ATOM     24  C   UNL     1      -4.059  -2.406  23.887  0.00  0.00    +0.008 A 
ATOM     25  C   UNL     1      -3.786  -2.582  24.644  0.00  0.00    +0.036 A 
ATOM     26  S   UNL     1      -3.539  -1.878  24.996  0.00  0.00    -0.082 S 
ENDBRANCH  20  22
TORSDOF 4
ENDMDL
MODEL 3
REMARK VINA RESULT:     -14.3      0.934      1.652
REMARK  Name = 
REMARK  4 active torsions:
REMARK  status: ('A' for Active; 'I' for Inactive)
REMARK    1  A    between atoms: C_2  and  O_5
REMARK    2  A    between atoms: O_5  and  C_6
REMARK    3  A    between atoms: C_9  and  C_12
REMARK    4  A    between atoms: C_20  and  C_22
REMARK                            x       y       z     vdW  Elec       q    Type
REMARK                         _______ _______ _______ _____ _____    ______ ____
ROOT
ATOM     12  C   UNL     1      -2.094   0.335  25.212  0.00  0.00    +0.012 A 
ATOM     13  C   UNL     1      -2.445   1.014  24.904  0.00  0.00    +0.041 A 
ATOM     14  C   UNL     1      -3.192   1.285  24.442  0.00  0.00    +0.058 C 
ATOM     15  C   UNL     1      -3.782   1.036  24.153  0.00  0.00    +0.011 C 
ATOM     16  C   UNL     1      -3.412   1.757  24.241  0.00  0.00    +0.043 C 
ATOM     17  C   UNL     1      -3.128   2.703  24.244  0.00  0.00    +0.096 C 
ATOM     18  N   UNL     1      -2.406   2.631  24.659  0.00  0.00    -0.275 N 
ATOM     19  C   UNL     1      -2.931   2.204  24.436  0.00  0.00    +0.100 C 
ATOM     20  C   UNL     1      -1.698   2.858  25.017  0.00  0.00    +0.255 C 
ATOM     21  O   UNL     1      -1.218   2.292  25.379  0.00  0.00    -0.269 OA
ATOM     27  C   UNL     1      -2.629   1.483  24.724  0.00  0.00    +0.110 C 
ATOM     28  N   UNL     1      -2.074   1.746  24.991  0.00  0.00    -0.299 N 
ATOM     29  C   UNL     1      -1.352   1.798  25.386  0.00  0.00    +0.261 A 
ATOM     30  O   UNL     1      -0.808   2.382  25.593  0.00  0.00    -0.267 OA
ATOM     31  C   UNL     1      -1.001   1.119  25.694  0.00  0.00    +0.061 A 
ATOM     32  C   UNL     1      -1.372   0.387  25.607  0.00  0.00    +0.006 A 
ENDROOT
BRANCH  12   9
ATOM      6  C   UNL     1      -3.208  -1.861  24.951  0.00  0.00    +0.147 A 
ATOM      7  C   UNL     1      -3.404  -1.372  25.585  0.00  0.00    +0.037 A 
ATOM      8  C   UNL     1      -3.032  -0.640  25.672  0.00  0.00    +0.003 A 
ATOM      9  C   UNL     1      -2.465  -0.397  25.125  0.00  0.00    +0.001 A 
ATOM     10  C   UNL     1      -2.269  -0.886  24.490  0.00  0.00    +0.003 A 
ATOM     11  C   UNL     1      -2.641  -1.618  24.403  0.00  0.00    +0.037 A 
BRANCH   6   5
ATOM      5  O   UNL     1      -3.578  -2.592  24.864  0.00  0.00    -0.404 OA
BRANCH   5   2
ATOM      1  F   UNL     1      -4.380  -2.951  23.467  0.00  0.00    -0.133 F 
ATOM      2  C   UNL     1      -3.980  -2.771  24.165  0.00  0.00    +0.575 C 
ATOM      3  F   UNL     1      -3.372  -3.287  23.951  0.00  0.00    -0.133 F 
ATOM      4  F   UNL     1      -4.586  -2.255  24.380  0.00  0.00    -0.133 F 
ENDBRANCH   5   2
ENDBRANCH   6   5
ENDBRANCH  12   9
BRANCH  20  22
ATOM     22  C   UNL     1      -1.471   3.651  25.014  0.00  0.00    +0.083 A 
ATOM     23  C   UNL     1      -1.816   4.257  25.455  0.00  0.00    +0.012 A 
ATOM     24  C   UNL     1      -1.416   4.957  25.282  0.00  0.00    +0.008 A 
ATOM     25  C   UNL     1      -0.824   4.785  24.735  0.00  0.00    +0.036 A 
ATOM     26  S   UNL     1      -0.857   3.978  24.569  0.00  0.00    -0.082 S 
ENDBRANCH  20  22
TORSDOF 4
ENDMDL
MODEL 4
REMARK VINA RESULT:     -11.7      2.930      4.682
REMARK  Name = 
REMARK  4 active torsions:
REMARK  status: ('A' for Active; 'I' for Inactive)
REMARK    1  A    between atoms: C_2  and  O_5
REMARK    2  A    between atoms: O_5  and  C_6
REMARK    3  A    between atoms: C_9  and  C_12
REMARK    4  A    between atoms: C_20  and  C_22
REMARK                            x       y       z     vdW  Elec       q    Type
REMARK                         _______ _______ _______ _____ _____    ______ ____
ROOT
ATOM     12  C   UNL     1      -2.880   1.537  24.593  0.00  0.00    +0.012 A 
ATOM     13  C   UNL     1      -3.126   0.774  24.789  0.00  0.00    +0.041 A 
ATOM     14  C   UNL     1      -3.865   0.317  25.087  0.00  0.00    +0.058 C 
ATOM     15  C   UNL     1      -4.534   0.415  25.275  0.00  0.00    +0.011 C 
ATOM     16  C   UNL     1      -4.011  -0.206  25.214  0.00  0.00    +0.043 C 
ATOM     17  C   UNL     1      -3.535  -1.072  25.206  0.00  0.00    +0.096 C 
ATOM     18  N   UNL     1      -2.786  -0.818  24.937  0.00  0.00    -0.275 N 
ATOM     19  C   UNL     1      -3.419  -0.528  25.085  0.00  0.00    +0.100 C 
ATOM     20  C   UNL     1      -1.996  -0.865  24.704  0.00  0.00    +0.255 C 
ATOM     21  O   UNL     1      -1.593  -0.182  24.473  0.00  0.00    -0.269 OA
ATOM     27  C   UNL     1      -3.233   0.263  24.903  0.00  0.00    +0.110 C 
ATOM     28  N   UNL     1      -2.598   0.143  24.728  0.00  0.00    -0.299 N 
ATOM     29  C   UNL     1      -1.825   0.274  24.471  0.00  0.00    +0.261 A 
ATOM     30  O   UNL     1      -1.142  -0.167  24.333  0.00  0.00    -0.267 OA
ATOM     31  C   UNL     1      -1.580   1.037  24.276  0.00  0.00    +0.061 A 
ATOM     32  C   UNL     1      -2.107   1.668  24.337  0.00  0.00    +0.006 A 
ENDROOT
BRANCH  12   9
ATOM      6  C   UNL     1      -4.463   3.432  24.776  0.00  0.00    +0.147 A 
ATOM      7  C   UNL     1      -4.429   2.989  24.081  0.00  0.00    +0.037 A 
ATOM      8  C   UNL     1      -3.901   2.357  24.020  0.00  0.00    +0.003 A 
ATOM      9  C   UNL     1      -3.408   2.169  24.654  0.00  0.00    +0.001 A 
ATOM     10  C   UNL     1      -3.442   2.611  25.349  0.00  0.00    +0.003 A 
ATOM     11  C   UNL     1      -3.970   3.243  25.410  0.00  0.00    +0.037 A 
BRANCH   6   5
ATOM      5  O   UNL     1      -4.990   4.062  24.837  0.00  0.00    -0.404 OA
BRANCH   5   2
ATOM      1  F   UNL     1      -6.178   4.039  25.982  0.00  0.00    -0.133 F 
ATOM      2  C   UNL     1      -5.584   4.050  25.410  0.00  0.00    +0.575 C 
ATOM      3  F   UNL     1      -5.181   4.629  25.838  0.00  0.00    -0.133 F 
ATOM      4  F   UNL     1      -5.987   3.472  24.981  0.00  0.00    -0.133 F 
ENDBRANCH   5   2
ENDBRANCH   6   5
ENDBRANCH  12   9
BRANCH  20  22
ATOM     22  C   UNL     1      -1.609  -1.593  24.701  0.00  0.00    +0.083 A 
ATOM     23  C   UNL     1      -1.737  -2.208  24.166  0.00  0.00    +0.012 A 
ATOM     24  C   UNL     1      -1.232  -2.829  24.368  0.00  0.00    +0.008 A 
ATOM     25  C   UNL     1      -0.792  -2.598  25.026  0.00  0.00    +0.036 A 
ATOM     26  S   UNL     1      -1.024  -1.834  25.232  0.00  0.00    -0.082 S 
ENDBRANCH  20  22
TORSDOF 4
ENDMDL
MODEL 5
REMARK VINA RESULT:     -11.5      2.693      3.614
REMARK  Name = 
REMARK  4 active torsions:
REMARK  status: ('A' for Active; 'I' for Inactive)
REMARK    1  A    between atoms: C_2  and  O_5
REMARK    2  A    between atoms: O_5  and  C_6
REMARK    3  A    between atoms: C_9  and  C_12
REMARK    4  A    between atoms: C_20  and  C_22
REMARK                            x       y       z     vdW  Elec       q    Type
REMARK                         _______ _______ _______ _____ _____    ______ ____
ROOT
ATOM     12  C   UNL     1      -2.992   1.979  24.246  0.00  0.00    +0.012 A 
ATOM     13  C   UNL     1      -2.600   1.281  24.447  0.00  0.00    +0.041 A 
ATOM     14  C   UNL     1      -2.707   0.526  24.960  0.00  0.00    +0.058 C 
ATOM     15  C   UNL     1      -3.160   0.216  25.397  0.00  0.00    +0.011 C 
ATOM     16  C   UNL     1      -2.425   0.060  25.082  0.00  0.00    +0.043 C 
ATOM     17  C   UNL     1      -1.547  -0.302  24.812  0.00  0.00    +0.096 C 
ATOM     18  N   UNL     1      -1.293   0.310  24.304  0.00  0.00    -0.275 N 
ATOM     19  C   UNL     1      -1.860   0.162  24.708  0.00  0.00    +0.100 C 
ATOM     20  C   UNL     1      -0.805   0.726  23.784  0.00  0.00    +0.255 C 
ATOM     21  O   UNL     1      -1.050   1.455  23.483  0.00  0.00    -0.269 OA
ATOM     27  C   UNL     1      -2.305   0.846  24.544  0.00  0.00    +0.110 C 
ATOM     28  N   UNL     1      -1.856   1.120  24.131  0.00  0.00    -0.299 N 
ATOM     29  C   UNL     1      -1.502   1.656  23.613  0.00  0.00    +0.261 A 
ATOM     30  O   UNL     1      -0.801   1.723  23.184  0.00  0.00    -0.267 OA
ATOM     31  C   UNL     1      -1.893   2.354  23.412  0.00  0.00    +0.061 A 
ATOM     32  C   UNL     1      -2.638   2.515  23.729  0.00  0.00    +0.006 A 
ENDROOT
BRANCH  12   9
ATOM      6  C   UNL     1      -5.226   2.463  25.196  0.00  0.00    +0.147 A 
ATOM      7  C   UNL     1      -4.550   2.778  25.549  0.00  0.00    +0.037 A 
ATOM      8  C   UNL     1      -3.806   2.617  25.233  0.00  0.00    +0.003 A 
ATOM      9  C   UNL     1      -3.736   2.140  24.563  0.00  0.00    +0.001 A 
ATOM     10  C   UNL     1      -4.412   1.825  24.210  0.00  0.00    +0.003 A 
ATOM     11  C   UNL     1      -5.156   1.987  24.526  0.00  0.00    +0.037 A 
BRANCH   6   5
ATOM      5  O   UNL     1      -5.969   2.625  25.512  0.00  0.00    -0.404 OA
BRANCH   5   2
ATOM      1  F   UNL     1      -6.613   1.628  26.659  0.00  0.00    -0.133 F 
ATOM      2  C   UNL     1      -6.292   2.126  26.086  0.00  0.00    +0.575 C 
ATOM      3  F   UNL     1      -5.950   2.589  26.678  0.00  0.00    -0.133 F 
ATOM      4  F   UNL     1      -6.633   1.664  25.493  0.00  0.00    -0.133 F 
ENDBRANCH   5   2
ENDBRANCH   6   5
ENDBRANCH  12   9
BRANCH  20  22
ATOM     22  C   UNL     1      -0.074   0.414  23.565  0.00  0.00    +0.083 A 
ATOM     23  C   UNL     1       0.051  -0.193  23.020  0.00  0.00    +0.012 A 
ATOM     24  C   UNL     1       0.864  -0.327  22.972  0.00  0.00    +0.008 A 
ATOM     25  C   UNL     1       1.241   0.196  23.486  0.00  0.00    +0.036 A 
ATOM     26  S   UNL     1       0.662   0.654  23.853  0.00  0.00    -0.082 S 
ENDBRANCH  20  22
TORSDOF 4
ENDMDL
