MODEL 1
REMARK VINA RESULT:     -15.9      0.000      0.000
REMARK  Name = 
REMARK  3 active torsions:
REMARK  status: ('A' for Active; 'I' for Inactive)
REMARK    1  A    between atoms: C_2  and  C_23
REMARK    2  A    between atoms: C_10  and  C_17
REMARK    3  A    between atoms: C_26  and  C_29
REMARK                            x       y       z     vdW  Elec       q    Type
REMARK                         _______ _______ _______ _____ _____    ______ ____
ROOT
ATOM      1  O   UNL     1      -4.008   4.061  24.530  0.00  0.00    -0.270 OA
ATOM      2  C   UNL     1      -3.831   3.203  24.488  0.00  0.00    +0.249 C 
ATOM      3  N   UNL     1      -4.459   2.673  24.751  0.00  0.00    -0.276 N 
ATOM      4  C   UNL     1      -5.228   2.552  25.056  0.00  0.00    +0.096 C 
ATOM      5  C   UNL     1      -5.238   1.565  25.092  0.00  0.00    +0.043 C 
ATOM      6  C   UNL     1      -5.404   0.772  25.182  0.00  0.00    +0.011 C 
ATOM      7  C   UNL     1      -4.868   1.168  24.960  0.00  0.00    +0.058 C 
ATOM      8  C   UNL     1      -4.874   2.123  24.931  0.00  0.00    +0.099 C 
ATOM      9  C   UNL     1      -4.014   1.104  24.628  0.00  0.00    +0.041 A 
ATOM     10  C   UNL     1      -3.446   0.542  24.425  0.00  0.00    +0.012 A 
ATOM     11  C   UNL     1      -2.714   0.783  24.131  0.00  0.00    +0.006 A 
ATOM     12  C   UNL     1      -2.622   1.674  24.066  0.00  0.00    +0.061 A 
ATOM     13  C   UNL     1      -3.117   2.149  24.244  0.00  0.00    +0.261 A 
ATOM     14  O   UNL     1      -2.968   3.177  24.152  0.00  0.00    -0.267 OA
ATOM     15  N   UNL     1      -3.849   1.908  24.538  0.00  0.00    -0.299 N 
ATOM     16  C   UNL     1      -4.345   1.508  24.744  0.00  0.00    +0.110 C 
ENDROOT
BRANCH  10  17
ATOM     17  C   UNL     1      -3.611  -0.262  24.515  0.00  0.00    +0.001 A 
ATOM     18  C   UNL     1      -3.436  -0.641  25.226  0.00  0.00    +0.000 A 
ATOM     19  C   UNL     1      -3.600  -1.445  25.317  0.00  0.00    +0.000 A 
ATOM     20  C   UNL     1      -3.940  -1.869  24.696  0.00  0.00    +0.000 A 
ATOM     21  C   UNL     1      -4.115  -1.489  23.985  0.00  0.00    +0.000 A 
ATOM     22  C   UNL     1      -3.950  -0.686  23.894  0.00  0.00    +0.000 A 
ENDBRANCH  10  17
BRANCH   2  23
ATOM     23  C   UNL     1      -3.127   2.660  24.231  0.00  0.00    +0.054 A 
ATOM     24  C   UNL     1      -2.501   2.636  24.767  0.00  0.00    +0.005 A 
ATOM     25  C   UNL     1      -1.838   2.172  24.604  0.00  0.00    +0.010 A 
ATOM     26  C   UNL     1      -1.802   1.733  23.906  0.00  0.00    +0.068 A 
ATOM     27  C   UNL     1      -2.430   1.758  23.371  0.00  0.00    +0.010 A 
ATOM     28  C   UNL     1      -3.093   2.222  23.534  0.00  0.00    +0.005 A 
BRANCH  26  29
ATOM     29  C   UNL     1      -1.140   1.269  23.743  0.00  0.00    +0.100 C 
ATOM     30  N   UNL     1      -0.478   0.806  23.580  0.00  0.00    -0.191 NA
ENDBRANCH  26  29
ENDBRANCH   2  23
TORSDOF 3
ENDMDL
MODEL 2
REMARK VINA RESULT:     -15.7      0.878      2.503
REMARK  Name = 
REMARK  3 active torsions:
REMARK  status: ('A' for Active; 'I' for Inactive)
REMARK    1  A    between atoms: C_2  and  C_23
REMARK    2  A    between atoms: C_10  and  C_17
REMARK    3  A    between atoms: C_26  and  C_29
REMARK                            x       y       z     vdW  Elec       q    Type
REMARK                         _______ _______ _______ _____ _____    ______ ____
ROOT
ATOM      1  O   UNL     1      -2.273   3.987  24.735  0.00  0.00    -0.270 OA
ATOM      2  C   UNL     1      -2.668   3.204  24.732  0.00  0.00    +0.249 C 
ATOM      3  N   UNL     1      -2.148   2.516  24.732  0.00  0.00    -0.276 N 
ATOM      4  C   UNL     1      -1.380   2.185  24.734  0.00  0.00    +0.096 C 
ATOM      5  C   UNL     1      -1.614   1.225  24.731  0.00  0.00    +0.043 C 
ATOM      6  C   UNL     1      -1.638   0.411  24.729  0.00  0.00    +0.011 C 
ATOM      7  C   UNL     1      -2.095   0.943  24.728  0.00  0.00    +0.058 C 
ATOM      8  C   UNL     1      -1.853   1.867  24.731  0.00  0.00    +0.099 C 
ATOM      9  C   UNL     1      -2.997   1.119  24.726  0.00  0.00    +0.041 A 
ATOM     10  C   UNL     1      -3.725   0.731  24.722  0.00  0.00    +0.012 A 
ATOM     11  C   UNL     1      -4.425   1.167  24.721  0.00  0.00    +0.006 A 
ATOM     12  C   UNL     1      -4.300   2.057  24.723  0.00  0.00    +0.061 A 
ATOM     13  C   UNL     1      -3.669   2.380  24.726  0.00  0.00    +0.261 A 
ATOM     14  O   UNL     1      -3.570   3.418  24.729  0.00  0.00    -0.267 OA
ATOM     15  N   UNL     1      -2.969   1.943  24.728  0.00  0.00    -0.299 N 
ATOM     16  C   UNL     1      -2.554   1.418  24.728  0.00  0.00    +0.110 C 
ENDROOT
BRANCH  10  17
ATOM     17  C   UNL     1      -3.753  -0.094  24.720  0.00  0.00    +0.001 A 
ATOM     18  C   UNL     1      -3.824  -0.503  24.007  0.00  0.00    +0.000 A 
ATOM     19  C   UNL     1      -3.852  -1.327  24.005  0.00  0.00    +0.000 A 
ATOM     20  C   UNL     1      -3.809  -1.743  24.716  0.00  0.00    +0.000 A 
ATOM     21  C   UNL     1      -3.738  -1.335  25.429  0.00  0.00    +0.000 A 
ATOM     22  C   UNL     1      -3.710  -0.510  25.431  0.00  0.00    +0.000 A 
ENDBRANCH  10  17
BRANCH   2  23
ATOM     23  C   UNL     1      -3.532   2.873  24.728  0.00  0.00    +0.054 A 
ATOM     24  C   UNL     1      -3.924   2.933  25.450  0.00  0.00    +0.005 A 
ATOM     25  C   UNL     1      -4.699   2.658  25.523  0.00  0.00    +0.010 A 
ATOM     26  C   UNL     1      -5.081   2.323  24.873  0.00  0.00    +0.068 A 
ATOM     27  C   UNL     1      -4.687   2.263  24.150  0.00  0.00    +0.010 A 
ATOM     28  C   UNL     1      -3.912   2.538  24.077  0.00  0.00    +0.005 A 
BRANCH  26  29
ATOM     29  C   UNL     1      -5.855   2.048  24.945  0.00  0.00    +0.100 C 
ATOM     30  N   UNL     1      -6.629   1.773  25.016  0.00  0.00    -0.191 NA
ENDBRANCH  26  29
ENDBRANCH   2  23
TORSDOF 3
ENDMDL
MODEL 3
REMARK VINA RESULT:     -15.1      2.181      4.257
REMARK  Name = 
REMARK  3 active torsions:
REMARK  status: ('A' for Active; 'I' for Inactive)
REMARK    1  A    between atoms: C_2  and  C_23
REMARK    2  A    between atoms: C_10  and  C_17
REMARK    3  A    between atoms: C_26  and  C_29
REMARK                            x       y       z     vdW  Elec       q    Type
REMARK                         _______ _______ _______ _____ _____    ______ ____
ROOT
ATOM      1  O   UNL     1      -3.604  -3.156  24.608  0.00  0.00    -0.270 OA
ATOM      2  C   UNL     1      -3.297  -2.336  24.672  0.00  0.00    +0.249 C 
ATOM      3  N   UNL     1      -2.439  -2.248  24.633  0.00  0.00    -0.276 N 
ATOM      4  C   UNL     1      -1.677  -2.581  24.559  0.00  0.00    +0.096 C 
ATOM      5  C   UNL     1      -1.131  -1.760  24.610  0.00  0.00    +0.043 C 
ATOM      6  C   UNL     1      -0.550  -1.189  24.634  0.00  0.00    +0.011 C 
ATOM      7  C   UNL     1      -1.250  -1.218  24.670  0.00  0.00    +0.058 C 
ATOM      8  C   UNL     1      -1.764  -2.021  24.619  0.00  0.00    +0.099 C 
ATOM      9  C   UNL     1      -1.990  -0.681  24.763  0.00  0.00    +0.041 A 
ATOM     10  C   UNL     1      -2.198   0.112  24.853  0.00  0.00    +0.012 A 
ATOM     11  C   UNL     1      -2.992   0.325  24.918  0.00  0.00    +0.006 A 
ATOM     12  C   UNL     1      -3.560  -0.370  24.880  0.00  0.00    +0.061 A 
ATOM     13  C   UNL     1      -3.370  -1.048  24.803  0.00  0.00    +0.261 A 
ATOM     14  O   UNL     1      -4.065  -1.825  24.764  0.00  0.00    -0.267 OA
ATOM     15  N   UNL     1      -2.576  -1.261  24.738  0.00  0.00    -0.299 N 
ATOM     16  C   UNL     1      -1.909  -1.206  24.707  0.00  0.00    +0.110 C 
ENDROOT
BRANCH  10  17
ATOM     17  C   UNL     1      -1.612   0.692  24.878  0.00  0.00    +0.001 A 
ATOM     18  C   UNL     1      -1.363   1.057  24.182  0.00  0.00    +0.000 A 
ATOM     19  C   UNL     1      -0.777   1.638  24.207  0.00  0.00    +0.000 A 
ATOM     20  C   UNL     1      -0.440   1.853  24.928  0.00  0.00    +0.000 A 
ATOM     21  C   UNL     1      -0.689   1.488  25.625  0.00  0.00    +0.000 A 
ATOM     22  C   UNL     1      -1.275   0.908  25.600  0.00  0.00    +0.000 A 
ENDBRANCH  10  17
BRANCH   2  23
ATOM     23  C   UNL     1      -3.639  -1.483  24.775  0.00  0.00    +0.054 A 
ATOM     24  C   UNL     1      -3.986  -1.169  24.096  0.00  0.00    +0.005 A 
ATOM     25  C   UNL     1      -4.313  -0.411  24.112  0.00  0.00    +0.010 A 
ATOM     26  C   UNL     1      -4.292   0.032  24.807  0.00  0.00    +0.068 A 
ATOM     27  C   UNL     1      -3.944  -0.282  25.487  0.00  0.00    +0.010 A 
ATOM     28  C   UNL     1      -3.618  -1.040  25.470  0.00  0.00    +0.005 A 
BRANCH  26  29
ATOM     29  C   UNL     1      -4.619   0.789  24.824  0.00  0.00    +0.100 C 
ATOM     30  N   UNL     1      -4.945   1.546  24.841  0.00  0.00    -0.191 NA
ENDBRANCH  26  29
ENDBRANCH   2  23
TORSDOF 3
ENDMDL
MODEL 4
REMARK VINA RESULT:     -15.0      2.135      3.562
REMARK  Name = 
REMARK  3 active torsions:
REMARK  status: ('A' for Active; 'I' for Inactive)
REMARK    1  A    between atoms: C_2  and  C_23
REMARK    2  A    between atoms: C_10  and  C_17
REMARK    3  A    between atoms: C_26  and  C_29
REMARK                            x       y       z     vdW  Elec       q    Type
REMARK                         _______ _______ _______ _____ _____    ______ ____
ROOT
ATOM      1  O   UNL     1      -1.511  -2.929  24.678  0.00  0.00    -0.270 OA
ATOM      2  C   UNL     1      -1.868  -2.129  24.729  0.00  0.00    +0.249 C 
ATOM      3  N   UNL     1      -2.690  -2.064  24.475  0.00  0.00    -0.276 N 
ATOM      4  C   UNL     1      -3.388  -2.412  24.176  0.00  0.00    +0.096 C 
ATOM      5  C   UNL     1      -3.973  -1.616  24.152  0.00  0.00    +0.043 C 
ATOM      6  C   UNL     1      -4.571  -1.069  24.073  0.00  0.00    +0.011 C 
ATOM      7  C   UNL     1      -3.903  -1.079  24.287  0.00  0.00    +0.058 C 
ATOM      8  C   UNL     1      -3.350  -1.858  24.304  0.00  0.00    +0.099 C 
ATOM      9  C   UNL     1      -3.243  -0.531  24.616  0.00  0.00    +0.041 A 
ATOM     10  C   UNL     1      -3.108   0.255  24.824  0.00  0.00    +0.012 A 
ATOM     11  C   UNL     1      -2.370   0.485  25.112  0.00  0.00    +0.006 A 
ATOM     12  C   UNL     1      -1.774  -0.186  25.165  0.00  0.00    +0.061 A 
ATOM     13  C   UNL     1      -1.901  -0.859  24.983  0.00  0.00    +0.261 A 
ATOM     14  O   UNL     1      -1.179  -1.607  25.062  0.00  0.00    -0.267 OA
ATOM     15  N   UNL     1      -2.639  -1.088  24.696  0.00  0.00    -0.299 N 
ATOM     16  C   UNL     1      -3.277  -1.051  24.496  0.00  0.00    +0.110 C 
ENDROOT
BRANCH  10  17
ATOM     17  C   UNL     1      -3.712   0.812  24.745  0.00  0.00    +0.001 A 
ATOM     18  C   UNL     1      -3.747   1.289  24.072  0.00  0.00    +0.000 A 
ATOM     19  C   UNL     1      -4.350   1.846  23.993  0.00  0.00    +0.000 A 
ATOM     20  C   UNL     1      -4.919   1.926  24.585  0.00  0.00    +0.000 A 
ATOM     21  C   UNL     1      -4.883   1.450  25.258  0.00  0.00    +0.000 A 
ATOM     22  C   UNL     1      -4.280   0.893  25.337  0.00  0.00    +0.000 A 
ENDBRANCH  10  17
BRANCH   2  23
ATOM     23  C   UNL     1      -1.611  -1.280  24.990  0.00  0.00    +0.054 A 
ATOM     24  C   UNL     1      -1.114  -0.894  24.457  0.00  0.00    +0.005 A 
ATOM     25  C   UNL     1      -0.843  -0.132  24.623  0.00  0.00    +0.010 A 
ATOM     26  C   UNL     1      -1.070   0.243  25.321  0.00  0.00    +0.068 A 
ATOM     27  C   UNL     1      -1.568  -0.144  25.854  0.00  0.00    +0.010 A 
ATOM     28  C   UNL     1      -1.838  -0.906  25.688  0.00  0.00    +0.005 A 
BRANCH  26  29
ATOM     29  C   UNL     1      -0.801   1.004  25.487  0.00  0.00    +0.100 C 
ATOM     30  N   UNL     1      -0.531   1.766  25.654  0.00  0.00    -0.191 NA
ENDBRANCH  26  29
ENDBRANCH   2  23
TORSDOF 3
ENDMDL
MODEL 5
REMARK VINA RESULT:     -14.9      1.274      2.388
REMARK  Name = 
REMARK  3 active torsions:
REMARK  status: ('A' for Active; 'I' for Inactive)
REMARK    1  A    between atoms: C_2  and  C_23
REMARK    2  A    between atoms: C_10  and  C_17
REMARK    3  A    between atoms: C_26  and  C_29
REMARK                            x       y       z     vdW  Elec       q    Type
REMARK                         _______ _______ _______ _____ _____    ______ ____
ROOT
ATOM      1  O   UNL     1      -5.846   3.305  25.513  0.00  0.00    -0.270 OA
ATOM      2  C   UNL     1      -5.027   3.051  25.327  0.00  0.00    +0.249 C 
ATOM      3  N   UNL     1      -4.917   2.209  25.168  0.00  0.00    -0.276 N 
ATOM      4  C   UNL     1      -5.228   1.437  25.095  0.00  0.00    +0.096 C 
ATOM      5  C   UNL     1      -4.401   0.947  24.868  0.00  0.00    +0.043 C 
ATOM      6  C   UNL     1      -3.822   0.407  24.676  0.00  0.00    +0.011 C 
ATOM      7  C   UNL     1      -3.868   1.096  24.799  0.00  0.00    +0.058 C 
ATOM      8  C   UNL     1      -4.676   1.556  25.017  0.00  0.00    +0.099 C 
ATOM      9  C   UNL     1      -3.355   1.858  24.835  0.00  0.00    +0.041 A 
ATOM     10  C   UNL     1      -2.576   2.111  24.740  0.00  0.00    +0.012 A 
ATOM     11  C   UNL     1      -2.386   2.907  24.838  0.00  0.00    +0.006 A 
ATOM     12  C   UNL     1      -3.088   3.427  25.048  0.00  0.00    +0.061 A 
ATOM     13  C   UNL     1      -3.754   3.199  25.128  0.00  0.00    +0.261 A 
ATOM     14  O   UNL     1      -4.541   3.839  25.372  0.00  0.00    -0.267 OA
ATOM     15  N   UNL     1      -3.944   2.402  25.029  0.00  0.00    -0.299 N 
ATOM     16  C   UNL     1      -3.873   1.748  24.908  0.00  0.00    +0.110 C 
ENDROOT
BRANCH  10  17
ATOM     17  C   UNL     1      -1.987   1.567  24.546  0.00  0.00    +0.001 A 
ATOM     18  C   UNL     1      -1.795   1.431  23.755  0.00  0.00    +0.000 A 
ATOM     19  C   UNL     1      -1.205   0.887  23.561  0.00  0.00    +0.000 A 
ATOM     20  C   UNL     1      -0.808   0.478  24.158  0.00  0.00    +0.000 A 
ATOM     21  C   UNL     1      -1.000   0.614  24.948  0.00  0.00    +0.000 A 
ATOM     22  C   UNL     1      -1.590   1.158  25.142  0.00  0.00    +0.000 A 
ENDBRANCH  10  17
BRANCH   2  23
ATOM     23  C   UNL     1      -4.191   3.439  25.244  0.00  0.00    +0.054 A 
ATOM     24  C   UNL     1      -3.836   3.642  25.960  0.00  0.00    +0.005 A 
ATOM     25  C   UNL     1      -3.089   3.993  25.965  0.00  0.00    +0.010 A 
ATOM     26  C   UNL     1      -2.698   4.140  25.254  0.00  0.00    +0.068 A 
ATOM     27  C   UNL     1      -3.054   3.936  24.537  0.00  0.00    +0.010 A 
ATOM     28  C   UNL     1      -3.801   3.585  24.533  0.00  0.00    +0.005 A 
BRANCH  26  29
ATOM     29  C   UNL     1      -1.951   4.490  25.258  0.00  0.00    +0.100 C 
ATOM     30  N   UNL     1      -1.205   4.841  25.262  0.00  0.00    -0.191 NA
ENDBRANCH  26  29
ENDBRANCH   2  23
TORSDOF 3
ENDMDL
