MODEL 1
REMARK VINA RESULT:     -16.3      0.000      0.000
REMARK  Name = 
REMARK  5 active torsions:
REMARK  status: ('A' for Active; 'I' for Inactive)
REMARK    1  A    between atoms: N_9  and  C_10
REMARK    2  A    between atoms: C_10  and  C_11
REMARK    3  A    between atoms: C_14  and  C_17
REMARK    4  A    between atoms: C_27  and  C_28
REMARK    5  A    between atoms: C_30  and  C_34
REMARK                            x       y       z     vdW  Elec       q    Type
REMARK                         _______ _______ _______ _____ _____    ______ ____
ROOT
ATOM      1  O   UNL     1      -2.446   2.320  24.842  0.00  0.00    -0.267 OA
ATOM      2  C   UNL     1      -3.094   2.773  25.080  0.00  0.00    +0.261 A 
ATOM      3  N   UNL     1      -3.846   2.436  25.104  0.00  0.00    -0.299 N 
ATOM      4  C   UNL     1      -3.994   3.218  25.357  0.00  0.00    +0.110 C 
ATOM      5  C   UNL     1      -4.971   3.163  25.500  0.00  0.00    +0.039 C 
ATOM      6  C   UNL     1      -5.760   3.282  25.664  0.00  0.00    +0.011 C 
ATOM      7  C   UNL     1      -5.349   2.757  25.444  0.00  0.00    +0.054 C 
ATOM      8  C   UNL     1      -5.380   1.874  25.191  0.00  0.00    +0.078 C 
ATOM      9  N   UNL     1      -4.592   1.760  25.029  0.00  0.00    -0.269 NA
ATOM     23  C   UNL     1      -4.993   2.241  25.235  0.00  0.00    +0.074 C 
ATOM     24  C   UNL     1      -4.493   2.887  25.342  0.00  0.00    +0.041 A 
ATOM     25  C   UNL     1      -4.388   3.677  25.555  0.00  0.00    +0.013 A 
ATOM     26  C   UNL     1      -3.637   4.015  25.531  0.00  0.00    +0.006 A 
ATOM     27  C   UNL     1      -2.989   3.563  25.293  0.00  0.00    +0.056 A 
ENDROOT
BRANCH  27  28
ATOM     28  C   UNL     1      -2.237   3.900  25.269  0.00  0.00    +0.005 A 
ATOM     29  C   UNL     1      -1.584   3.475  25.543  0.00  0.00    +0.010 A 
ATOM     30  C   UNL     1      -0.832   3.812  25.518  0.00  0.00    +0.068 A 
ATOM     31  C   UNL     1      -0.732   4.576  25.221  0.00  0.00    +0.010 A 
ATOM     32  C   UNL     1      -1.383   5.001  24.948  0.00  0.00    +0.001 A 
ATOM     33  C   UNL     1      -2.136   4.663  24.972  0.00  0.00    +0.000 A 
BRANCH  30  34
ATOM     34  C   UNL     1      -0.180   3.387  25.791  0.00  0.00    +0.100 C 
ATOM     35  N   UNL     1       0.472   2.962  26.064  0.00  0.00    -0.191 NA
ENDBRANCH  30  34
ENDBRANCH  27  28
BRANCH   9  10
ATOM     10  C   UNL     1      -3.897   1.378  24.803  0.00  0.00    +0.099 C 
BRANCH  10  11
ATOM     11  C   UNL     1      -3.897   0.561  24.683  0.00  0.00    -0.006 A 
ATOM     12  C   UNL     1      -3.846   0.049  25.327  0.00  0.00    -0.003 A 
ATOM     13  C   UNL     1      -3.845  -0.768  25.206  0.00  0.00    +0.001 A 
ATOM     14  C   UNL     1      -3.895  -1.071  24.441  0.00  0.00    +0.018 A 
ATOM     15  C   UNL     1      -3.945  -0.558  23.796  0.00  0.00    +0.001 A 
ATOM     16  C   UNL     1      -3.946   0.258  23.917  0.00  0.00    -0.003 A 
BRANCH  14  17
ATOM     17  C   UNL     1      -3.894  -1.887  24.319  0.00  0.00    +0.081 A 
ATOM     18  N   UNL     1      -4.383  -2.218  23.742  0.00  0.00    -0.244 NA
ATOM     19  C   UNL     1      -4.383  -3.034  23.621  0.00  0.00    +0.099 A 
ATOM     20  C   UNL     1      -3.894  -3.519  24.074  0.00  0.00    +0.021 A 
ATOM     21  C   UNL     1      -3.404  -3.188  24.651  0.00  0.00    +0.003 A 
ATOM     22  C   UNL     1      -3.405  -2.372  24.772  0.00  0.00    +0.019 A 
ENDBRANCH  14  17
ENDBRANCH  10  11
ENDBRANCH   9  10
TORSDOF 5
ENDMDL
MODEL 2
REMARK VINA RESULT:     -13.6      0.965      5.319
REMARK  Name = 
REMARK  5 active torsions:
REMARK  status: ('A' for Active; 'I' for Inactive)
REMARK    1  A    between atoms: N_9  and  C_10
REMARK    2  A    between atoms: C_10  and  C_11
REMARK    3  A    between atoms: C_14  and  C_17
REMARK    4  A    between atoms: C_27  and  C_28
REMARK    5  A    between atoms: C_30  and  C_34
REMARK                            x       y       z     vdW  Elec       q    Type
REMARK                         _______ _______ _______ _____ _____    ______ ____
ROOT
ATOM      1  O   UNL     1      -3.054   0.439  25.045  0.00  0.00    -0.267 OA
ATOM      2  C   UNL     1      -3.877   0.507  25.049  0.00  0.00    +0.261 A 
ATOM      3  N   UNL     1      -4.229   1.253  25.029  0.00  0.00    -0.299 N 
ATOM      4  C   UNL     1      -4.892   0.745  25.050  0.00  0.00    +0.110 C 
ATOM      5  C   UNL     1      -5.616   1.416  25.034  0.00  0.00    +0.039 C 
ATOM      6  C   UNL     1      -6.315   1.834  25.026  0.00  0.00    +0.011 C 
ATOM      7  C   UNL     1      -5.627   1.974  25.017  0.00  0.00    +0.054 C 
ATOM      8  C   UNL     1      -5.035   2.675  24.991  0.00  0.00    +0.078 C 
ATOM      9  N   UNL     1      -4.339   2.256  24.998  0.00  0.00    -0.269 NA
ATOM     23  C   UNL     1      -4.989   2.143  25.007  0.00  0.00    +0.074 C 
ATOM     24  C   UNL     1      -5.050   1.321  25.033  0.00  0.00    +0.041 A 
ATOM     25  C   UNL     1      -5.520   0.644  25.057  0.00  0.00    +0.013 A 
ATOM     26  C   UNL     1      -5.169  -0.101  25.078  0.00  0.00    +0.006 A 
ATOM     27  C   UNL     1      -4.347  -0.170  25.074  0.00  0.00    +0.056 A 
ENDROOT
BRANCH  27  28
ATOM     28  C   UNL     1      -3.995  -0.916  25.094  0.00  0.00    +0.005 A 
ATOM     29  C   UNL     1      -4.105  -1.442  24.467  0.00  0.00    +0.010 A 
ATOM     30  C   UNL     1      -3.753  -2.188  24.488  0.00  0.00    +0.068 A 
ATOM     31  C   UNL     1      -3.292  -2.408  25.136  0.00  0.00    +0.010 A 
ATOM     32  C   UNL     1      -3.182  -1.883  25.762  0.00  0.00    +0.001 A 
ATOM     33  C   UNL     1      -3.534  -1.137  25.741  0.00  0.00    +0.000 A 
BRANCH  30  34
ATOM     34  C   UNL     1      -3.863  -2.713  23.862  0.00  0.00    +0.100 C 
ATOM     35  N   UNL     1      -3.973  -3.238  23.235  0.00  0.00    -0.191 NA
ENDBRANCH  30  34
ENDBRANCH  27  28
BRANCH   9  10
ATOM     10  C   UNL     1      -3.529   2.103  24.997  0.00  0.00    +0.099 C 
BRANCH  10  11
ATOM     11  C   UNL     1      -2.992   2.727  24.961  0.00  0.00    -0.006 A 
ATOM     12  C   UNL     1      -2.732   3.089  25.656  0.00  0.00    -0.003 A 
ATOM     13  C   UNL     1      -2.194   3.713  25.620  0.00  0.00    +0.001 A 
ATOM     14  C   UNL     1      -1.917   3.977  24.890  0.00  0.00    +0.018 A 
ATOM     15  C   UNL     1      -2.177   3.616  24.194  0.00  0.00    +0.001 A 
ATOM     16  C   UNL     1      -2.714   2.991  24.230  0.00  0.00    -0.003 A 
BRANCH  14  17
ATOM     17  C   UNL     1      -1.379   4.602  24.853  0.00  0.00    +0.081 A 
ATOM     18  N   UNL     1      -0.588   4.454  24.668  0.00  0.00    -0.244 NA
ATOM     19  C   UNL     1      -0.050   5.079  24.632  0.00  0.00    +0.099 A 
ATOM     20  C   UNL     1      -0.302   5.850  24.779  0.00  0.00    +0.021 A 
ATOM     21  C   UNL     1      -1.094   5.998  24.963  0.00  0.00    +0.003 A 
ATOM     22  C   UNL     1      -1.631   5.373  25.000  0.00  0.00    +0.019 A 
ENDBRANCH  14  17
ENDBRANCH  10  11
ENDBRANCH   9  10
TORSDOF 5
ENDMDL
MODEL 3
REMARK VINA RESULT:     -13.2      2.341      6.219
REMARK  Name = 
REMARK  5 active torsions:
REMARK  status: ('A' for Active; 'I' for Inactive)
REMARK    1  A    between atoms: N_9  and  C_10
REMARK    2  A    between atoms: C_10  and  C_11
REMARK    3  A    between atoms: C_14  and  C_17
REMARK    4  A    between atoms: C_27  and  C_28
REMARK    5  A    between atoms: C_30  and  C_34
REMARK                            x       y       z     vdW  Elec       q    Type
REMARK                         _______ _______ _______ _____ _____    ______ ____
ROOT
ATOM      1  O   UNL     1      -2.326  -0.106  25.037  0.00  0.00    -0.267 OA
ATOM      2  C   UNL     1      -1.680  -0.477  24.682  0.00  0.00    +0.261 A 
ATOM      3  N   UNL     1      -1.026  -0.031  24.447  0.00  0.00    -0.299 N 
ATOM      4  C   UNL     1      -0.802  -0.805  24.227  0.00  0.00    +0.110 C 
ATOM      5  C   UNL     1       0.089  -0.616  23.843  0.00  0.00    +0.039 C 
ATOM      6  C   UNL     1       0.827  -0.628  23.499  0.00  0.00    +0.011 C 
ATOM      7  C   UNL     1       0.390  -0.152  23.773  0.00  0.00    +0.054 C 
ATOM      8  C   UNL     1       0.319   0.748  23.942  0.00  0.00    +0.078 C 
ATOM      9  N   UNL     1      -0.417   0.757  24.284  0.00  0.00    -0.269 NA
ATOM     23  C   UNL     1       0.006   0.323  24.023  0.00  0.00    +0.074 C 
ATOM     24  C   UNL     1      -0.381  -0.402  24.093  0.00  0.00    +0.041 A 
ATOM     25  C   UNL     1      -0.388  -1.217  23.973  0.00  0.00    +0.013 A 
ATOM     26  C   UNL     1      -1.041  -1.663  24.208  0.00  0.00    +0.006 A 
ATOM     27  C   UNL     1      -1.687  -1.293  24.563  0.00  0.00    +0.056 A 
ENDROOT
BRANCH  27  28
ATOM     28  C   UNL     1      -2.340  -1.739  24.798  0.00  0.00    +0.005 A 
ATOM     29  C   UNL     1      -2.947  -1.897  24.260  0.00  0.00    +0.010 A 
ATOM     30  C   UNL     1      -3.600  -2.343  24.495  0.00  0.00    +0.068 A 
ATOM     31  C   UNL     1      -3.647  -2.630  25.268  0.00  0.00    +0.010 A 
ATOM     32  C   UNL     1      -3.042  -2.471  25.805  0.00  0.00    +0.001 A 
ATOM     33  C   UNL     1      -2.388  -2.026  25.569  0.00  0.00    +0.000 A 
BRANCH  30  34
ATOM     34  C   UNL     1      -4.206  -2.502  23.959  0.00  0.00    +0.100 C 
ATOM     35  N   UNL     1      -4.811  -2.660  23.422  0.00  0.00    -0.191 NA
ENDBRANCH  30  34
ENDBRANCH  27  28
BRANCH   9  10
ATOM     10  C   UNL     1      -1.098   1.050  24.643  0.00  0.00    +0.099 C 
BRANCH  10  11
ATOM     11  C   UNL     1      -1.198   1.863  24.736  0.00  0.00    -0.006 A 
ATOM     12  C   UNL     1      -0.916   2.240  25.413  0.00  0.00    -0.003 A 
ATOM     13  C   UNL     1      -1.016   3.053  25.506  0.00  0.00    +0.001 A 
ATOM     14  C   UNL     1      -1.398   3.491  24.921  0.00  0.00    +0.018 A 
ATOM     15  C   UNL     1      -1.681   3.115  24.243  0.00  0.00    +0.001 A 
ATOM     16  C   UNL     1      -1.582   2.301  24.151  0.00  0.00    -0.003 A 
BRANCH  14  17
ATOM     17  C   UNL     1      -1.499   4.305  25.013  0.00  0.00    +0.081 A 
ATOM     18  N   UNL     1      -2.206   4.600  25.321  0.00  0.00    -0.244 NA
ATOM     19  C   UNL     1      -2.306   5.414  25.412  0.00  0.00    +0.099 A 
ATOM     20  C   UNL     1      -1.701   5.932  25.197  0.00  0.00    +0.021 A 
ATOM     21  C   UNL     1      -0.994   5.636  24.890  0.00  0.00    +0.003 A 
ATOM     22  C   UNL     1      -0.894   4.822  24.798  0.00  0.00    +0.019 A 
ENDBRANCH  14  17
ENDBRANCH  10  11
ENDBRANCH   9  10
TORSDOF 5
ENDMDL
MODEL 4
REMARK VINA RESULT:     -12.9      2.713      4.837
REMARK  Name = 
REMARK  5 active torsions:
REMARK  status: ('A' for Active; 'I' for Inactive)
REMARK    1  A    between atoms: N_9  and  C_10
REMARK    2  A    between atoms: C_10  and  C_11
REMARK    3  A    between atoms: C_14  and  C_17
REMARK    4  A    between atoms: C_27  and  C_28
REMARK    5  A    between atoms: C_30  and  C_34
REMARK                            x       y       z     vdW  Elec       q    Type
REMARK                         _______ _______ _______ _____ _____    ______ ____
ROOT
ATOM      1  O   UNL     1      -2.871   1.172  24.531  0.00  0.00    -0.267 OA
ATOM      2  C   UNL     1      -3.279   0.458  24.604  0.00  0.00    +0.261 A 
ATOM      3  N   UNL     1      -2.872  -0.257  24.543  0.00  0.00    -0.299 N 
ATOM      4  C   UNL     1      -3.657  -0.511  24.674  0.00  0.00    +0.110 C 
ATOM      5  C   UNL     1      -3.520  -1.489  24.660  0.00  0.00    +0.039 C 
ATOM      6  C   UNL     1      -3.575  -2.302  24.675  0.00  0.00    +0.011 C 
ATOM      7  C   UNL     1      -3.075  -1.817  24.589  0.00  0.00    +0.054 C 
ATOM      8  C   UNL     1      -2.172  -1.732  24.439  0.00  0.00    +0.078 C 
ATOM      9  N   UNL     1      -2.121  -0.921  24.424  0.00  0.00    -0.269 NA
ATOM     23  C   UNL     1      -2.578  -1.390  24.504  0.00  0.00    +0.074 C 
ATOM     24  C   UNL     1      -3.279  -0.970  24.616  0.00  0.00    +0.041 A 
ATOM     25  C   UNL     1      -4.092  -0.969  24.750  0.00  0.00    +0.013 A 
ATOM     26  C   UNL     1      -4.499  -0.255  24.811  0.00  0.00    +0.006 A 
ATOM     27  C   UNL     1      -4.092   0.459  24.738  0.00  0.00    +0.056 A 
ENDROOT
BRANCH  27  28
ATOM     28  C   UNL     1      -4.499   1.174  24.799  0.00  0.00    +0.005 A 
ATOM     29  C   UNL     1      -4.995   1.313  25.445  0.00  0.00    +0.010 A 
ATOM     30  C   UNL     1      -5.402   2.029  25.506  0.00  0.00    +0.068 A 
ATOM     31  C   UNL     1      -5.313   2.605  24.922  0.00  0.00    +0.010 A 
ATOM     32  C   UNL     1      -4.817   2.466  24.277  0.00  0.00    +0.001 A 
ATOM     33  C   UNL     1      -4.411   1.751  24.216  0.00  0.00    +0.000 A 
BRANCH  30  34
ATOM     34  C   UNL     1      -5.897   2.167  26.150  0.00  0.00    +0.100 C 
ATOM     35  N   UNL     1      -6.392   2.306  26.795  0.00  0.00    -0.191 NA
ENDBRANCH  30  34
ENDBRANCH  27  28
BRANCH   9  10
ATOM     10  C   UNL     1      -1.789  -0.169  24.364  0.00  0.00    +0.099 C 
BRANCH  10  11
ATOM     11  C   UNL     1      -1.026  -0.079  24.063  0.00  0.00    -0.006 A 
ATOM     12  C   UNL     1      -0.384  -0.414  24.458  0.00  0.00    -0.003 A 
ATOM     13  C   UNL     1       0.379  -0.324  24.158  0.00  0.00    +0.001 A 
ATOM     14  C   UNL     1       0.500   0.103  23.463  0.00  0.00    +0.018 A 
ATOM     15  C   UNL     1      -0.142   0.439  23.067  0.00  0.00    +0.001 A 
ATOM     16  C   UNL     1      -0.905   0.349  23.368  0.00  0.00    -0.003 A 
BRANCH  14  17
ATOM     17  C   UNL     1       1.263   0.194  23.162  0.00  0.00    +0.081 A 
ATOM     18  N   UNL     1       1.761   0.777  23.470  0.00  0.00    -0.244 NA
ATOM     19  C   UNL     1       2.523   0.868  23.169  0.00  0.00    +0.099 A 
ATOM     20  C   UNL     1       2.789   0.379  22.561  0.00  0.00    +0.021 A 
ATOM     21  C   UNL     1       2.291  -0.204  22.253  0.00  0.00    +0.003 A 
ATOM     22  C   UNL     1       1.528  -0.295  22.554  0.00  0.00    +0.019 A 
ENDBRANCH  14  17
ENDBRANCH  10  11
ENDBRANCH   9  10
TORSDOF 5
ENDMDL
MODEL 5
REMARK VINA RESULT:     -12.6      2.633      4.329
REMARK  Name = 
REMARK  5 active torsions:
REMARK  status: ('A' for Active; 'I' for Inactive)
REMARK    1  A    between atoms: N_9  and  C_10
REMARK    2  A    between atoms: C_10  and  C_11
REMARK    3  A    between atoms: C_14  and  C_17
REMARK    4  A    between atoms: C_27  and  C_28
REMARK    5  A    between atoms: C_30  and  C_34
REMARK                            x       y       z     vdW  Elec       q    Type
REMARK                         _______ _______ _______ _____ _____    ______ ____
ROOT
ATOM      1  O   UNL     1      -3.280   1.839  24.754  0.00  0.00    -0.267 OA
ATOM      2  C   UNL     1      -3.237   2.626  24.996  0.00  0.00    +0.261 A 
ATOM      3  N   UNL     1      -2.506   3.008  25.032  0.00  0.00    -0.299 N 
ATOM      4  C   UNL     1      -3.032   3.608  25.281  0.00  0.00    +0.110 C 
ATOM      5  C   UNL     1      -2.386   4.339  25.436  0.00  0.00    +0.039 C 
ATOM      6  C   UNL     1      -1.992   5.031  25.608  0.00  0.00    +0.011 C 
ATOM      7  C   UNL     1      -1.832   4.385  25.386  0.00  0.00    +0.054 C 
ATOM      8  C   UNL     1      -1.117   3.864  25.140  0.00  0.00    +0.078 C 
ATOM      9  N   UNL     1      -1.513   3.175  24.969  0.00  0.00    -0.269 NA
ATOM     23  C   UNL     1      -1.645   3.787  25.177  0.00  0.00    +0.074 C 
ATOM     24  C   UNL     1      -2.463   3.794  25.274  0.00  0.00    +0.041 A 
ATOM     25  C   UNL     1      -3.151   4.200  25.481  0.00  0.00    +0.013 A 
ATOM     26  C   UNL     1      -3.881   3.820  25.446  0.00  0.00    +0.006 A 
ATOM     27  C   UNL     1      -3.924   3.032  25.203  0.00  0.00    +0.056 A 
ENDROOT
BRANCH  27  28
ATOM     28  C   UNL     1      -4.655   2.651  25.168  0.00  0.00    +0.005 A 
ATOM     29  C   UNL     1      -5.070   2.488  25.863  0.00  0.00    +0.010 A 
ATOM     30  C   UNL     1      -5.801   2.107  25.828  0.00  0.00    +0.068 A 
ATOM     31  C   UNL     1      -6.117   1.888  25.097  0.00  0.00    +0.010 A 
ATOM     32  C   UNL     1      -5.702   2.050  24.403  0.00  0.00    +0.001 A 
ATOM     33  C   UNL     1      -4.971   2.431  24.439  0.00  0.00    +0.000 A 
BRANCH  30  34
ATOM     34  C   UNL     1      -6.215   1.945  26.522  0.00  0.00    +0.100 C 
ATOM     35  N   UNL     1      -6.629   1.782  27.216  0.00  0.00    -0.191 NA
ENDBRANCH  30  34
ENDBRANCH  27  28
BRANCH   9  10
ATOM     10  C   UNL     1      -1.640   2.394  24.739  0.00  0.00    +0.099 C 
BRANCH  10  11
ATOM     11  C   UNL     1      -1.025   1.958  24.403  0.00  0.00    -0.006 A 
ATOM     12  C   UNL     1      -0.471   1.585  24.887  0.00  0.00    -0.003 A 
ATOM     13  C   UNL     1       0.143   1.149  24.552  0.00  0.00    +0.001 A 
ATOM     14  C   UNL     1       0.204   1.086  23.732  0.00  0.00    +0.018 A 
ATOM     15  C   UNL     1      -0.350   1.459  23.247  0.00  0.00    +0.001 A 
ATOM     16  C   UNL     1      -0.965   1.895  23.583  0.00  0.00    -0.003 A 
BRANCH  14  17
ATOM     17  C   UNL     1       0.819   0.650  23.396  0.00  0.00    +0.081 A 
ATOM     18  N   UNL     1       1.587   0.951  23.399  0.00  0.00    -0.244 NA
ATOM     19  C   UNL     1       2.202   0.515  23.062  0.00  0.00    +0.099 A 
ATOM     20  C   UNL     1       2.049  -0.221  22.724  0.00  0.00    +0.021 A 
ATOM     21  C   UNL     1       1.280  -0.523  22.722  0.00  0.00    +0.003 A 
ATOM     22  C   UNL     1       0.666  -0.087  23.058  0.00  0.00    +0.019 A 
ENDBRANCH  14  17
ENDBRANCH  10  11
ENDBRANCH   9  10
TORSDOF 5
ENDMDL
