MODEL 1
REMARK VINA RESULT:     -11.8      0.000      0.000
REMARK  Name = 
REMARK  7 active torsions:
REMARK  status: ('A' for Active; 'I' for Inactive)
REMARK    1  A    between atoms: O_2  and  C_3
REMARK    2  A    between atoms: C_3  and  C_4
REMARK    3  A    between atoms: C_12  and  C_13
REMARK    4  A    between atoms: C_16  and  C_18
REMARK    5  A    between atoms: N_22  and  C_23
REMARK    6  A    between atoms: C_23  and  C_24
REMARK    7  A    between atoms: C_27  and  C_30
REMARK                            x       y       z     vdW  Elec       q    Type
REMARK                         _______ _______ _______ _____ _____    ______ ____
ROOT
ATOM     13  C   UNL     1      -2.958   3.354  24.588  0.00  0.00    +0.208 A 
ATOM     14  N   UNL     1      -3.339   3.367  23.856  0.00  0.00    -0.056 NA
ATOM     15  O   UNL     1      -3.985   2.854  23.895  0.00  0.00    -0.336 OA
ATOM     16  C   UNL     1      -4.002   2.524  24.651  0.00  0.00    +0.251 A 
ATOM     17  N   UNL     1      -3.367   2.833  25.079  0.00  0.00    -0.189 NA
ENDROOT
BRANCH  13  12
ATOM      4  C   UNL     1      -0.708   2.403  24.185  0.00  0.00    +0.277 C 
ATOM      5  O   UNL     1      -0.036   2.834  24.389  0.00  0.00    -0.270 OA
ATOM      6  N   UNL     1      -1.458   2.720  24.319  0.00  0.00    -0.158 NA
ATOM      7  C   UNL     1      -1.535   3.468  24.657  0.00  0.00    +0.161 A 
ATOM      8  N   UNL     1      -0.862   3.900  24.861  0.00  0.00    -0.207 NA
ATOM      9  C   UNL     1      -0.939   4.649  25.199  0.00  0.00    +0.200 A 
ATOM     10  N   UNL     1      -1.689   4.965  25.333  0.00  0.00    -0.222 NA
ATOM     11  C   UNL     1      -2.362   4.533  25.129  0.00  0.00    +0.107 A 
ATOM     12  C   UNL     1      -2.285   3.785  24.792  0.00  0.00    +0.092 A 
BRANCH   4   3
ATOM      3  C   UNL     1      -0.631   1.655  23.847  0.00  0.00    +0.229 C 
BRANCH   3   2
ATOM      1  C   UNL     1      -0.170   0.304  23.923  0.00  0.00    +0.175 C 
ATOM      2  O   UNL     1      -0.226   1.059  24.249  0.00  0.00    -0.342 OA
ENDBRANCH   3   2
ENDBRANCH   4   3
ENDBRANCH  13  12
BRANCH  16  18
ATOM     18  C   UNL     1      -4.556   1.981  24.931  0.00  0.00    +0.138 C 
ATOM     19  C   UNL     1      -5.223   2.158  25.384  0.00  0.00    +0.027 C 
ATOM     20  C   UNL     1      -5.620   1.452  25.540  0.00  0.00    +0.019 C 
ATOM     21  C   UNL     1      -5.199   0.838  25.183  0.00  0.00    +0.073 C 
ATOM     22  N   UNL     1      -4.541   1.165  24.806  0.00  0.00    -0.263 NA
BRANCH  22  23
ATOM     23  C   UNL     1      -3.970   0.750  24.381  0.00  0.00    +0.099 C 
BRANCH  23  24
ATOM     24  C   UNL     1      -3.881  -0.062  24.493  0.00  0.00    -0.006 A 
ATOM     25  C   UNL     1      -3.501  -0.346  25.167  0.00  0.00    -0.002 A 
ATOM     26  C   UNL     1      -3.412  -1.159  25.280  0.00  0.00    +0.010 A 
ATOM     27  C   UNL     1      -3.704  -1.687  24.717  0.00  0.00    +0.068 A 
ATOM     28  C   UNL     1      -4.084  -1.403  24.043  0.00  0.00    +0.010 A 
ATOM     29  C   UNL     1      -4.173  -0.591  23.930  0.00  0.00    -0.002 A 
BRANCH  27  30
ATOM     30  C   UNL     1      -3.615  -2.500  24.830  0.00  0.00    +0.100 C 
ATOM     31  N   UNL     1      -3.526  -3.312  24.942  0.00  0.00    -0.191 NA
ENDBRANCH  27  30
ENDBRANCH  23  24
ENDBRANCH  22  23
ENDBRANCH  16  18
TORSDOF 7
ENDMDL
MODEL 2
REMARK VINA RESULT:     -10.7      1.230      3.134
REMARK  Name = 
REMARK  7 active torsions:
REMARK  status: ('A' for Active; 'I' for Inactive)
REMARK    1  A    between atoms: O_2  and  C_3
REMARK    2  A    between atoms: C_3  and  C_4
REMARK    3  A    between atoms: C_12  and  C_13
REMARK    4  A    between atoms: C_16  and  C_18
REMARK    5  A    between atoms: N_22  and  C_23
REMARK    6  A    between atoms: C_23  and  C_24
REMARK    7  A    between atoms: C_27  and  C_30
REMARK                            x       y       z     vdW  Elec       q    Type
REMARK                         _______ _______ _______ _____ _____    ______ ____
ROOT
ATOM     13  C   UNL     1      -1.055   2.815  25.372  0.00  0.00    +0.208 A 
ATOM     14  N   UNL     1      -0.910   2.435  26.090  0.00  0.00    -0.056 NA
ATOM     15  O   UNL     1      -0.736   1.644  25.930  0.00  0.00    -0.336 OA
ATOM     16  C   UNL     1      -0.774   1.535  25.113  0.00  0.00    +0.251 A 
ATOM     17  N   UNL     1      -0.971   2.259  24.769  0.00  0.00    -0.189 NA
ENDROOT
BRANCH  13  12
ATOM      4  C   UNL     1      -3.422   3.530  25.479  0.00  0.00    +0.277 C 
ATOM      5  O   UNL     1      -3.617   4.326  25.382  0.00  0.00    -0.270 OA
ATOM      6  N   UNL     1      -2.633   3.292  25.443  0.00  0.00    -0.158 NA
ATOM      7  C   UNL     1      -2.039   3.848  25.311  0.00  0.00    +0.161 A 
ATOM      8  N   UNL     1      -2.234   4.644  25.214  0.00  0.00    -0.207 NA
ATOM      9  C   UNL     1      -1.640   5.202  25.081  0.00  0.00    +0.200 A 
ATOM     10  N   UNL     1      -0.852   4.963  25.046  0.00  0.00    -0.222 NA
ATOM     11  C   UNL     1      -0.657   4.167  25.143  0.00  0.00    +0.107 A 
ATOM     12  C   UNL     1      -1.250   3.610  25.275  0.00  0.00    +0.092 A 
BRANCH   4   3
ATOM      3  C   UNL     1      -4.016   2.973  25.612  0.00  0.00    +0.229 C 
BRANCH   3   2
ATOM      1  C   UNL     1      -5.348   2.507  25.386  0.00  0.00    +0.175 C 
ATOM      2  O   UNL     1      -4.759   3.071  25.266  0.00  0.00    -0.342 OA
ENDBRANCH   3   2
ENDBRANCH   4   3
ENDBRANCH  13  12
BRANCH  16  18
ATOM     18  C   UNL     1      -0.638   0.828  24.711  0.00  0.00    +0.138 C 
ATOM     19  C   UNL     1       0.020   0.653  24.246  0.00  0.00    +0.027 C 
ATOM     20  C   UNL     1      -0.071  -0.111  23.951  0.00  0.00    +0.019 C 
ATOM     21  C   UNL     1      -0.787  -0.410  24.234  0.00  0.00    +0.073 C 
ATOM     22  N   UNL     1      -1.137   0.171  24.704  0.00  0.00    -0.263 NA
BRANCH  22  23
ATOM     23  C   UNL     1      -1.859   0.106  25.098  0.00  0.00    +0.099 C 
BRANCH  23  24
ATOM     24  C   UNL     1      -2.423  -0.437  24.839  0.00  0.00    -0.006 A 
ATOM     25  C   UNL     1      -2.994  -0.209  24.290  0.00  0.00    -0.002 A 
ATOM     26  C   UNL     1      -3.559  -0.752  24.030  0.00  0.00    +0.010 A 
ATOM     27  C   UNL     1      -3.551  -1.525  24.320  0.00  0.00    +0.068 A 
ATOM     28  C   UNL     1      -2.979  -1.753  24.869  0.00  0.00    +0.010 A 
ATOM     29  C   UNL     1      -2.415  -1.210  25.128  0.00  0.00    -0.002 A 
BRANCH  27  30
ATOM     30  C   UNL     1      -4.115  -2.068  24.061  0.00  0.00    +0.100 C 
ATOM     31  N   UNL     1      -4.679  -2.611  23.801  0.00  0.00    -0.191 NA
ENDBRANCH  27  30
ENDBRANCH  23  24
ENDBRANCH  22  23
ENDBRANCH  16  18
TORSDOF 7
ENDMDL
MODEL 3
REMARK VINA RESULT:     -10.5      1.393      4.722
REMARK  Name = 
REMARK  7 active torsions:
REMARK  status: ('A' for Active; 'I' for Inactive)
REMARK    1  A    between atoms: O_2  and  C_3
REMARK    2  A    between atoms: C_3  and  C_4
REMARK    3  A    between atoms: C_12  and  C_13
REMARK    4  A    between atoms: C_16  and  C_18
REMARK    5  A    between atoms: N_22  and  C_23
REMARK    6  A    between atoms: C_23  and  C_24
REMARK    7  A    between atoms: C_27  and  C_30
REMARK                            x       y       z     vdW  Elec       q    Type
REMARK                         _______ _______ _______ _____ _____    ______ ____
ROOT
ATOM     13  C   UNL     1      -3.943  -0.745  24.918  0.00  0.00    +0.208 A 
ATOM     14  N   UNL     1      -3.988  -0.584  25.727  0.00  0.00    -0.056 NA
ATOM     15  O   UNL     1      -4.217   0.204  25.818  0.00  0.00    -0.336 OA
ATOM     16  C   UNL     1      -4.314   0.529  25.066  0.00  0.00    +0.251 A 
ATOM     17  N   UNL     1      -4.145  -0.057  24.510  0.00  0.00    -0.189 NA
ENDROOT
BRANCH  13  12
ATOM      4  C   UNL     1      -1.556  -1.349  24.672  0.00  0.00    +0.277 C 
ATOM      5  O   UNL     1      -1.346  -2.071  24.332  0.00  0.00    -0.270 OA
ATOM      6  N   UNL     1      -2.352  -1.148  24.754  0.00  0.00    -0.158 NA
ATOM      7  C   UNL     1      -2.938  -1.668  24.496  0.00  0.00    +0.161 A 
ATOM      8  N   UNL     1      -2.728  -2.390  24.157  0.00  0.00    -0.207 NA
ATOM      9  C   UNL     1      -3.315  -2.911  23.899  0.00  0.00    +0.200 A 
ATOM     10  N   UNL     1      -4.110  -2.708  23.981  0.00  0.00    -0.222 NA
ATOM     11  C   UNL     1      -4.320  -1.986  24.321  0.00  0.00    +0.107 A 
ATOM     12  C   UNL     1      -3.734  -1.467  24.578  0.00  0.00    +0.092 A 
BRANCH   4   3
ATOM      3  C   UNL     1      -0.970  -0.830  24.929  0.00  0.00    +0.229 C 
BRANCH   3   2
ATOM      1  C   UNL     1      -0.047   0.169  24.490  0.00  0.00    +0.175 C 
ATOM      2  O   UNL     1      -0.381  -0.580  24.408  0.00  0.00    -0.342 OA
ENDBRANCH   3   2
ENDBRANCH   4   3
ENDBRANCH  13  12
BRANCH  16  18
ATOM     18  C   UNL     1      -4.540   1.305  24.899  0.00  0.00    +0.138 C 
ATOM     19  C   UNL     1      -5.299   1.554  24.688  0.00  0.00    +0.027 C 
ATOM     20  C   UNL     1      -5.276   2.370  24.572  0.00  0.00    +0.019 C 
ATOM     21  C   UNL     1      -4.504   2.626  24.710  0.00  0.00    +0.073 C 
ATOM     22  N   UNL     1      -4.049   1.967  24.912  0.00  0.00    -0.263 NA
BRANCH  22  23
ATOM     23  C   UNL     1      -3.245   1.971  25.096  0.00  0.00    +0.099 C 
BRANCH  23  24
ATOM     24  C   UNL     1      -2.825   2.680  25.095  0.00  0.00    -0.006 A 
ATOM     25  C   UNL     1      -2.822   3.159  25.766  0.00  0.00    -0.002 A 
ATOM     26  C   UNL     1      -2.401   3.869  25.765  0.00  0.00    +0.010 A 
ATOM     27  C   UNL     1      -1.984   4.100  25.092  0.00  0.00    +0.068 A 
ATOM     28  C   UNL     1      -1.987   3.621  24.420  0.00  0.00    +0.010 A 
ATOM     29  C   UNL     1      -2.407   2.912  24.421  0.00  0.00    -0.002 A 
BRANCH  27  30
ATOM     30  C   UNL     1      -1.563   4.810  25.091  0.00  0.00    +0.100 C 
ATOM     31  N   UNL     1      -1.143   5.520  25.090  0.00  0.00    -0.191 NA
ENDBRANCH  27  30
ENDBRANCH  23  24
ENDBRANCH  22  23
ENDBRANCH  16  18
TORSDOF 7
ENDMDL
MODEL 4
REMARK VINA RESULT:     -10.3      1.533      5.547
REMARK  Name = 
REMARK  7 active torsions:
REMARK  status: ('A' for Active; 'I' for Inactive)
REMARK    1  A    between atoms: O_2  and  C_3
REMARK    2  A    between atoms: C_3  and  C_4
REMARK    3  A    between atoms: C_12  and  C_13
REMARK    4  A    between atoms: C_16  and  C_18
REMARK    5  A    between atoms: N_22  and  C_23
REMARK    6  A    between atoms: C_23  and  C_24
REMARK    7  A    between atoms: C_27  and  C_30
REMARK                            x       y       z     vdW  Elec       q    Type
REMARK                         _______ _______ _______ _____ _____    ______ ____
ROOT
ATOM     13  C   UNL     1      -2.010  -1.023  24.878  0.00  0.00    +0.208 A 
ATOM     14  N   UNL     1      -1.670  -0.965  25.628  0.00  0.00    -0.056 NA
ATOM     15  O   UNL     1      -1.052  -0.419  25.587  0.00  0.00    -0.336 OA
ATOM     16  C   UNL     1      -1.010  -0.140  24.812  0.00  0.00    +0.251 A 
ATOM     17  N   UNL     1      -1.602  -0.513  24.374  0.00  0.00    -0.189 NA
ENDROOT
BRANCH  13  12
ATOM      4  C   UNL     1      -4.298  -0.084  24.785  0.00  0.00    +0.277 C 
ATOM      5  O   UNL     1      -4.934  -0.567  24.576  0.00  0.00    -0.270 OA
ATOM      6  N   UNL     1      -3.535  -0.397  24.816  0.00  0.00    -0.158 NA
ATOM      7  C   UNL     1      -3.408  -1.192  24.639  0.00  0.00    +0.161 A 
ATOM      8  N   UNL     1      -4.043  -1.675  24.430  0.00  0.00    -0.207 NA
ATOM      9  C   UNL     1      -3.916  -2.472  24.253  0.00  0.00    +0.200 A 
ATOM     10  N   UNL     1      -3.153  -2.784  24.284  0.00  0.00    -0.222 NA
ATOM     11  C   UNL     1      -2.518  -2.301  24.493  0.00  0.00    +0.107 A 
ATOM     12  C   UNL     1      -2.645  -1.506  24.670  0.00  0.00    +0.092 A 
BRANCH   4   3
ATOM      3  C   UNL     1      -4.425   0.711  24.962  0.00  0.00    +0.229 C 
BRANCH   3   2
ATOM      1  C   UNL     1      -5.262   1.869  24.923  0.00  0.00    +0.175 C 
ATOM      2  O   UNL     1      -5.132   1.075  24.742  0.00  0.00    -0.342 OA
ENDBRANCH   3   2
ENDBRANCH   4   3
ENDBRANCH  13  12
BRANCH  16  18
ATOM     18  C   UNL     1      -0.472   0.415  24.525  0.00  0.00    +0.138 C 
ATOM     19  C   UNL     1       0.125   0.272  23.974  0.00  0.00    +0.027 C 
ATOM     20  C   UNL     1       0.530   0.978  23.846  0.00  0.00    +0.019 C 
ATOM     21  C   UNL     1       0.184   1.560  24.319  0.00  0.00    +0.073 C 
ATOM     22  N   UNL     1      -0.436   1.212  24.738  0.00  0.00    -0.263 NA
BRANCH  22  23
ATOM     23  C   UNL     1      -0.932   1.593  25.275  0.00  0.00    +0.099 C 
BRANCH  23  24
ATOM     24  C   UNL     1      -1.033   2.410  25.236  0.00  0.00    -0.006 A 
ATOM     25  C   UNL     1      -0.542   2.908  25.672  0.00  0.00    -0.002 A 
ATOM     26  C   UNL     1      -0.642   3.727  25.633  0.00  0.00    +0.010 A 
ATOM     27  C   UNL     1      -1.236   4.046  25.156  0.00  0.00    +0.068 A 
ATOM     28  C   UNL     1      -1.727   3.548  24.720  0.00  0.00    +0.010 A 
ATOM     29  C   UNL     1      -1.626   2.730  24.759  0.00  0.00    -0.002 A 
BRANCH  27  30
ATOM     30  C   UNL     1      -1.336   4.864  25.116  0.00  0.00    +0.100 C 
ATOM     31  N   UNL     1      -1.437   5.682  25.077  0.00  0.00    -0.191 NA
ENDBRANCH  27  30
ENDBRANCH  23  24
ENDBRANCH  22  23
ENDBRANCH  16  18
TORSDOF 7
ENDMDL
MODEL 5
REMARK VINA RESULT:     -10.0      1.888      4.452
REMARK  Name = 
REMARK  7 active torsions:
REMARK  status: ('A' for Active; 'I' for Inactive)
REMARK    1  A    between atoms: O_2  and  C_3
REMARK    2  A    between atoms: C_3  and  C_4
REMARK    3  A    between atoms: C_12  and  C_13
REMARK    4  A    between atoms: C_16  and  C_18
REMARK    5  A    between atoms: N_22  and  C_23
REMARK    6  A    between atoms: C_23  and  C_24
REMARK    7  A    between atoms: C_27  and  C_30
REMARK                            x       y       z     vdW  Elec       q    Type
REMARK                         _______ _______ _______ _____ _____    ______ ____
ROOT
ATOM     13  C   UNL     1       0.066   1.854  24.655  0.00  0.00    +0.208 A 
ATOM     14  N   UNL     1       0.275   1.963  25.446  0.00  0.00    -0.056 NA
ATOM     15  O   UNL     1      -0.052   2.677  25.700  0.00  0.00    -0.336 OA
ATOM     16  C   UNL     1      -0.464   3.009  25.067  0.00  0.00    +0.251 A 
ATOM     17  N   UNL     1      -0.391   2.500  24.421  0.00  0.00    -0.189 NA
ENDROOT
BRANCH  13  12
ATOM      4  C   UNL     1      -1.220  -0.256  24.790  0.00  0.00    +0.277 C 
ATOM      5  O   UNL     1      -1.010  -0.898  24.317  0.00  0.00    -0.270 OA
ATOM      6  N   UNL     1      -0.791   0.447  24.745  0.00  0.00    -0.158 NA
ATOM      7  C   UNL     1      -0.153   0.509  24.227  0.00  0.00    +0.161 A 
ATOM      8  N   UNL     1       0.058  -0.134  23.754  0.00  0.00    -0.207 NA
ATOM      9  C   UNL     1       0.698  -0.073  23.236  0.00  0.00    +0.200 A 
ATOM     10  N   UNL     1       1.126   0.631  23.191  0.00  0.00    -0.222 NA
ATOM     11  C   UNL     1       0.915   1.273  23.664  0.00  0.00    +0.107 A 
ATOM     12  C   UNL     1       0.277   1.212  24.182  0.00  0.00    +0.092 A 
BRANCH   4   3
ATOM      3  C   UNL     1      -1.859  -0.317  25.308  0.00  0.00    +0.229 C 
BRANCH   3   2
ATOM      1  C   UNL     1      -3.187  -0.766  25.587  0.00  0.00    +0.175 C 
ATOM      2  O   UNL     1      -2.537  -0.730  25.081  0.00  0.00    -0.342 OA
ENDBRANCH   3   2
ENDBRANCH   4   3
ENDBRANCH  13  12
BRANCH  16  18
ATOM     18  C   UNL     1      -0.876   3.723  25.077  0.00  0.00    +0.138 C 
ATOM     19  C   UNL     1      -0.564   4.466  24.897  0.00  0.00    +0.027 C 
ATOM     20  C   UNL     1      -1.167   5.022  24.977  0.00  0.00    +0.019 C 
ATOM     21  C   UNL     1      -1.853   4.624  25.206  0.00  0.00    +0.073 C 
ATOM     22  N   UNL     1      -1.673   3.821  25.268  0.00  0.00    -0.263 NA
BRANCH  22  23
ATOM     23  C   UNL     1      -2.197   3.222  25.482  0.00  0.00    +0.099 C 
BRANCH  23  24
ATOM     24  C   UNL     1      -3.007   3.372  25.506  0.00  0.00    -0.006 A 
ATOM     25  C   UNL     1      -3.347   3.695  26.184  0.00  0.00    -0.002 A 
ATOM     26  C   UNL     1      -4.159   3.845  26.209  0.00  0.00    +0.010 A 
ATOM     27  C   UNL     1      -4.629   3.671  25.554  0.00  0.00    +0.068 A 
ATOM     28  C   UNL     1      -4.289   3.348  24.875  0.00  0.00    +0.010 A 
ATOM     29  C   UNL     1      -3.479   3.198  24.851  0.00  0.00    -0.002 A 
BRANCH  27  30
ATOM     30  C   UNL     1      -5.441   3.822  25.578  0.00  0.00    +0.100 C 
ATOM     31  N   UNL     1      -6.251   3.971  25.602  0.00  0.00    -0.191 NA
ENDBRANCH  27  30
ENDBRANCH  23  24
ENDBRANCH  22  23
ENDBRANCH  16  18
TORSDOF 7
ENDMDL
MODEL 6
REMARK VINA RESULT:      -9.5      1.822      3.855
REMARK  Name = 
REMARK  7 active torsions:
REMARK  status: ('A' for Active; 'I' for Inactive)
REMARK    1  A    between atoms: O_2  and  C_3
REMARK    2  A    between atoms: C_3  and  C_4
REMARK    3  A    between atoms: C_12  and  C_13
REMARK    4  A    between atoms: C_16  and  C_18
REMARK    5  A    between atoms: N_22  and  C_23
REMARK    6  A    between atoms: C_23  and  C_24
REMARK    7  A    between atoms: C_27  and  C_30
REMARK                            x       y       z     vdW  Elec       q    Type
REMARK                         _______ _______ _______ _____ _____    ______ ____
ROOT
ATOM     13  C   UNL     1      -0.587  -0.623  24.355  0.00  0.00    +0.208 A 
ATOM     14  N   UNL     1      -0.522  -0.970  25.101  0.00  0.00    -0.056 NA
ATOM     15  O   UNL     1      -1.254  -1.300  25.293  0.00  0.00    -0.336 OA
ATOM     16  C   UNL     1      -1.770  -1.156  24.665  0.00  0.00    +0.251 A 
ATOM     17  N   UNL     1      -1.358  -0.738  24.086  0.00  0.00    -0.189 NA
ENDROOT
BRANCH  13  12
ATOM      4  C   UNL     1      -0.101   1.751  24.862  0.00  0.00    +0.277 C 
ATOM      5  O   UNL     1       0.501   2.144  24.457  0.00  0.00    -0.270 OA
ATOM      6  N   UNL     1      -0.263   0.960  24.693  0.00  0.00    -0.158 NA
ATOM      7  C   UNL     1       0.177   0.562  24.120  0.00  0.00    +0.161 A 
ATOM      8  N   UNL     1       0.778   0.955  23.715  0.00  0.00    -0.207 NA
ATOM      9  C   UNL     1       1.218   0.557  23.140  0.00  0.00    +0.200 A 
ATOM     10  N   UNL     1       1.056  -0.234  22.972  0.00  0.00    -0.222 NA
ATOM     11  C   UNL     1       0.454  -0.627  23.377  0.00  0.00    +0.107 A 
ATOM     12  C   UNL     1       0.015  -0.229  23.950  0.00  0.00    +0.092 A 
BRANCH   4   3
ATOM      3  C   UNL     1      -0.540   2.149  25.435  0.00  0.00    +0.229 C 
BRANCH   3   2
ATOM      1  C   UNL     1      -1.413   3.219  25.803  0.00  0.00    +0.175 C 
ATOM      2  O   UNL     1      -0.947   2.839  25.239  0.00  0.00    -0.342 OA
ENDBRANCH   3   2
ENDBRANCH   4   3
ENDBRANCH  13  12
BRANCH  16  18
ATOM     18  C   UNL     1      -2.560  -1.390  24.624  0.00  0.00    +0.138 C 
ATOM     19  C   UNL     1      -2.836  -2.124  24.365  0.00  0.00    +0.027 C 
ATOM     20  C   UNL     1      -3.659  -2.119  24.415  0.00  0.00    +0.019 C 
ATOM     21  C   UNL     1      -3.893  -1.382  24.705  0.00  0.00    +0.073 C 
ATOM     22  N   UNL     1      -3.213  -0.932  24.834  0.00  0.00    -0.263 NA
BRANCH  22  23
ATOM     23  C   UNL     1      -3.192  -0.160  25.123  0.00  0.00    +0.099 C 
BRANCH  23  24
ATOM     24  C   UNL     1      -3.860   0.320  25.069  0.00  0.00    -0.006 A 
ATOM     25  C   UNL     1      -3.921   0.874  24.461  0.00  0.00    -0.002 A 
ATOM     26  C   UNL     1      -4.590   1.355  24.407  0.00  0.00    +0.010 A 
ATOM     27  C   UNL     1      -5.197   1.280  24.961  0.00  0.00    +0.068 A 
ATOM     28  C   UNL     1      -5.135   0.726  25.568  0.00  0.00    +0.010 A 
ATOM     29  C   UNL     1      -4.467   0.246  25.623  0.00  0.00    -0.002 A 
BRANCH  27  30
ATOM     30  C   UNL     1      -5.866   1.761  24.906  0.00  0.00    +0.100 C 
ATOM     31  N   UNL     1      -6.534   2.241  24.852  0.00  0.00    -0.191 NA
ENDBRANCH  27  30
ENDBRANCH  23  24
ENDBRANCH  22  23
ENDBRANCH  16  18
TORSDOF 7
ENDMDL
MODEL 7
REMARK VINA RESULT:      -9.4      1.628      3.637
REMARK  Name = 
REMARK  7 active torsions:
REMARK  status: ('A' for Active; 'I' for Inactive)
REMARK    1  A    between atoms: O_2  and  C_3
REMARK    2  A    between atoms: C_3  and  C_4
REMARK    3  A    between atoms: C_12  and  C_13
REMARK    4  A    between atoms: C_16  and  C_18
REMARK    5  A    between atoms: N_22  and  C_23
REMARK    6  A    between atoms: C_23  and  C_24
REMARK    7  A    between atoms: C_27  and  C_30
REMARK                            x       y       z     vdW  Elec       q    Type
REMARK                         _______ _______ _______ _____ _____    ______ ____
ROOT
ATOM     13  C   UNL     1      -3.360   3.097  25.014  0.00  0.00    +0.208 A 
ATOM     14  N   UNL     1      -3.053   3.308  24.277  0.00  0.00    -0.056 NA
ATOM     15  O   UNL     1      -2.240   3.164  24.290  0.00  0.00    -0.336 OA
ATOM     16  C   UNL     1      -2.045   2.865  25.033  0.00  0.00    +0.251 A 
ATOM     17  N   UNL     1      -2.738   2.823  25.481  0.00  0.00    -0.189 NA
ENDROOT
BRANCH  13  12
ATOM      4  C   UNL     1      -4.884   1.180  24.653  0.00  0.00    +0.277 C 
ATOM      5  O   UNL     1      -5.675   1.234  24.882  0.00  0.00    -0.270 OA
ATOM      6  N   UNL     1      -4.377   1.820  24.774  0.00  0.00    -0.158 NA
ATOM      7  C   UNL     1      -4.659   2.511  25.122  0.00  0.00    +0.161 A 
ATOM      8  N   UNL     1      -5.450   2.565  25.351  0.00  0.00    -0.207 NA
ATOM      9  C   UNL     1      -5.732   3.258  25.700  0.00  0.00    +0.200 A 
ATOM     10  N   UNL     1      -5.224   3.896  25.820  0.00  0.00    -0.222 NA
ATOM     11  C   UNL     1      -4.433   3.842  25.591  0.00  0.00    +0.107 A 
ATOM     12  C   UNL     1      -4.151   3.150  25.242  0.00  0.00    +0.092 A 
BRANCH   4   3
ATOM      3  C   UNL     1      -4.602   0.489  24.305  0.00  0.00    +0.229 C 
BRANCH   3   2
ATOM      1  C   UNL     1      -4.369  -0.920  24.363  0.00  0.00    +0.175 C 
ATOM      2  O   UNL     1      -4.632  -0.225  24.719  0.00  0.00    -0.342 OA
ENDBRANCH   3   2
ENDBRANCH   4   3
ENDBRANCH  13  12
BRANCH  16  18
ATOM     18  C   UNL     1      -1.291   2.645  25.285  0.00  0.00    +0.138 C 
ATOM     19  C   UNL     1      -0.786   3.098  25.755  0.00  0.00    +0.027 C 
ATOM     20  C   UNL     1      -0.092   2.668  25.873  0.00  0.00    +0.019 C 
ATOM     21  C   UNL     1      -0.169   1.948  25.476  0.00  0.00    +0.073 C 
ATOM     22  N   UNL     1      -0.910   1.934  25.113  0.00  0.00    -0.263 NA
BRANCH  22  23
ATOM     23  C   UNL     1      -1.215   1.318  24.658  0.00  0.00    +0.099 C 
BRANCH  23  24
ATOM     24  C   UNL     1      -0.982   0.541  24.806  0.00  0.00    -0.006 A 
ATOM     25  C   UNL     1      -1.222   0.162  25.497  0.00  0.00    -0.002 A 
ATOM     26  C   UNL     1      -0.988  -0.616  25.645  0.00  0.00    +0.010 A 
ATOM     27  C   UNL     1      -0.514  -1.014  25.100  0.00  0.00    +0.068 A 
ATOM     28  C   UNL     1      -0.273  -0.635  24.408  0.00  0.00    +0.010 A 
ATOM     29  C   UNL     1      -0.507   0.142  24.261  0.00  0.00    -0.002 A 
BRANCH  27  30
ATOM     30  C   UNL     1      -0.280  -1.791  25.248  0.00  0.00    +0.100 C 
ATOM     31  N   UNL     1      -0.046  -2.568  25.395  0.00  0.00    -0.191 NA
ENDBRANCH  27  30
ENDBRANCH  23  24
ENDBRANCH  22  23
ENDBRANCH  16  18
TORSDOF 7
ENDMDL
MODEL 8
REMARK VINA RESULT:      -9.1      1.536      3.641
REMARK  Name = 
REMARK  7 active torsions:
REMARK  status: ('A' for Active; 'I' for Inactive)
REMARK    1  A    between atoms: O_2  and  C_3
REMARK    2  A    between atoms: C_3  and  C_4
REMARK    3  A    between atoms: C_12  and  C_13
REMARK    4  A    between atoms: C_16  and  C_18
REMARK    5  A    between atoms: N_22  and  C_23
REMARK    6  A    between atoms: C_23  and  C_24
REMARK    7  A    between atoms: C_27  and  C_30
REMARK                            x       y       z     vdW  Elec       q    Type
REMARK                         _______ _______ _______ _____ _____    ______ ____
ROOT
ATOM     13  C   UNL     1      -4.338   1.571  24.668  0.00  0.00    +0.208 A 
ATOM     14  N   UNL     1      -4.135   1.602  23.869  0.00  0.00    -0.056 NA
ATOM     15  O   UNL     1      -3.720   0.913  23.685  0.00  0.00    -0.336 OA
ATOM     16  C   UNL     1      -3.668   0.456  24.370  0.00  0.00    +0.251 A 
ATOM     17  N   UNL     1      -4.050   0.863  24.978  0.00  0.00    -0.189 NA
ENDROOT
BRANCH  13  12
ATOM      4  C   UNL     1      -3.178   3.605  25.471  0.00  0.00    +0.277 C 
ATOM      5  O   UNL     1      -3.596   4.182  25.887  0.00  0.00    -0.270 OA
ATOM      6  N   UNL     1      -3.565   2.927  25.204  0.00  0.00    -0.158 NA
ATOM      7  C   UNL     1      -4.370   2.826  25.352  0.00  0.00    +0.161 A 
ATOM      8  N   UNL     1      -4.788   3.402  25.768  0.00  0.00    -0.207 NA
ATOM      9  C   UNL     1      -5.594   3.301  25.917  0.00  0.00    +0.200 A 
ATOM     10  N   UNL     1      -5.980   2.623  25.649  0.00  0.00    -0.222 NA
ATOM     11  C   UNL     1      -5.562   2.046  25.233  0.00  0.00    +0.107 A 
ATOM     12  C   UNL     1      -4.757   2.148  25.084  0.00  0.00    +0.092 A 
BRANCH   4   3
ATOM      3  C   UNL     1      -2.373   3.707  25.323  0.00  0.00    +0.229 C 
BRANCH   3   2
ATOM      1  C   UNL     1      -1.249   4.570  25.140  0.00  0.00    +0.175 C 
ATOM      2  O   UNL     1      -2.043   4.463  25.335  0.00  0.00    -0.342 OA
ENDBRANCH   3   2
ENDBRANCH   4   3
ENDBRANCH  13  12
BRANCH  16  18
ATOM     18  C   UNL     1      -3.299  -0.278  24.436  0.00  0.00    +0.138 C 
ATOM     19  C   UNL     1      -3.667  -1.014  24.370  0.00  0.00    +0.027 C 
ATOM     20  C   UNL     1      -3.093  -1.597  24.473  0.00  0.00    +0.019 C 
ATOM     21  C   UNL     1      -2.369  -1.222  24.604  0.00  0.00    +0.073 C 
ATOM     22  N   UNL     1      -2.497  -0.407  24.581  0.00  0.00    -0.263 NA
BRANCH  22  23
ATOM     23  C   UNL     1      -1.923   0.176  24.685  0.00  0.00    +0.099 C 
BRANCH  23  24
ATOM     24  C   UNL     1      -1.189   0.103  24.317  0.00  0.00    -0.006 A 
ATOM     25  C   UNL     1      -0.689  -0.523  24.513  0.00  0.00    -0.002 A 
ATOM     26  C   UNL     1       0.046  -0.596  24.144  0.00  0.00    +0.010 A 
ATOM     27  C   UNL     1       0.280  -0.042  23.579  0.00  0.00    +0.068 A 
ATOM     28  C   UNL     1      -0.220   0.583  23.382  0.00  0.00    +0.010 A 
ATOM     29  C   UNL     1      -0.954   0.656  23.751  0.00  0.00    -0.002 A 
BRANCH  27  30
ATOM     30  C   UNL     1       1.015  -0.116  23.210  0.00  0.00    +0.100 C 
ATOM     31  N   UNL     1       1.749  -0.189  22.842  0.00  0.00    -0.191 NA
ENDBRANCH  27  30
ENDBRANCH  23  24
ENDBRANCH  22  23
ENDBRANCH  16  18
TORSDOF 7
ENDMDL
