REMARK  Name = 
REMARK  6 active torsions:
REMARK  status: ('A' for Active; 'I' for Inactive)
REMARK    1  A    between atoms: C_2  and  C_3
REMARK    2  A    between atoms: C_3  and  O_4
REMARK    3  A    between atoms: O_4  and  C_5
REMARK    4  A    between atoms: N_11  and  C_12
REMARK    5  A    between atoms: C_16  and  N_20
REMARK    6  A    between atoms: C_23  and  C_27
REMARK                            x       y       z     vdW  Elec       q    Type
REMARK                         _______ _______ _______ _____ _____    ______ ____
ROOT
ATOM     12  C   UNL     1       1.270  -0.922   0.000  0.00  0.00    +0.154 C 
ATOM     13  C   UNL     1       0.785  -0.255   0.000  0.00  0.00    +0.166 C 
ATOM     14  O   UNL     1       1.270   0.412   0.000  0.00  0.00    -0.350 OA
ATOM     15  C   UNL     1       2.054   0.158   0.000  0.00  0.00    +0.166 C 
ATOM     16  C   UNL     1       2.839   0.412   0.000  0.00  0.00    +0.154 C 
ATOM     17  C   UNL     1       3.324  -0.255   0.000  0.00  0.00    +0.166 C 
ATOM     18  O   UNL     1       2.839  -0.922   0.000  0.00  0.00    -0.350 OA
ATOM     19  C   UNL     1       2.054  -0.667   0.000  0.00  0.00    +0.166 C 
ENDROOT
BRANCH  16  20
ATOM     20  N   UNL     1       3.094   1.197   0.000  0.00  0.00    -0.200 NA
ATOM     21  C   UNL     1       3.901   1.369   0.000  0.00  0.00    +0.236 A 
ATOM     22  N   UNL     1       4.156   2.153   0.000  0.00  0.00    -0.217 NA
ATOM     23  C   UNL     1       4.963   2.325   0.000  0.00  0.00    +0.063 A 
ATOM     24  C   UNL     1       5.515   1.712   0.000  0.00  0.00    +0.035 A 
ATOM     25  C   UNL     1       5.260   0.927   0.000  0.00  0.00    +0.103 A 
ATOM     26  N   UNL     1       4.453   0.756   0.000  0.00  0.00    -0.211 NA
BRANCH  23  27
ATOM     27  C   UNL     1       5.218   3.109   0.000  0.00  0.00    +0.040 C 
ATOM     28  C   UNL     1       4.733   3.777   0.000  0.00  0.00    +0.006 C 
ATOM     29  C   UNL     1       5.218   4.444   0.000  0.00  0.00    +0.000 C 
ATOM     30  C   UNL     1       6.002   4.189   0.000  0.00  0.00    +0.000 C 
ATOM     31  C   UNL     1       6.002   3.364   0.000  0.00  0.00    +0.006 C 
ENDBRANCH  23  27
ENDBRANCH  16  20
BRANCH  12  11
ATOM      1  O   UNL     1      -0.344  -1.265   0.000  0.00  0.00    -0.269 OA
ATOM      2  C   UNL     1       0.208  -1.879   0.000  0.00  0.00    +0.286 C 
ATOM     11  N   UNL     1       1.015  -1.707   0.000  0.00  0.00    -0.199 NA
BRANCH   2   3
ATOM      3  C   UNL     1      -0.047  -2.663   0.000  0.00  0.00    +0.291 C 
BRANCH   3   4
ATOM      4  O   UNL     1      -0.854  -2.835   0.000  0.00  0.00    -0.466 OA
BRANCH   4   5
ATOM      5  C   UNL     1      -1.109  -3.619   0.000  0.00  0.00    +0.139 A 
ATOM      6  C   UNL     1      -0.557  -4.232   0.000  0.00  0.00    +0.037 A 
ATOM      7  C   UNL     1      -0.812  -5.017   0.000  0.00  0.00    +0.003 A 
ATOM      8  C   UNL     1      -1.619  -5.189   0.000  0.00  0.00    +0.000 A 
ATOM      9  C   UNL     1      -2.171  -4.575   0.000  0.00  0.00    +0.003 A 
ATOM     10  C   UNL     1      -1.916  -3.791   0.000  0.00  0.00    +0.037 A 
ENDBRANCH   4   5
ENDBRANCH   3   4
ENDBRANCH   2   3
ENDBRANCH  12  11
TORSDOF 6
