MODEL 1
REMARK VINA RESULT:      -8.4      0.000      0.000
REMARK  Name = 
REMARK  8 active torsions:
REMARK  status: ('A' for Active; 'I' for Inactive)
REMARK    1  A    between atoms: O_2  and  C_3
REMARK    2  A    between atoms: C_6  and  C_9
REMARK    3  A    between atoms: C_12  and  C_13
REMARK    4  A    between atoms: C_13  and  C_14
REMARK    5  A    between atoms: C_16  and  C_17
REMARK    6  A    between atoms: C_20  and  C_21
REMARK    7  A    between atoms: C_21  and  N_22
REMARK    8  A    between atoms: N_25  and  C_28
REMARK                            x       y       z     vdW  Elec       q    Type
REMARK                         _______ _______ _______ _____ _____    ______ ____
ROOT
ATOM     14  C   UNL     1      -0.400   0.617  23.927  0.00  0.00    +0.027 C 
ATOM     15  C   UNL     1      -0.013   1.309  24.153  0.00  0.00    +0.005 C 
ATOM     16  C   UNL     1      -0.447   1.995  24.305  0.00  0.00    +0.006 C 
ATOM     20  C   UNL     1      -1.268   1.986  24.232  0.00  0.00    +0.037 C 
ATOM     34  C   UNL     1      -1.656   1.293  24.006  0.00  0.00    -0.034 C 
ATOM     35  C   UNL     1      -1.222   0.609  23.853  0.00  0.00    -0.048 C 
ATOM     36  C   UNL     1      -1.609  -0.083  23.628  0.00  0.00    +0.026 C 
ENDROOT
BRANCH  16  17
ATOM     17  C   UNL     1      -0.060   2.687  24.531  0.00  0.00    +0.000 C 
ATOM     18  C   UNL     1       0.086   3.278  23.974  0.00  0.00    +0.000 C 
ATOM     19  C   UNL     1       0.181   2.789  25.313  0.00  0.00    +0.000 C 
ENDBRANCH  16  17
BRANCH  14  13
ATOM     13  C   UNL     1       0.034  -0.067  23.775  0.00  0.00    +0.091 C 
BRANCH  13  12
ATOM      9  C   UNL     1       1.985   0.068  22.918  0.00  0.00    +0.250 A 
ATOM     10  N   UNL     1       1.520  -0.018  22.242  0.00  0.00    -0.107 NA
ATOM     11  N   UNL     1       0.732  -0.079  22.481  0.00  0.00    -0.111 NA
ATOM     12  C   UNL     1       0.711  -0.031  23.304  0.00  0.00    +0.227 A 
ATOM     37  O   UNL     1       1.485   0.059  23.575  0.00  0.00    -0.420 OA
BRANCH   9   6
ATOM      3  C   UNL     1       4.448   0.306  22.969  0.00  0.00    +0.139 A 
ATOM      4  C   UNL     1       3.976   0.944  22.745  0.00  0.00    +0.037 A 
ATOM      5  C   UNL     1       3.155   0.865  22.728  0.00  0.00    +0.008 A 
ATOM      6  C   UNL     1       2.806   0.147  22.935  0.00  0.00    +0.055 A 
ATOM      7  C   UNL     1       3.278  -0.492  23.159  0.00  0.00    +0.008 A 
ATOM      8  C   UNL     1       4.099  -0.412  23.176  0.00  0.00    +0.037 A 
BRANCH   3   2
ATOM      1  C   UNL     1       5.702   0.064  23.610  0.00  0.00    +0.252 C 
ATOM      2  O   UNL     1       5.269   0.386  22.985  0.00  0.00    -0.471 OA
ENDBRANCH   3   2
ENDBRANCH   9   6
ENDBRANCH  13  12
ENDBRANCH  14  13
BRANCH  20  21
ATOM     21  C   UNL     1      -1.704   2.671  24.384  0.00  0.00    +0.076 C 
BRANCH  21  22
ATOM     22  N   UNL     1      -2.501   2.617  24.584  0.00  0.00    -0.269 NA
ATOM     23  C   UNL     1      -2.722   2.450  25.362  0.00  0.00    +0.094 C 
ATOM     24  C   UNL     1      -3.519   2.396  25.562  0.00  0.00    +0.110 C 
ATOM     25  N   UNL     1      -4.099   2.508  24.985  0.00  0.00    -0.289 N 
ATOM     26  C   UNL     1      -3.879   2.674  24.208  0.00  0.00    +0.110 C 
ATOM     27  C   UNL     1      -3.081   2.729  24.007  0.00  0.00    +0.094 C 
BRANCH  25  28
ATOM     28  C   UNL     1      -4.896   2.453  25.187  0.00  0.00    +0.151 A 
ATOM     29  C   UNL     1      -5.238   3.018  25.683  0.00  0.00    +0.133 A 
ATOM     30  N   UNL     1      -6.035   2.963  25.883  0.00  0.00    -0.238 NA
ATOM     31  C   UNL     1      -6.493   2.342  25.589  0.00  0.00    +0.120 A 
ATOM     32  C   UNL     1      -6.152   1.778  25.093  0.00  0.00    +0.121 A 
ATOM     33  N   UNL     1      -5.355   1.833  24.892  0.00  0.00    -0.226 NA
ENDBRANCH  25  28
ENDBRANCH  21  22
ENDBRANCH  20  21
TORSDOF 8
ENDMDL
MODEL 2
REMARK VINA RESULT:      -7.7      2.221      6.168
REMARK  Name = 
REMARK  8 active torsions:
REMARK  status: ('A' for Active; 'I' for Inactive)
REMARK    1  A    between atoms: O_2  and  C_3
REMARK    2  A    between atoms: C_6  and  C_9
REMARK    3  A    between atoms: C_12  and  C_13
REMARK    4  A    between atoms: C_13  and  C_14
REMARK    5  A    between atoms: C_16  and  C_17
REMARK    6  A    between atoms: C_20  and  C_21
REMARK    7  A    between atoms: C_21  and  N_22
REMARK    8  A    between atoms: N_25  and  C_28
REMARK                            x       y       z     vdW  Elec       q    Type
REMARK                         _______ _______ _______ _____ _____    ______ ____
ROOT
ATOM     14  C   UNL     1      -2.950   2.449  24.165  0.00  0.00    +0.027 C 
ATOM     15  C   UNL     1      -2.726   2.760  24.895  0.00  0.00    +0.005 C 
ATOM     16  C   UNL     1      -1.932   2.928  25.046  0.00  0.00    +0.006 C 
ATOM     20  C   UNL     1      -1.363   2.785  24.467  0.00  0.00    +0.037 C 
ATOM     34  C   UNL     1      -1.587   2.474  23.736  0.00  0.00    -0.034 C 
ATOM     35  C   UNL     1      -2.380   2.306  23.585  0.00  0.00    -0.048 C 
ATOM     36  C   UNL     1      -2.604   1.995  22.855  0.00  0.00    +0.026 C 
ENDROOT
BRANCH  16  17
ATOM     17  C   UNL     1      -1.708   3.239  25.777  0.00  0.00    +0.000 C 
ATOM     18  C   UNL     1      -1.650   4.056  25.877  0.00  0.00    +0.000 C 
ATOM     19  C   UNL     1      -1.542   2.733  26.407  0.00  0.00    +0.000 C 
ENDBRANCH  16  17
BRANCH  14  13
ATOM     13  C   UNL     1      -3.743   2.281  24.014  0.00  0.00    +0.091 C 
BRANCH  13  12
ATOM      9  C   UNL     1      -4.251   0.295  24.611  0.00  0.00    +0.250 A 
ATOM     10  N   UNL     1      -4.930   0.708  24.834  0.00  0.00    -0.107 NA
ATOM     11  N   UNL     1      -4.823   1.502  24.637  0.00  0.00    -0.111 NA
ATOM     12  C   UNL     1      -4.077   1.581  24.293  0.00  0.00    +0.227 A 
ATOM     37  O   UNL     1      -3.723   0.835  24.277  0.00  0.00    -0.420 OA
BRANCH   9   6
ATOM      3  C   UNL     1      -3.863  -2.132  24.897  0.00  0.00    +0.139 A 
ATOM      4  C   UNL     1      -3.647  -1.606  25.494  0.00  0.00    +0.037 A 
ATOM      5  C   UNL     1      -3.776  -0.797  25.399  0.00  0.00    +0.008 A 
ATOM      6  C   UNL     1      -4.122  -0.514  24.707  0.00  0.00    +0.055 A 
ATOM      7  C   UNL     1      -4.339  -1.039  24.108  0.00  0.00    +0.008 A 
ATOM      8  C   UNL     1      -4.210  -1.848  24.204  0.00  0.00    +0.037 A 
BRANCH   3   2
ATOM      1  C   UNL     1      -3.117  -3.310  24.588  0.00  0.00    +0.252 C 
ATOM      2  O   UNL     1      -3.734  -2.942  24.992  0.00  0.00    -0.471 OA
ENDBRANCH   3   2
ENDBRANCH   9   6
ENDBRANCH  13  12
ENDBRANCH  14  13
BRANCH  20  21
ATOM     21  C   UNL     1      -0.569   2.953  24.617  0.00  0.00    +0.076 C 
BRANCH  21  22
ATOM     22  N   UNL     1       0.022   2.483  24.287  0.00  0.00    -0.269 NA
ATOM     23  C   UNL     1       0.503   2.785  23.688  0.00  0.00    +0.094 C 
ATOM     24  C   UNL     1       1.094   2.316  23.357  0.00  0.00    +0.110 C 
ATOM     25  N   UNL     1       1.205   1.542  23.624  0.00  0.00    -0.289 N 
ATOM     26  C   UNL     1       0.724   1.241  24.222  0.00  0.00    +0.110 C 
ATOM     27  C   UNL     1       0.133   1.710  24.554  0.00  0.00    +0.094 C 
BRANCH  25  28
ATOM     28  C   UNL     1       1.796   1.073  23.293  0.00  0.00    +0.151 A 
ATOM     29  C   UNL     1       1.602   0.359  22.926  0.00  0.00    +0.133 A 
ATOM     30  N   UNL     1       2.193  -0.109  22.595  0.00  0.00    -0.238 NA
ATOM     31  C   UNL     1       2.981   0.134  22.630  0.00  0.00    +0.120 A 
ATOM     32  C   UNL     1       3.176   0.847  22.996  0.00  0.00    +0.121 A 
ATOM     33  N   UNL     1       2.584   1.317  23.327  0.00  0.00    -0.226 NA
ENDBRANCH  25  28
ENDBRANCH  21  22
ENDBRANCH  20  21
TORSDOF 8
ENDMDL
MODEL 3
REMARK VINA RESULT:      -7.3      3.497      5.254
REMARK  Name = 
REMARK  8 active torsions:
REMARK  status: ('A' for Active; 'I' for Inactive)
REMARK    1  A    between atoms: O_2  and  C_3
REMARK    2  A    between atoms: C_6  and  C_9
REMARK    3  A    between atoms: C_12  and  C_13
REMARK    4  A    between atoms: C_13  and  C_14
REMARK    5  A    between atoms: C_16  and  C_17
REMARK    6  A    between atoms: C_20  and  C_21
REMARK    7  A    between atoms: C_21  and  N_22
REMARK    8  A    between atoms: N_25  and  C_28
REMARK                            x       y       z     vdW  Elec       q    Type
REMARK                         _______ _______ _______ _____ _____    ______ ____
ROOT
ATOM     14  C   UNL     1      -4.063   2.990  24.272  0.00  0.00    +0.027 C 
ATOM     15  C   UNL     1      -4.645   2.925  24.853  0.00  0.00    +0.005 C 
ATOM     16  C   UNL     1      -5.011   2.198  24.991  0.00  0.00    +0.006 C 
ATOM     20  C   UNL     1      -4.795   1.537  24.548  0.00  0.00    +0.037 C 
ATOM     34  C   UNL     1      -4.213   1.602  23.967  0.00  0.00    -0.034 C 
ATOM     35  C   UNL     1      -3.847   2.327  23.829  0.00  0.00    -0.048 C 
ATOM     36  C   UNL     1      -3.265   2.392  23.248  0.00  0.00    +0.026 C 
ENDROOT
BRANCH  16  17
ATOM     17  C   UNL     1      -5.594   2.134  25.573  0.00  0.00    +0.000 C 
ATOM     18  C   UNL     1      -6.378   2.001  25.356  0.00  0.00    +0.000 C 
ATOM     19  C   UNL     1      -5.390   2.202  26.369  0.00  0.00    +0.000 C 
ENDBRANCH  16  17
BRANCH  14  13
ATOM     13  C   UNL     1      -3.697   3.715  24.134  0.00  0.00    +0.091 C 
BRANCH  13  12
ATOM      9  C   UNL     1      -1.857   3.849  25.209  0.00  0.00    +0.250 A 
ATOM     10  N   UNL     1      -2.097   4.638  25.204  0.00  0.00    -0.107 NA
ATOM     11  N   UNL     1      -2.815   4.684  24.801  0.00  0.00    -0.111 NA
ATOM     12  C   UNL     1      -3.020   3.923  24.556  0.00  0.00    +0.227 A 
ATOM     37  O   UNL     1      -2.428   3.407  24.808  0.00  0.00    -0.420 OA
BRANCH   9   6
ATOM      3  C   UNL     1       0.209   2.961  26.243  0.00  0.00    +0.139 A 
ATOM      4  C   UNL     1       0.256   3.464  25.591  0.00  0.00    +0.037 A 
ATOM      5  C   UNL     1      -0.432   3.760  25.247  0.00  0.00    +0.008 A 
ATOM      6  C   UNL     1      -1.169   3.553  25.554  0.00  0.00    +0.055 A 
ATOM      7  C   UNL     1      -1.218   3.049  26.206  0.00  0.00    +0.008 A 
ATOM      8  C   UNL     1      -0.529   2.753  26.550  0.00  0.00    +0.037 A 
BRANCH   3   2
ATOM      1  C   UNL     1       0.951   2.597  27.408  0.00  0.00    +0.252 C 
ATOM      2  O   UNL     1       0.897   2.664  26.587  0.00  0.00    -0.471 OA
ENDBRANCH   3   2
ENDBRANCH   9   6
ENDBRANCH  13  12
ENDBRANCH  14  13
BRANCH  20  21
ATOM     21  C   UNL     1      -5.161   0.810  24.686  0.00  0.00    +0.076 C 
BRANCH  21  22
ATOM     22  N   UNL     1      -4.722   0.114  24.650  0.00  0.00    -0.269 NA
ATOM     23  C   UNL     1      -4.759  -0.363  23.976  0.00  0.00    +0.094 C 
ATOM     24  C   UNL     1      -4.320  -1.059  23.940  0.00  0.00    +0.110 C 
ATOM     25  N   UNL     1      -3.843  -1.281  24.576  0.00  0.00    -0.289 N 
ATOM     26  C   UNL     1      -3.806  -0.805  25.248  0.00  0.00    +0.110 C 
ATOM     27  C   UNL     1      -4.245  -0.108  25.286  0.00  0.00    +0.094 C 
BRANCH  25  28
ATOM     28  C   UNL     1      -3.403  -1.978  24.538  0.00  0.00    +0.151 A 
ATOM     29  C   UNL     1      -3.786  -2.709  24.549  0.00  0.00    +0.133 A 
ATOM     30  N   UNL     1      -3.346  -3.405  24.511  0.00  0.00    -0.238 NA
ATOM     31  C   UNL     1      -2.523  -3.372  24.463  0.00  0.00    +0.120 A 
ATOM     32  C   UNL     1      -2.141  -2.641  24.453  0.00  0.00    +0.121 A 
ATOM     33  N   UNL     1      -2.580  -1.944  24.490  0.00  0.00    -0.226 NA
ENDBRANCH  25  28
ENDBRANCH  21  22
ENDBRANCH  20  21
TORSDOF 8
ENDMDL
MODEL 4
REMARK VINA RESULT:      -7.2      2.510      6.454
REMARK  Name = 
REMARK  8 active torsions:
REMARK  status: ('A' for Active; 'I' for Inactive)
REMARK    1  A    between atoms: O_2  and  C_3
REMARK    2  A    between atoms: C_6  and  C_9
REMARK    3  A    between atoms: C_12  and  C_13
REMARK    4  A    between atoms: C_13  and  C_14
REMARK    5  A    between atoms: C_16  and  C_17
REMARK    6  A    between atoms: C_20  and  C_21
REMARK    7  A    between atoms: C_21  and  N_22
REMARK    8  A    between atoms: N_25  and  C_28
REMARK                            x       y       z     vdW  Elec       q    Type
REMARK                         _______ _______ _______ _____ _____    ______ ____
ROOT
ATOM     14  C   UNL     1      -4.061   0.171  24.577  0.00  0.00    +0.027 C 
ATOM     15  C   UNL     1      -3.921  -0.315  25.228  0.00  0.00    +0.005 C 
ATOM     16  C   UNL     1      -3.252  -0.797  25.248  0.00  0.00    +0.006 C 
ATOM     20  C   UNL     1      -2.722  -0.793  24.616  0.00  0.00    +0.037 C 
ATOM     34  C   UNL     1      -2.861  -0.306  23.964  0.00  0.00    -0.034 C 
ATOM     35  C   UNL     1      -3.530   0.176  23.944  0.00  0.00    -0.048 C 
ATOM     36  C   UNL     1      -3.669   0.662  23.293  0.00  0.00    +0.026 C 
ENDROOT
BRANCH  16  17
ATOM     17  C   UNL     1      -3.113  -1.284  25.900  0.00  0.00    +0.000 C 
ATOM     18  C   UNL     1      -3.321  -2.082  25.869  0.00  0.00    +0.000 C 
ATOM     19  C   UNL     1      -2.767  -0.973  26.580  0.00  0.00    +0.000 C 
ENDBRANCH  16  17
BRANCH  14  13
ATOM     13  C   UNL     1      -4.730   0.653  24.557  0.00  0.00    +0.091 C 
BRANCH  13  12
ATOM      9  C   UNL     1      -4.271   2.622  25.242  0.00  0.00    +0.250 A 
ATOM     10  N   UNL     1      -5.046   2.537  25.510  0.00  0.00    -0.107 NA
ATOM     11  N   UNL     1      -5.313   1.788  25.286  0.00  0.00    -0.111 NA
ATOM     12  C   UNL     1      -4.702   1.411  24.879  0.00  0.00    +0.227 A 
ATOM     37  O   UNL     1      -4.058   1.927  24.852  0.00  0.00    -0.420 OA
BRANCH   9   6
ATOM      3  C   UNL     1      -2.835   4.614  25.553  0.00  0.00    +0.139 A 
ATOM      4  C   UNL     1      -2.914   4.063  26.162  0.00  0.00    +0.037 A 
ATOM      5  C   UNL     1      -3.393   3.399  26.058  0.00  0.00    +0.008 A 
ATOM      6  C   UNL     1      -3.792   3.286  25.346  0.00  0.00    +0.055 A 
ATOM      7  C   UNL     1      -3.714   3.837  24.736  0.00  0.00    +0.008 A 
ATOM      8  C   UNL     1      -3.236   4.501  24.840  0.00  0.00    +0.037 A 
BRANCH   3   2
ATOM      1  C   UNL     1      -1.640   5.337  25.252  0.00  0.00    +0.252 C 
ATOM      2  O   UNL     1      -2.357   5.278  25.657  0.00  0.00    -0.471 OA
ENDBRANCH   3   2
ENDBRANCH   9   6
ENDBRANCH  13  12
ENDBRANCH  14  13
BRANCH  20  21
ATOM     21  C   UNL     1      -2.052  -1.274  24.635  0.00  0.00    +0.076 C 
BRANCH  21  22
ATOM     22  N   UNL     1      -1.343  -1.008  24.310  0.00  0.00    -0.269 NA
ATOM     23  C   UNL     1      -1.067  -1.329  23.601  0.00  0.00    +0.094 C 
ATOM     24  C   UNL     1      -0.359  -1.062  23.276  0.00  0.00    +0.110 C 
ATOM     25  N   UNL     1       0.077  -0.475  23.659  0.00  0.00    -0.289 N 
ATOM     26  C   UNL     1      -0.198  -0.155  24.367  0.00  0.00    +0.110 C 
ATOM     27  C   UNL     1      -0.907  -0.421  24.693  0.00  0.00    +0.094 C 
BRANCH  25  28
ATOM     28  C   UNL     1       0.786  -0.209  23.333  0.00  0.00    +0.151 A 
ATOM     29  C   UNL     1       1.145   0.475  23.624  0.00  0.00    +0.133 A 
ATOM     30  N   UNL     1       1.854   0.740  23.298  0.00  0.00    -0.238 NA
ATOM     31  C   UNL     1       2.206   0.322  22.679  0.00  0.00    +0.120 A 
ATOM     32  C   UNL     1       1.847  -0.361  22.388  0.00  0.00    +0.121 A 
ATOM     33  N   UNL     1       1.138  -0.627  22.714  0.00  0.00    -0.226 NA
ENDBRANCH  25  28
ENDBRANCH  21  22
ENDBRANCH  20  21
TORSDOF 8
ENDMDL
MODEL 5
REMARK VINA RESULT:      -7.1      2.424      3.792
REMARK  Name = 
REMARK  8 active torsions:
REMARK  status: ('A' for Active; 'I' for Inactive)
REMARK    1  A    between atoms: O_2  and  C_3
REMARK    2  A    between atoms: C_6  and  C_9
REMARK    3  A    between atoms: C_12  and  C_13
REMARK    4  A    between atoms: C_13  and  C_14
REMARK    5  A    between atoms: C_16  and  C_17
REMARK    6  A    between atoms: C_20  and  C_21
REMARK    7  A    between atoms: C_21  and  N_22
REMARK    8  A    between atoms: N_25  and  C_28
REMARK                            x       y       z     vdW  Elec       q    Type
REMARK                         _______ _______ _______ _____ _____    ______ ____
ROOT
ATOM     14  C   UNL     1      -0.457   1.501  24.031  0.00  0.00    +0.027 C 
ATOM     15  C   UNL     1      -0.134   1.798  24.729  0.00  0.00    +0.005 C 
ATOM     16  C   UNL     1      -0.466   2.464  25.087  0.00  0.00    +0.006 C 
ATOM     20  C   UNL     1      -1.119   2.832  24.745  0.00  0.00    +0.037 C 
ATOM     34  C   UNL     1      -1.443   2.535  24.046  0.00  0.00    -0.034 C 
ATOM     35  C   UNL     1      -1.112   1.870  23.690  0.00  0.00    -0.048 C 
ATOM     36  C   UNL     1      -1.434   1.572  22.991  0.00  0.00    +0.026 C 
ENDROOT
BRANCH  16  17
ATOM     17  C   UNL     1      -0.142   2.762  25.786  0.00  0.00    +0.000 C 
ATOM     18  C   UNL     1      -0.217   2.335  26.488  0.00  0.00    +0.000 C 
ATOM     19  C   UNL     1       0.255   3.484  25.781  0.00  0.00    +0.000 C 
ENDBRANCH  16  17
BRANCH  14  13
ATOM     13  C   UNL     1      -0.126   0.835  23.674  0.00  0.00    +0.091 C 
BRANCH  13  12
ATOM      9  C   UNL     1      -0.947  -1.014  24.355  0.00  0.00    +0.250 A 
ATOM     10  N   UNL     1      -0.144  -1.136  24.493  0.00  0.00    -0.107 NA
ATOM     11  N   UNL     1       0.263  -0.458  24.254  0.00  0.00    -0.111 NA
ATOM     12  C   UNL     1      -0.291   0.083  23.969  0.00  0.00    +0.227 A 
ATOM     37  O   UNL     1      -1.039  -0.260  24.031  0.00  0.00    -0.420 OA
BRANCH   9   6
ATOM      3  C   UNL     1      -2.767  -2.623  24.828  0.00  0.00    +0.139 A 
ATOM      4  C   UNL     1      -2.782  -1.872  25.168  0.00  0.00    +0.037 A 
ATOM      5  C   UNL     1      -2.175  -1.335  25.010  0.00  0.00    +0.008 A 
ATOM      6  C   UNL     1      -1.554  -1.550  24.513  0.00  0.00    +0.055 A 
ATOM      7  C   UNL     1      -1.538  -2.302  24.173  0.00  0.00    +0.008 A 
ATOM      8  C   UNL     1      -2.144  -2.838  24.330  0.00  0.00    +0.037 A 
BRANCH   3   2
ATOM      1  C   UNL     1      -4.023  -3.208  24.480  0.00  0.00    +0.252 C 
ATOM      2  O   UNL     1      -3.373  -3.160  24.986  0.00  0.00    -0.471 OA
ENDBRANCH   3   2
ENDBRANCH   9   6
ENDBRANCH  13  12
ENDBRANCH  14  13
BRANCH  20  21
ATOM     21  C   UNL     1      -1.452   3.499  25.102  0.00  0.00    +0.076 C 
BRANCH  21  22
ATOM     22  N   UNL     1      -2.269   3.551  25.198  0.00  0.00    -0.269 NA
ATOM     23  C   UNL     1      -2.624   3.253  25.881  0.00  0.00    +0.094 C 
ATOM     24  C   UNL     1      -3.441   3.305  25.977  0.00  0.00    +0.110 C 
ATOM     25  N   UNL     1      -3.905   3.656  25.391  0.00  0.00    -0.289 N 
ATOM     26  C   UNL     1      -3.549   3.953  24.709  0.00  0.00    +0.110 C 
ATOM     27  C   UNL     1      -2.732   3.901  24.612  0.00  0.00    +0.094 C 
BRANCH  25  28
ATOM     28  C   UNL     1      -4.722   3.707  25.488  0.00  0.00    +0.151 A 
ATOM     29  C   UNL     1      -5.081   4.444  25.590  0.00  0.00    +0.133 A 
ATOM     30  N   UNL     1      -5.897   4.495  25.687  0.00  0.00    -0.238 NA
ATOM     31  C   UNL     1      -6.358   3.810  25.682  0.00  0.00    +0.120 A 
ATOM     32  C   UNL     1      -5.999   3.074  25.580  0.00  0.00    +0.121 A 
ATOM     33  N   UNL     1      -5.182   3.022  25.483  0.00  0.00    -0.226 NA
ENDBRANCH  25  28
ENDBRANCH  21  22
ENDBRANCH  20  21
TORSDOF 8
ENDMDL
MODEL 6
REMARK VINA RESULT:      -7.0      2.247      7.236
REMARK  Name = 
REMARK  8 active torsions:
REMARK  status: ('A' for Active; 'I' for Inactive)
REMARK    1  A    between atoms: O_2  and  C_3
REMARK    2  A    between atoms: C_6  and  C_9
REMARK    3  A    between atoms: C_12  and  C_13
REMARK    4  A    between atoms: C_13  and  C_14
REMARK    5  A    between atoms: C_16  and  C_17
REMARK    6  A    between atoms: C_20  and  C_21
REMARK    7  A    between atoms: C_21  and  N_22
REMARK    8  A    between atoms: N_25  and  C_28
REMARK                            x       y       z     vdW  Elec       q    Type
REMARK                         _______ _______ _______ _____ _____    ______ ____
ROOT
ATOM     14  C   UNL     1      -2.457   1.453  23.320  0.00  0.00    +0.027 C 
ATOM     15  C   UNL     1      -2.572   0.876  23.898  0.00  0.00    +0.005 C 
ATOM     16  C   UNL     1      -1.924   0.479  24.220  0.00  0.00    +0.006 C 
ATOM     20  C   UNL     1      -1.162   0.659  23.963  0.00  0.00    +0.037 C 
ATOM     34  C   UNL     1      -1.046   1.236  23.384  0.00  0.00    -0.034 C 
ATOM     35  C   UNL     1      -1.694   1.633  23.063  0.00  0.00    -0.048 C 
ATOM     36  C   UNL     1      -1.579   2.209  22.485  0.00  0.00    +0.026 C 
ENDROOT
BRANCH  16  17
ATOM     17  C   UNL     1      -2.039  -0.098  24.799  0.00  0.00    +0.000 C 
ATOM     18  C   UNL     1      -1.919   0.086  25.594  0.00  0.00    +0.000 C 
ATOM     19  C   UNL     1      -2.274  -0.858  24.582  0.00  0.00    +0.000 C 
ENDBRANCH  16  17
BRANCH  14  13
ATOM     13  C   UNL     1      -3.105   1.850  22.999  0.00  0.00    +0.091 C 
BRANCH  13  12
ATOM      9  C   UNL     1      -4.538   2.533  24.426  0.00  0.00    +0.250 A 
ATOM     10  N   UNL     1      -4.311   3.244  24.076  0.00  0.00    -0.107 NA
ATOM     11  N   UNL     1      -3.746   3.075  23.498  0.00  0.00    -0.111 NA
ATOM     12  C   UNL     1      -3.624   2.259  23.492  0.00  0.00    +0.227 A 
ATOM     37  O   UNL     1      -4.114   1.923  24.065  0.00  0.00    -0.420 OA
BRANCH   9   6
ATOM      3  C   UNL     1      -6.201   2.271  26.240  0.00  0.00    +0.139 A 
ATOM      4  C   UNL     1      -5.631   2.865  26.286  0.00  0.00    +0.037 A 
ATOM      5  C   UNL     1      -5.076   2.952  25.681  0.00  0.00    +0.008 A 
ATOM      6  C   UNL     1      -5.093   2.445  25.031  0.00  0.00    +0.055 A 
ATOM      7  C   UNL     1      -5.663   1.851  24.984  0.00  0.00    +0.008 A 
ATOM      8  C   UNL     1      -6.217   1.763  25.589  0.00  0.00    +0.037 A 
BRANCH   3   2
ATOM      1  C   UNL     1      -6.825   1.462  27.239  0.00  0.00    +0.252 C 
ATOM      2  O   UNL     1      -6.755   2.183  26.845  0.00  0.00    -0.471 OA
ENDBRANCH   3   2
ENDBRANCH   9   6
ENDBRANCH  13  12
ENDBRANCH  14  13
BRANCH  20  21
ATOM     21  C   UNL     1      -0.513   0.262  24.284  0.00  0.00    +0.076 C 
BRANCH  21  22
ATOM     22  N   UNL     1       0.225   0.317  23.922  0.00  0.00    -0.269 NA
ATOM     23  C   UNL     1       0.472  -0.270  23.396  0.00  0.00    +0.094 C 
ATOM     24  C   UNL     1       1.210  -0.215  23.033  0.00  0.00    +0.110 C 
ATOM     25  N   UNL     1       1.703   0.427  23.195  0.00  0.00    -0.289 N 
ATOM     26  C   UNL     1       1.456   1.013  23.720  0.00  0.00    +0.110 C 
ATOM     27  C   UNL     1       0.718   0.959  24.084  0.00  0.00    +0.094 C 
BRANCH  25  28
ATOM     28  C   UNL     1       2.441   0.481  22.832  0.00  0.00    +0.151 A 
ATOM     29  C   UNL     1       2.566   0.132  22.094  0.00  0.00    +0.133 A 
ATOM     30  N   UNL     1       3.305   0.187  21.732  0.00  0.00    -0.238 NA
ATOM     31  C   UNL     1       3.920   0.591  22.106  0.00  0.00    +0.120 A 
ATOM     32  C   UNL     1       3.795   0.939  22.843  0.00  0.00    +0.121 A 
ATOM     33  N   UNL     1       3.057   0.885  23.206  0.00  0.00    -0.226 NA
ENDBRANCH  25  28
ENDBRANCH  21  22
ENDBRANCH  20  21
TORSDOF 8
ENDMDL
MODEL 7
REMARK VINA RESULT:      -6.9      1.652      2.765
REMARK  Name = 
REMARK  8 active torsions:
REMARK  status: ('A' for Active; 'I' for Inactive)
REMARK    1  A    between atoms: O_2  and  C_3
REMARK    2  A    between atoms: C_6  and  C_9
REMARK    3  A    between atoms: C_12  and  C_13
REMARK    4  A    between atoms: C_13  and  C_14
REMARK    5  A    between atoms: C_16  and  C_17
REMARK    6  A    between atoms: C_20  and  C_21
REMARK    7  A    between atoms: C_21  and  N_22
REMARK    8  A    between atoms: N_25  and  C_28
REMARK                            x       y       z     vdW  Elec       q    Type
REMARK                         _______ _______ _______ _____ _____    ______ ____
ROOT
ATOM     14  C   UNL     1      -1.700  -0.887  24.956  0.00  0.00    +0.027 C 
ATOM     15  C   UNL     1      -2.224  -1.416  24.600  0.00  0.00    +0.005 C 
ATOM     16  C   UNL     1      -3.030  -1.241  24.569  0.00  0.00    +0.006 C 
ATOM     20  C   UNL     1      -3.312  -0.538  24.894  0.00  0.00    +0.037 C 
ATOM     34  C   UNL     1      -2.788  -0.009  25.250  0.00  0.00    -0.034 C 
ATOM     35  C   UNL     1      -1.983  -0.183  25.282  0.00  0.00    -0.048 C 
ATOM     36  C   UNL     1      -1.460   0.346  25.638  0.00  0.00    +0.026 C 
ENDROOT
BRANCH  16  17
ATOM     17  C   UNL     1      -3.553  -1.771  24.212  0.00  0.00    +0.000 C 
ATOM     18  C   UNL     1      -3.787  -2.451  24.614  0.00  0.00    +0.000 C 
ATOM     19  C   UNL     1      -3.841  -1.618  23.455  0.00  0.00    +0.000 C 
ENDBRANCH  16  17
BRANCH  14  13
ATOM     13  C   UNL     1      -0.895  -1.061  24.987  0.00  0.00    +0.091 C 
BRANCH  13  12
ATOM      9  C   UNL     1       0.563  -0.492  23.535  0.00  0.00    +0.250 A 
ATOM     10  N   UNL     1       0.067  -0.971  23.084  0.00  0.00    -0.107 NA
ATOM     11  N   UNL     1      -0.540  -1.243  23.572  0.00  0.00    -0.111 NA
ATOM     12  C   UNL     1      -0.419  -0.932  24.327  0.00  0.00    +0.227 A 
ATOM     37  O   UNL     1       0.263  -0.467  24.304  0.00  0.00    -0.420 OA
BRANCH   9   6
ATOM      3  C   UNL     1       2.595   0.668  22.729  0.00  0.00    +0.139 A 
ATOM      4  C   UNL     1       2.133   1.008  23.322  0.00  0.00    +0.037 A 
ATOM      5  C   UNL     1       1.456   0.621  23.591  0.00  0.00    +0.008 A 
ATOM      6  C   UNL     1       1.241  -0.106  23.267  0.00  0.00    +0.055 A 
ATOM      7  C   UNL     1       1.702  -0.447  22.674  0.00  0.00    +0.008 A 
ATOM      8  C   UNL     1       2.379  -0.060  22.405  0.00  0.00    +0.037 A 
BRANCH   3   2
ATOM      1  C   UNL     1       4.015   0.832  22.745  0.00  0.00    +0.252 C 
ATOM      2  O   UNL     1       3.273   1.055  22.461  0.00  0.00    -0.471 OA
ENDBRANCH   3   2
ENDBRANCH   9   6
ENDBRANCH  13  12
ENDBRANCH  14  13
BRANCH  20  21
ATOM     21  C   UNL     1      -4.118  -0.363  24.863  0.00  0.00    +0.076 C 
BRANCH  21  22
ATOM     22  N   UNL     1      -4.377   0.411  24.981  0.00  0.00    -0.269 NA
ATOM     23  C   UNL     1      -4.737   0.622  25.693  0.00  0.00    +0.094 C 
ATOM     24  C   UNL     1      -4.996   1.396  25.811  0.00  0.00    +0.110 C 
ATOM     25  N   UNL     1      -4.895   1.960  25.217  0.00  0.00    -0.289 N 
ATOM     26  C   UNL     1      -4.534   1.749  24.506  0.00  0.00    +0.110 C 
ATOM     27  C   UNL     1      -4.275   0.975  24.387  0.00  0.00    +0.094 C 
BRANCH  25  28
ATOM     28  C   UNL     1      -5.154   2.734  25.336  0.00  0.00    +0.151 A 
ATOM     29  C   UNL     1      -5.917   2.877  25.615  0.00  0.00    +0.133 A 
ATOM     30  N   UNL     1      -6.175   3.650  25.734  0.00  0.00    -0.238 NA
ATOM     31  C   UNL     1      -5.671   4.283  25.573  0.00  0.00    +0.120 A 
ATOM     32  C   UNL     1      -4.908   4.141  25.293  0.00  0.00    +0.121 A 
ATOM     33  N   UNL     1      -4.649   3.367  25.175  0.00  0.00    -0.226 NA
ENDBRANCH  25  28
ENDBRANCH  21  22
ENDBRANCH  20  21
TORSDOF 8
ENDMDL
MODEL 8
REMARK VINA RESULT:      -6.5      3.380      4.824
REMARK  Name = 
REMARK  8 active torsions:
REMARK  status: ('A' for Active; 'I' for Inactive)
REMARK    1  A    between atoms: O_2  and  C_3
REMARK    2  A    between atoms: C_6  and  C_9
REMARK    3  A    between atoms: C_12  and  C_13
REMARK    4  A    between atoms: C_13  and  C_14
REMARK    5  A    between atoms: C_16  and  C_17
REMARK    6  A    between atoms: C_20  and  C_21
REMARK    7  A    between atoms: C_21  and  N_22
REMARK    8  A    between atoms: N_25  and  C_28
REMARK                            x       y       z     vdW  Elec       q    Type
REMARK                         _______ _______ _______ _____ _____    ______ ____
ROOT
ATOM     14  C   UNL     1      -4.508   0.435  24.148  0.00  0.00    +0.027 C 
ATOM     15  C   UNL     1      -5.054   0.638  24.732  0.00  0.00    +0.005 C 
ATOM     16  C   UNL     1      -5.095   1.416  25.006  0.00  0.00    +0.006 C 
ATOM     20  C   UNL     1      -4.591   1.989  24.695  0.00  0.00    +0.037 C 
ATOM     34  C   UNL     1      -4.045   1.786  24.110  0.00  0.00    -0.034 C 
ATOM     35  C   UNL     1      -4.004   1.009  23.837  0.00  0.00    -0.048 C 
ATOM     36  C   UNL     1      -3.458   0.806  23.253  0.00  0.00    +0.026 C 
ENDROOT
BRANCH  16  17
ATOM     17  C   UNL     1      -5.641   1.619  25.591  0.00  0.00    +0.000 C 
ATOM     18  C   UNL     1      -6.346   1.992  25.383  0.00  0.00    +0.000 C 
ATOM     19  C   UNL     1      -5.481   1.448  26.381  0.00  0.00    +0.000 C 
ENDBRANCH  16  17
BRANCH  14  13
ATOM     13  C   UNL     1      -4.467  -0.342  23.874  0.00  0.00    +0.091 C 
BRANCH  13  12
ATOM      9  C   UNL     1      -2.912  -1.498  24.771  0.00  0.00    +0.250 A 
ATOM     10  N   UNL     1      -3.572  -1.968  24.928  0.00  0.00    -0.107 NA
ATOM     11  N   UNL     1      -4.235  -1.592  24.611  0.00  0.00    -0.111 NA
ATOM     12  C   UNL     1      -3.985  -0.890  24.258  0.00  0.00    +0.227 A 
ATOM     37  O   UNL     1      -3.168  -0.831  24.357  0.00  0.00    -0.420 OA
BRANCH   9   6
ATOM      3  C   UNL     1      -0.579  -1.998  25.427  0.00  0.00    +0.139 A 
ATOM      4  C   UNL     1      -0.949  -2.447  24.842  0.00  0.00    +0.037 A 
ATOM      5  C   UNL     1      -1.727  -2.280  24.624  0.00  0.00    +0.008 A 
ATOM      6  C   UNL     1      -2.135  -1.665  24.990  0.00  0.00    +0.055 A 
ATOM      7  C   UNL     1      -1.766  -1.215  25.575  0.00  0.00    +0.008 A 
ATOM      8  C   UNL     1      -0.988  -1.381  25.793  0.00  0.00    +0.037 A 
BRANCH   3   2
ATOM      1  C   UNL     1       0.538  -2.889  25.442  0.00  0.00    +0.252 C 
ATOM      2  O   UNL     1       0.199  -2.165  25.645  0.00  0.00    -0.471 OA
ENDBRANCH   3   2
ENDBRANCH   9   6
ENDBRANCH  13  12
ENDBRANCH  14  13
BRANCH  20  21
ATOM     21  C   UNL     1      -4.632   2.767  24.969  0.00  0.00    +0.076 C 
BRANCH  21  22
ATOM     22  N   UNL     1      -3.958   3.241  24.965  0.00  0.00    -0.269 NA
ATOM     23  C   UNL     1      -3.414   3.192  25.584  0.00  0.00    +0.094 C 
ATOM     24  C   UNL     1      -2.740   3.666  25.580  0.00  0.00    +0.110 C 
ATOM     25  N   UNL     1      -2.608   4.192  24.957  0.00  0.00    -0.289 N 
ATOM     26  C   UNL     1      -3.152   4.241  24.339  0.00  0.00    +0.110 C 
ATOM     27  C   UNL     1      -3.826   3.767  24.342  0.00  0.00    +0.094 C 
BRANCH  25  28
ATOM     28  C   UNL     1      -1.934   4.666  24.954  0.00  0.00    +0.151 A 
ATOM     29  C   UNL     1      -1.999   5.479  25.082  0.00  0.00    +0.133 A 
ATOM     30  N   UNL     1      -1.324   5.952  25.079  0.00  0.00    -0.238 NA
ATOM     31  C   UNL     1      -0.583   5.614  24.948  0.00  0.00    +0.120 A 
ATOM     32  C   UNL     1      -0.518   4.802  24.820  0.00  0.00    +0.121 A 
ATOM     33  N   UNL     1      -1.192   4.327  24.823  0.00  0.00    -0.226 NA
ENDBRANCH  25  28
ENDBRANCH  21  22
ENDBRANCH  20  21
TORSDOF 8
ENDMDL
MODEL 9
REMARK VINA RESULT:      -6.5      2.206      7.110
REMARK  Name = 
REMARK  8 active torsions:
REMARK  status: ('A' for Active; 'I' for Inactive)
REMARK    1  A    between atoms: O_2  and  C_3
REMARK    2  A    between atoms: C_6  and  C_9
REMARK    3  A    between atoms: C_12  and  C_13
REMARK    4  A    between atoms: C_13  and  C_14
REMARK    5  A    between atoms: C_16  and  C_17
REMARK    6  A    between atoms: C_20  and  C_21
REMARK    7  A    between atoms: C_21  and  N_22
REMARK    8  A    between atoms: N_25  and  C_28
REMARK                            x       y       z     vdW  Elec       q    Type
REMARK                         _______ _______ _______ _____ _____    ______ ____
ROOT
ATOM     14  C   UNL     1      -1.194  -0.182  24.648  0.00  0.00    +0.027 C 
ATOM     15  C   UNL     1      -1.341   0.573  24.349  0.00  0.00    +0.005 C 
ATOM     16  C   UNL     1      -0.824   0.908  23.800  0.00  0.00    +0.006 C 
ATOM     20  C   UNL     1      -0.160   0.488  23.550  0.00  0.00    +0.037 C 
ATOM     34  C   UNL     1      -0.012  -0.267  23.849  0.00  0.00    -0.034 C 
ATOM     35  C   UNL     1      -0.529  -0.602  24.398  0.00  0.00    -0.048 C 
ATOM     36  C   UNL     1      -0.382  -1.356  24.697  0.00  0.00    +0.026 C 
ENDROOT
BRANCH  16  17
ATOM     17  C   UNL     1      -0.972   1.663  23.500  0.00  0.00    +0.000 C 
ATOM     18  C   UNL     1      -1.338   1.750  22.767  0.00  0.00    +0.000 C 
ATOM     19  C   UNL     1      -0.752   2.328  23.935  0.00  0.00    +0.000 C 
ENDBRANCH  16  17
BRANCH  14  13
ATOM     13  C   UNL     1      -1.711  -0.516  25.196  0.00  0.00    +0.091 C 
BRANCH  13  12
ATOM      9  C   UNL     1      -3.747   0.112  25.063  0.00  0.00    +0.250 A 
ATOM     10  N   UNL     1      -3.813  -0.685  24.861  0.00  0.00    -0.107 NA
ATOM     11  N   UNL     1      -3.058  -1.018  24.886  0.00  0.00    -0.111 NA
ATOM     12  C   UNL     1      -2.526  -0.426  25.104  0.00  0.00    +0.227 A 
ATOM     37  O   UNL     1      -2.952   0.272  25.214  0.00  0.00    -0.420 OA
BRANCH   9   6
ATOM      3  C   UNL     1      -5.609   1.737  25.197  0.00  0.00    +0.139 A 
ATOM      4  C   UNL     1      -5.562   1.117  25.739  0.00  0.00    +0.037 A 
ATOM      5  C   UNL     1      -4.942   0.575  25.695  0.00  0.00    +0.008 A 
ATOM      6  C   UNL     1      -4.368   0.653  25.108  0.00  0.00    +0.055 A 
ATOM      7  C   UNL     1      -4.414   1.273  24.565  0.00  0.00    +0.008 A 
ATOM      8  C   UNL     1      -5.035   1.815  24.610  0.00  0.00    +0.037 A 
BRANCH   3   2
ATOM      1  C   UNL     1      -6.131   2.986  25.655  0.00  0.00    +0.252 C 
ATOM      2  O   UNL     1      -6.230   2.278  25.242  0.00  0.00    -0.471 OA
ENDBRANCH   3   2
ENDBRANCH   9   6
ENDBRANCH  13  12
ENDBRANCH  14  13
BRANCH  20  21
ATOM     21  C   UNL     1       0.358   0.822  23.001  0.00  0.00    +0.076 C 
BRANCH  21  22
ATOM     22  N   UNL     1       1.164   0.652  23.038  0.00  0.00    -0.269 NA
ATOM     23  C   UNL     1       1.657   1.094  23.531  0.00  0.00    +0.094 C 
ATOM     24  C   UNL     1       2.463   0.925  23.568  0.00  0.00    +0.110 C 
ATOM     25  N   UNL     1       2.778   0.313  23.112  0.00  0.00    -0.289 N 
ATOM     26  C   UNL     1       2.285  -0.128  22.619  0.00  0.00    +0.110 C 
ATOM     27  C   UNL     1       1.479   0.041  22.582  0.00  0.00    +0.094 C 
BRANCH  25  28
ATOM     28  C   UNL     1       3.584   0.144  23.150  0.00  0.00    +0.151 A 
ATOM     29  C   UNL     1       4.134   0.687  22.859  0.00  0.00    +0.133 A 
ATOM     30  N   UNL     1       4.940   0.517  22.897  0.00  0.00    -0.238 NA
ATOM     31  C   UNL     1       5.197  -0.196  23.225  0.00  0.00    +0.120 A 
ATOM     32  C   UNL     1       4.647  -0.737  23.515  0.00  0.00    +0.121 A 
ATOM     33  N   UNL     1       3.841  -0.568  23.478  0.00  0.00    -0.226 NA
ENDBRANCH  25  28
ENDBRANCH  21  22
ENDBRANCH  20  21
TORSDOF 8
ENDMDL
MODEL 10
REMARK VINA RESULT:      -6.4      2.697      5.939
REMARK  Name = 
REMARK  8 active torsions:
REMARK  status: ('A' for Active; 'I' for Inactive)
REMARK    1  A    between atoms: O_2  and  C_3
REMARK    2  A    between atoms: C_6  and  C_9
REMARK    3  A    between atoms: C_12  and  C_13
REMARK    4  A    between atoms: C_13  and  C_14
REMARK    5  A    between atoms: C_16  and  C_17
REMARK    6  A    between atoms: C_20  and  C_21
REMARK    7  A    between atoms: C_21  and  N_22
REMARK    8  A    between atoms: N_25  and  C_28
REMARK                            x       y       z     vdW  Elec       q    Type
REMARK                         _______ _______ _______ _____ _____    ______ ____
ROOT
ATOM     14  C   UNL     1      -0.305   2.410  25.445  0.00  0.00    +0.027 C 
ATOM     15  C   UNL     1      -0.065   2.323  24.661  0.00  0.00    +0.005 C 
ATOM     16  C   UNL     1       0.026   1.569  24.337  0.00  0.00    +0.006 C 
ATOM     20  C   UNL     1      -0.124   0.903  24.798  0.00  0.00    +0.037 C 
ATOM     34  C   UNL     1      -0.365   0.989  25.583  0.00  0.00    -0.034 C 
ATOM     35  C   UNL     1      -0.456   1.742  25.906  0.00  0.00    -0.048 C 
ATOM     36  C   UNL     1      -0.696   1.828  26.690  0.00  0.00    +0.026 C 
ENDROOT
BRANCH  16  17
ATOM     17  C   UNL     1       0.266   1.483  23.552  0.00  0.00    +0.000 C 
ATOM     18  C   UNL     1      -0.275   1.599  22.941  0.00  0.00    +0.000 C 
ATOM     19  C   UNL     1       1.047   1.282  23.380  0.00  0.00    +0.000 C 
ENDBRANCH  16  17
BRANCH  14  13
ATOM     13  C   UNL     1      -0.396   3.163  25.768  0.00  0.00    +0.091 C 
BRANCH  13  12
ATOM      9  C   UNL     1      -2.356   3.949  25.454  0.00  0.00    +0.250 A 
ATOM     10  N   UNL     1      -1.890   4.605  25.273  0.00  0.00    -0.107 NA
ATOM     11  N   UNL     1      -1.099   4.390  25.369  0.00  0.00    -0.111 NA
ATOM     12  C   UNL     1      -1.076   3.601  25.609  0.00  0.00    +0.227 A 
ATOM     37  O   UNL     1      -1.853   3.328  25.662  0.00  0.00    -0.420 OA
BRANCH   9   6
ATOM      3  C   UNL     1      -4.828   3.855  25.387  0.00  0.00    +0.139 A 
ATOM      4  C   UNL     1      -4.393   3.792  24.689  0.00  0.00    +0.037 A 
ATOM      5  C   UNL     1      -3.569   3.823  24.711  0.00  0.00    +0.008 A 
ATOM      6  C   UNL     1      -3.180   3.917  25.432  0.00  0.00    +0.055 A 
ATOM      7  C   UNL     1      -3.614   3.980  26.131  0.00  0.00    +0.008 A 
ATOM      8  C   UNL     1      -4.438   3.949  26.109  0.00  0.00    +0.037 A 
BRANCH   3   2
ATOM      1  C   UNL     1      -6.048   3.160  25.654  0.00  0.00    +0.252 C 
ATOM      2  O   UNL     1      -5.652   3.824  25.365  0.00  0.00    -0.471 OA
ENDBRANCH   3   2
ENDBRANCH   9   6
ENDBRANCH  13  12
ENDBRANCH  14  13
BRANCH  20  21
ATOM     21  C   UNL     1      -0.034   0.148  24.475  0.00  0.00    +0.076 C 
BRANCH  21  22
ATOM     22  N   UNL     1      -0.637  -0.408  24.552  0.00  0.00    -0.269 NA
ATOM     23  C   UNL     1      -1.376  -0.267  24.212  0.00  0.00    +0.094 C 
ATOM     24  C   UNL     1      -1.979  -0.824  24.290  0.00  0.00    +0.110 C 
ATOM     25  N   UNL     1      -1.844  -1.523  24.707  0.00  0.00    -0.289 N 
ATOM     26  C   UNL     1      -1.106  -1.664  25.046  0.00  0.00    +0.110 C 
ATOM     27  C   UNL     1      -0.503  -1.108  24.970  0.00  0.00    +0.094 C 
BRANCH  25  28
ATOM     28  C   UNL     1      -2.448  -2.079  24.784  0.00  0.00    +0.151 A 
ATOM     29  C   UNL     1      -3.008  -2.002  25.386  0.00  0.00    +0.133 A 
ATOM     30  N   UNL     1      -3.611  -2.559  25.462  0.00  0.00    -0.238 NA
ATOM     31  C   UNL     1      -3.656  -3.194  24.936  0.00  0.00    +0.120 A 
ATOM     32  C   UNL     1      -3.097  -3.271  24.335  0.00  0.00    +0.121 A 
ATOM     33  N   UNL     1      -2.493  -2.714  24.258  0.00  0.00    -0.226 NA
ENDBRANCH  25  28
ENDBRANCH  21  22
ENDBRANCH  20  21
TORSDOF 8
ENDMDL
