MODEL 1
REMARK VINA RESULT:     -18.2      0.000      0.000
REMARK  Name = 
REMARK  2 active torsions:
REMARK  status: ('A' for Active; 'I' for Inactive)
REMARK    1  A    between atoms: C_2  and  C_27
REMARK    2  A    between atoms: C_12  and  C_17
REMARK                            x       y       z     vdW  Elec       q    Type
REMARK                         _______ _______ _______ _____ _____    ______ ____
ROOT
ATOM      1  O   UNL     1      -3.442   1.496  24.784  0.00  0.00    -0.267 OA
ATOM      2  C   UNL     1      -3.036   2.214  24.816  0.00  0.00    +0.284 C 
ATOM      3  N   UNL     1      -3.437   2.907  25.017  0.00  0.00    -0.273 N 
ATOM      4  C   UNL     1      -3.561   3.717  25.178  0.00  0.00    +0.096 C 
ATOM      5  C   UNL     1      -4.528   3.700  25.381  0.00  0.00    +0.043 C 
ATOM      6  C   UNL     1      -5.304   3.853  25.572  0.00  0.00    +0.011 C 
ATOM      7  C   UNL     1      -4.913   3.298  25.397  0.00  0.00    +0.058 C 
ATOM      8  C   UNL     1      -3.979   3.330  25.203  0.00  0.00    +0.100 C 
ATOM      9  C   UNL     1      -4.970   2.391  25.258  0.00  0.00    +0.041 A 
ATOM     10  C   UNL     1      -5.518   1.774  25.272  0.00  0.00    +0.013 A 
ATOM     11  C   UNL     1      -5.277   1.006  25.093  0.00  0.00    +0.006 A 
ATOM     12  C   UNL     1      -4.489   0.854  24.900  0.00  0.00    +0.056 A 
ATOM     13  C   UNL     1      -3.942   1.471  24.886  0.00  0.00    +0.261 A 
ATOM     14  O   UNL     1      -3.248   1.080  24.673  0.00  0.00    -0.267 OA
ATOM     15  N   UNL     1      -4.183   2.239  25.065  0.00  0.00    -0.299 N 
ATOM     16  C   UNL     1      -4.577   2.753  25.234  0.00  0.00    +0.110 C 
ENDROOT
BRANCH  12  17
ATOM     17  C   UNL     1      -4.250   0.085  24.722  0.00  0.00    +0.005 A 
ATOM     18  C   UNL     1      -4.265  -0.180  23.940  0.00  0.00    +0.000 A 
ATOM     19  C   UNL     1      -4.025  -0.948  23.761  0.00  0.00    +0.000 A 
ATOM     20  C   UNL     1      -3.771  -1.452  24.362  0.00  0.00    +0.000 A 
ATOM     21  C   UNL     1      -3.531  -2.222  24.183  0.00  0.00    +0.000 A 
ATOM     22  C   UNL     1      -3.277  -2.725  24.785  0.00  0.00    +0.000 A 
ATOM     23  C   UNL     1      -3.262  -2.460  25.566  0.00  0.00    +0.000 A 
ATOM     24  C   UNL     1      -3.502  -1.692  25.745  0.00  0.00    +0.000 A 
ATOM     25  C   UNL     1      -3.756  -1.188  25.144  0.00  0.00    +0.000 A 
ATOM     26  C   UNL     1      -3.996  -0.418  25.323  0.00  0.00    +0.000 A 
ENDBRANCH  12  17
BRANCH   2  27
ATOM     27  C   UNL     1      -2.229   2.240  24.649  0.00  0.00    +0.199 A 
ATOM     28  C   UNL     1      -1.616   2.157  25.196  0.00  0.00    +0.045 A 
ATOM     29  C   UNL     1      -0.901   2.219  24.788  0.00  0.00    +0.044 A 
ATOM     30  C   UNL     1      -1.071   2.340  23.991  0.00  0.00    +0.180 A 
ATOM     31  O   UNL     1      -1.891   2.353  23.903  0.00  0.00    -0.446 OA
ENDBRANCH   2  27
TORSDOF 2
ENDMDL
MODEL 2
REMARK VINA RESULT:     -16.5      1.092      2.579
REMARK  Name = 
REMARK  2 active torsions:
REMARK  status: ('A' for Active; 'I' for Inactive)
REMARK    1  A    between atoms: C_2  and  C_27
REMARK    2  A    between atoms: C_12  and  C_17
REMARK                            x       y       z     vdW  Elec       q    Type
REMARK                         _______ _______ _______ _____ _____    ______ ____
ROOT
ATOM      1  O   UNL     1      -3.222   2.239  24.986  0.00  0.00    -0.267 OA
ATOM      2  C   UNL     1      -3.463   2.981  25.254  0.00  0.00    +0.284 C 
ATOM      3  N   UNL     1      -2.910   3.588  25.343  0.00  0.00    -0.273 N 
ATOM      4  C   UNL     1      -2.606   4.345  25.521  0.00  0.00    +0.096 C 
ATOM      5  C   UNL     1      -1.653   4.195  25.311  0.00  0.00    +0.043 C 
ATOM      6  C   UNL     1      -0.849   4.234  25.184  0.00  0.00    +0.011 C 
ATOM      7  C   UNL     1      -1.361   3.757  25.127  0.00  0.00    +0.058 C 
ATOM      8  C   UNL     1      -2.279   3.918  25.334  0.00  0.00    +0.100 C 
ATOM      9  C   UNL     1      -1.507   2.882  24.886  0.00  0.00    +0.041 A 
ATOM     10  C   UNL     1      -1.103   2.216  24.614  0.00  0.00    +0.013 A 
ATOM     11  C   UNL     1      -1.514   1.515  24.472  0.00  0.00    +0.006 A 
ATOM     12  C   UNL     1      -2.328   1.479  24.601  0.00  0.00    +0.056 A 
ATOM     13  C   UNL     1      -2.732   2.145  24.874  0.00  0.00    +0.261 A 
ATOM     14  O   UNL     1      -3.507   1.868  24.923  0.00  0.00    -0.267 OA
ATOM     15  N   UNL     1      -2.321   2.846  25.016  0.00  0.00    -0.299 N 
ATOM     16  C   UNL     1      -1.815   3.282  25.061  0.00  0.00    +0.110 C 
ENDROOT
BRANCH  12  17
ATOM     17  C   UNL     1      -2.737   0.778  24.459  0.00  0.00    +0.005 A 
ATOM     18  C   UNL     1      -3.148   0.677  23.750  0.00  0.00    +0.000 A 
ATOM     19  C   UNL     1      -3.558  -0.024  23.607  0.00  0.00    +0.000 A 
ATOM     20  C   UNL     1      -3.557  -0.625  24.172  0.00  0.00    +0.000 A 
ATOM     21  C   UNL     1      -3.967  -1.327  24.028  0.00  0.00    +0.000 A 
ATOM     22  C   UNL     1      -3.965  -1.928  24.594  0.00  0.00    +0.000 A 
ATOM     23  C   UNL     1      -3.555  -1.828  25.302  0.00  0.00    +0.000 A 
ATOM     24  C   UNL     1      -3.145  -1.126  25.445  0.00  0.00    +0.000 A 
ATOM     25  C   UNL     1      -3.146  -0.525  24.880  0.00  0.00    +0.000 A 
ATOM     26  C   UNL     1      -2.736   0.177  25.024  0.00  0.00    +0.000 A 
ENDBRANCH  12  17
BRANCH   2  27
ATOM     27  C   UNL     1      -4.256   3.118  25.432  0.00  0.00    +0.199 A 
ATOM     28  C   UNL     1      -4.818   3.446  24.925  0.00  0.00    +0.045 A 
ATOM     29  C   UNL     1      -5.537   3.481  25.330  0.00  0.00    +0.044 A 
ATOM     30  C   UNL     1      -5.419   3.175  26.086  0.00  0.00    +0.180 A 
ATOM     31  O   UNL     1      -4.629   2.950  26.151  0.00  0.00    -0.446 OA
ENDBRANCH   2  27
TORSDOF 2
ENDMDL
MODEL 3
REMARK VINA RESULT:     -16.2      1.461      3.987
REMARK  Name = 
REMARK  2 active torsions:
REMARK  status: ('A' for Active; 'I' for Inactive)
REMARK    1  A    between atoms: C_2  and  C_27
REMARK    2  A    between atoms: C_12  and  C_17
REMARK                            x       y       z     vdW  Elec       q    Type
REMARK                         _______ _______ _______ _____ _____    ______ ____
ROOT
ATOM      1  O   UNL     1      -2.866   0.064  24.665  0.00  0.00    -0.267 OA
ATOM      2  C   UNL     1      -2.180  -0.383  24.764  0.00  0.00    +0.284 C 
ATOM      3  N   UNL     1      -2.209  -1.205  24.692  0.00  0.00    -0.273 N 
ATOM      4  C   UNL     1      -1.940  -1.996  24.681  0.00  0.00    +0.096 C 
ATOM      5  C   UNL     1      -2.790  -2.457  24.476  0.00  0.00    +0.043 C 
ATOM      6  C   UNL     1      -3.396  -2.977  24.314  0.00  0.00    +0.011 C 
ATOM      7  C   UNL     1      -3.313  -2.284  24.387  0.00  0.00    +0.058 C 
ATOM      8  C   UNL     1      -2.484  -1.853  24.585  0.00  0.00    +0.100 C 
ATOM      9  C   UNL     1      -3.783  -1.495  24.358  0.00  0.00    +0.041 A 
ATOM     10  C   UNL     1      -4.546  -1.208  24.230  0.00  0.00    +0.013 A 
ATOM     11  C   UNL     1      -4.693  -0.397  24.267  0.00  0.00    +0.006 A 
ATOM     12  C   UNL     1      -4.077   0.127  24.431  0.00  0.00    +0.056 A 
ATOM     13  C   UNL     1      -3.314  -0.160  24.558  0.00  0.00    +0.261 A 
ATOM     14  O   UNL     1      -2.891   0.534  24.698  0.00  0.00    -0.267 OA
ATOM     15  N   UNL     1      -3.167  -0.970  24.522  0.00  0.00    -0.299 N 
ATOM     16  C   UNL     1      -3.273  -1.627  24.448  0.00  0.00    +0.110 C 
ENDROOT
BRANCH  12  17
ATOM     17  C   UNL     1      -4.225   0.938  24.467  0.00  0.00    +0.005 A 
ATOM     18  C   UNL     1      -3.953   1.433  23.866  0.00  0.00    +0.000 A 
ATOM     19  C   UNL     1      -4.100   2.244  23.902  0.00  0.00    +0.000 A 
ATOM     20  C   UNL     1      -4.520   2.559  24.538  0.00  0.00    +0.000 A 
ATOM     21  C   UNL     1      -4.668   3.371  24.574  0.00  0.00    +0.000 A 
ATOM     22  C   UNL     1      -5.087   3.686  25.212  0.00  0.00    +0.000 A 
ATOM     23  C   UNL     1      -5.359   3.190  25.812  0.00  0.00    +0.000 A 
ATOM     24  C   UNL     1      -5.211   2.379  25.776  0.00  0.00    +0.000 A 
ATOM     25  C   UNL     1      -4.792   2.064  25.140  0.00  0.00    +0.000 A 
ATOM     26  C   UNL     1      -4.644   1.253  25.104  0.00  0.00    +0.000 A 
ENDBRANCH  12  17
BRANCH   2  27
ATOM     27  C   UNL     1      -1.465  -0.010  24.935  0.00  0.00    +0.199 A 
ATOM     28  C   UNL     1      -1.202   0.214  25.684  0.00  0.00    +0.045 A 
ATOM     29  C   UNL     1      -0.461   0.568  25.598  0.00  0.00    +0.044 A 
ATOM     30  C   UNL     1      -0.267   0.564  24.797  0.00  0.00    +0.180 A 
ATOM     31  O   UNL     1      -0.887   0.207  24.386  0.00  0.00    -0.446 OA
ENDBRANCH   2  27
TORSDOF 2
ENDMDL
MODEL 4
REMARK VINA RESULT:     -15.1      0.776      3.388
REMARK  Name = 
REMARK  2 active torsions:
REMARK  status: ('A' for Active; 'I' for Inactive)
REMARK    1  A    between atoms: C_2  and  C_27
REMARK    2  A    between atoms: C_12  and  C_17
REMARK                            x       y       z     vdW  Elec       q    Type
REMARK                         _______ _______ _______ _____ _____    ______ ____
ROOT
ATOM      1  O   UNL     1      -3.642   1.537  24.879  0.00  0.00    -0.267 OA
ATOM      2  C   UNL     1      -4.263   0.995  24.919  0.00  0.00    +0.284 C 
ATOM      3  N   UNL     1      -5.028   1.256  25.084  0.00  0.00    -0.273 N 
ATOM      4  C   UNL     1      -5.852   1.219  25.222  0.00  0.00    +0.096 C 
ATOM      5  C   UNL     1      -6.038   2.177  25.373  0.00  0.00    +0.043 C 
ATOM      6  C   UNL     1      -6.351   2.915  25.519  0.00  0.00    +0.011 C 
ATOM      7  C   UNL     1      -5.723   2.637  25.376  0.00  0.00    +0.058 C 
ATOM      8  C   UNL     1      -5.559   1.708  25.232  0.00  0.00    +0.100 C 
ATOM      9  C   UNL     1      -4.843   2.872  25.253  0.00  0.00    +0.041 A 
ATOM     10  C   UNL     1      -4.351   3.534  25.250  0.00  0.00    +0.013 A 
ATOM     11  C   UNL     1      -3.544   3.447  25.100  0.00  0.00    +0.006 A 
ATOM     12  C   UNL     1      -3.230   2.699  24.952  0.00  0.00    +0.056 A 
ATOM     13  C   UNL     1      -3.722   2.037  24.955  0.00  0.00    +0.261 A 
ATOM     14  O   UNL     1      -3.192   1.428  24.788  0.00  0.00    -0.267 OA
ATOM     15  N   UNL     1      -4.528   2.123  25.105  0.00  0.00    -0.299 N 
ATOM     16  C   UNL     1      -5.116   2.413  25.243  0.00  0.00    +0.110 C 
ENDROOT
BRANCH  12  17
ATOM     17  C   UNL     1      -2.424   2.613  24.802  0.00  0.00    +0.005 A 
ATOM     18  C   UNL     1      -2.151   2.576  24.024  0.00  0.00    +0.000 A 
ATOM     19  C   UNL     1      -1.345   2.490  23.873  0.00  0.00    +0.000 A 
ATOM     20  C   UNL     1      -0.811   2.441  24.500  0.00  0.00    +0.000 A 
ATOM     21  C   UNL     1      -0.003   2.356  24.349  0.00  0.00    +0.000 A 
ATOM     22  C   UNL     1       0.530   2.307  24.976  0.00  0.00    +0.000 A 
ATOM     23  C   UNL     1       0.258   2.344  25.753  0.00  0.00    +0.000 A 
ATOM     24  C   UNL     1      -0.548   2.429  25.905  0.00  0.00    +0.000 A 
ATOM     25  C   UNL     1      -1.082   2.478  25.278  0.00  0.00    +0.000 A 
ATOM     26  C   UNL     1      -1.890   2.564  25.429  0.00  0.00    +0.000 A 
ENDBRANCH  12  17
BRANCH   2  27
ATOM     27  C   UNL     1      -4.119   0.193  24.795  0.00  0.00    +0.199 A 
ATOM     28  C   UNL     1      -3.918  -0.360  25.373  0.00  0.00    +0.045 A 
ATOM     29  C   UNL     1      -3.826  -1.093  25.005  0.00  0.00    +0.044 A 
ATOM     30  C   UNL     1      -3.969  -0.993  24.199  0.00  0.00    +0.180 A 
ATOM     31  O   UNL     1      -4.151  -0.199  24.068  0.00  0.00    -0.446 OA
ENDBRANCH   2  27
TORSDOF 2
ENDMDL
