MODEL 1
REMARK VINA RESULT:     -16.4      0.000      0.000
REMARK  Name = 
REMARK  3 active torsions:
REMARK  status: ('A' for Active; 'I' for Inactive)
REMARK    1  A    between atoms: C_5  and  N_6
REMARK    2  A    between atoms: C_18  and  N_19
REMARK    3  A    between atoms: C_20  and  C_22
REMARK                            x       y       z     vdW  Elec       q    Type
REMARK                         _______ _______ _______ _____ _____    ______ ____
ROOT
ATOM      6  N   UNL     1      -2.248  -0.120  24.541  0.00  0.00    -0.162 NA
ATOM      7  C   UNL     1      -1.694  -0.732  24.545  0.00  0.00    +0.327 C 
ATOM      8  O   UNL     1      -0.888  -0.558  24.549  0.00  0.00    -0.250 OA
ATOM      9  N   UNL     1      -1.947  -1.517  24.547  0.00  0.00    -0.262 N 
ATOM     10  C   UNL     1      -1.898  -2.351  24.549  0.00  0.00    +0.097 C 
ATOM     11  C   UNL     1      -2.861  -2.573  24.545  0.00  0.00    +0.043 C 
ATOM     12  C   UNL     1      -3.599  -2.917  24.543  0.00  0.00    +0.011 C 
ATOM     13  C   UNL     1      -3.329  -2.270  24.542  0.00  0.00    +0.058 C 
ATOM     14  C   UNL     1      -2.394  -2.071  24.546  0.00  0.00    +0.101 C 
ATOM     15  C   UNL     1      -3.576  -1.385  24.538  0.00  0.00    +0.041 A 
ATOM     16  C   UNL     1      -4.249  -0.908  24.533  0.00  0.00    +0.014 A 
ATOM     17  C   UNL     1      -4.173  -0.087  24.531  0.00  0.00    +0.023 A 
ATOM     18  C   UNL     1      -3.423   0.258  24.534  0.00  0.00    +0.130 A 
ATOM     28  C   UNL     1      -2.750  -0.218  24.539  0.00  0.00    +0.276 A 
ATOM     29  O   UNL     1      -2.347   0.501  24.538  0.00  0.00    -0.266 OA
ATOM     30  N   UNL     1      -2.827  -1.040  24.541  0.00  0.00    -0.298 N 
ATOM     31  C   UNL     1      -3.110  -1.646  24.541  0.00  0.00    +0.110 C 
ENDROOT
BRANCH   6   5
ATOM      1  F   UNL     1      -1.235   3.021  24.539  0.00  0.00    -0.204 F 
ATOM      2  C   UNL     1      -1.489   2.236  24.539  0.00  0.00    +0.140 A 
ATOM      3  C   UNL     1      -1.610   1.842  25.254  0.00  0.00    +0.031 A 
ATOM      4  C   UNL     1      -1.863   1.057  25.254  0.00  0.00    +0.019 A 
ATOM      5  C   UNL     1      -1.995   0.665  24.540  0.00  0.00    +0.075 A 
ATOM     32  C   UNL     1      -1.874   1.059  23.826  0.00  0.00    +0.019 A 
ATOM     33  C   UNL     1      -1.621   1.844  23.825  0.00  0.00    +0.031 A 
ENDBRANCH   6   5
BRANCH  18  19
ATOM     19  N   UNL     1      -3.348   1.079  24.532  0.00  0.00    -0.171 NA
ATOM     20  C   UNL     1      -4.021   1.556  24.535  0.00  0.00    +0.269 C 
ATOM     21  O   UNL     1      -4.770   1.211  24.541  0.00  0.00    -0.268 OA
BRANCH  20  22
ATOM     22  C   UNL     1      -3.945   2.378  24.533  0.00  0.00    +0.058 A 
ATOM     23  C   UNL     1      -3.916   2.791  25.247  0.00  0.00    +0.025 A 
ATOM     24  C   UNL     1      -3.839   3.613  25.245  0.00  0.00    +0.099 A 
ATOM     25  N   UNL     1      -3.792   4.021  24.528  0.00  0.00    -0.242 NA
ATOM     26  C   UNL     1      -3.821   3.608  23.816  0.00  0.00    +0.099 A 
ATOM     27  C   UNL     1      -3.897   2.786  23.818  0.00  0.00    +0.025 A 
ENDBRANCH  20  22
ENDBRANCH  18  19
TORSDOF 3
ENDMDL
MODEL 2
REMARK VINA RESULT:     -15.5      1.088      2.259
REMARK  Name = 
REMARK  3 active torsions:
REMARK  status: ('A' for Active; 'I' for Inactive)
REMARK    1  A    between atoms: C_5  and  N_6
REMARK    2  A    between atoms: C_18  and  N_19
REMARK    3  A    between atoms: C_20  and  C_22
REMARK                            x       y       z     vdW  Elec       q    Type
REMARK                         _______ _______ _______ _____ _____    ______ ____
ROOT
ATOM      6  N   UNL     1      -3.359   0.302  24.381  0.00  0.00    -0.162 NA
ATOM      7  C   UNL     1      -4.006  -0.152  24.143  0.00  0.00    +0.327 C 
ATOM      8  O   UNL     1      -4.661   0.212  23.799  0.00  0.00    -0.250 OA
ATOM      9  N   UNL     1      -3.997  -0.971  24.249  0.00  0.00    -0.262 N 
ATOM     10  C   UNL     1      -4.263  -1.762  24.227  0.00  0.00    +0.097 C 
ATOM     11  C   UNL     1      -3.484  -2.211  24.637  0.00  0.00    +0.043 C 
ATOM     12  C   UNL     1      -2.933  -2.722  24.952  0.00  0.00    +0.011 C 
ATOM     13  C   UNL     1      -2.995  -2.032  24.837  0.00  0.00    +0.058 C 
ATOM     14  C   UNL     1      -3.756  -1.613  24.439  0.00  0.00    +0.101 C 
ATOM     15  C   UNL     1      -2.542  -1.240  24.945  0.00  0.00    +0.041 A 
ATOM     16  C   UNL     1      -1.828  -0.945  25.233  0.00  0.00    +0.014 A 
ATOM     17  C   UNL     1      -1.674  -0.135  25.202  0.00  0.00    +0.023 A 
ATOM     18  C   UNL     1      -2.234   0.380  24.883  0.00  0.00    +0.130 A 
ATOM     28  C   UNL     1      -2.948   0.085  24.595  0.00  0.00    +0.276 A 
ATOM     29  O   UNL     1      -3.106   0.876  24.424  0.00  0.00    -0.266 OA
ATOM     30  N   UNL     1      -3.102  -0.725  24.626  0.00  0.00    -0.298 N 
ATOM     31  C   UNL     1      -3.018  -1.378  24.745  0.00  0.00    +0.110 C 
ENDROOT
BRANCH   6   5
ATOM      1  F   UNL     1      -3.396   3.574  23.952  0.00  0.00    -0.204 F 
ATOM      2  C   UNL     1      -3.387   2.756  24.059  0.00  0.00    +0.140 A 
ATOM      3  C   UNL     1      -3.088   2.266  23.467  0.00  0.00    +0.031 A 
ATOM      4  C   UNL     1      -3.079   1.448  23.574  0.00  0.00    +0.019 A 
ATOM      5  C   UNL     1      -3.368   1.120  24.274  0.00  0.00    +0.075 A 
ATOM     32  C   UNL     1      -3.667   1.610  24.866  0.00  0.00    +0.019 A 
ATOM     33  C   UNL     1      -3.677   2.428  24.759  0.00  0.00    +0.031 A 
ENDBRANCH   6   5
BRANCH  18  19
ATOM     19  N   UNL     1      -2.079   1.189  24.852  0.00  0.00    -0.171 NA
ATOM     20  C   UNL     1      -1.365   1.484  25.141  0.00  0.00    +0.269 C 
ATOM     21  O   UNL     1      -0.805   0.970  25.461  0.00  0.00    -0.268 OA
BRANCH  20  22
ATOM     22  C   UNL     1      -1.211   2.295  25.110  0.00  0.00    +0.058 A 
ATOM     23  C   UNL     1      -0.832   2.617  24.452  0.00  0.00    +0.025 A 
ATOM     24  C   UNL     1      -0.678   3.428  24.421  0.00  0.00    +0.099 A 
ATOM     25  N   UNL     1      -0.902   3.914  25.049  0.00  0.00    -0.242 NA
ATOM     26  C   UNL     1      -1.281   3.591  25.706  0.00  0.00    +0.099 A 
ATOM     27  C   UNL     1      -1.435   2.782  25.737  0.00  0.00    +0.025 A 
ENDBRANCH  20  22
ENDBRANCH  18  19
TORSDOF 3
ENDMDL
MODEL 3
REMARK VINA RESULT:     -15.4      1.619      4.080
REMARK  Name = 
REMARK  3 active torsions:
REMARK  status: ('A' for Active; 'I' for Inactive)
REMARK    1  A    between atoms: C_5  and  N_6
REMARK    2  A    between atoms: C_18  and  N_19
REMARK    3  A    between atoms: C_20  and  C_22
REMARK                            x       y       z     vdW  Elec       q    Type
REMARK                         _______ _______ _______ _____ _____    ______ ____
ROOT
ATOM      6  N   UNL     1      -1.355   1.574  25.114  0.00  0.00    -0.162 NA
ATOM      7  C   UNL     1      -0.687   2.054  25.190  0.00  0.00    +0.327 C 
ATOM      8  O   UNL     1       0.064   1.716  25.211  0.00  0.00    -0.250 OA
ATOM      9  N   UNL     1      -0.773   2.874  25.245  0.00  0.00    -0.262 N 
ATOM     10  C   UNL     1      -0.554   3.677  25.317  0.00  0.00    +0.097 C 
ATOM     11  C   UNL     1      -1.448   4.095  25.294  0.00  0.00    +0.043 C 
ATOM     12  C   UNL     1      -2.099   4.585  25.290  0.00  0.00    +0.011 C 
ATOM     13  C   UNL     1      -1.968   3.897  25.248  0.00  0.00    +0.058 C 
ATOM     14  C   UNL     1      -1.096   3.508  25.272  0.00  0.00    +0.101 C 
ATOM     15  C   UNL     1      -2.392   3.086  25.163  0.00  0.00    +0.041 A 
ATOM     16  C   UNL     1      -3.147   2.763  25.093  0.00  0.00    +0.014 A 
ATOM     17  C   UNL     1      -3.242   1.946  25.028  0.00  0.00    +0.023 A 
ATOM     18  C   UNL     1      -2.580   1.452  25.031  0.00  0.00    +0.130 A 
ATOM     28  C   UNL     1      -1.825   1.776  25.101  0.00  0.00    +0.276 A 
ATOM     29  O   UNL     1      -1.579   0.990  25.058  0.00  0.00    -0.266 OA
ATOM     30  N   UNL     1      -1.730   2.593  25.166  0.00  0.00    -0.298 N 
ATOM     31  C   UNL     1      -1.883   3.243  25.205  0.00  0.00    +0.110 C 
ENDROOT
BRANCH   6   5
ATOM      1  F   UNL     1      -1.011  -1.701  24.892  0.00  0.00    -0.204 F 
ATOM      2  C   UNL     1      -1.097  -0.882  24.948  0.00  0.00    +0.140 A 
ATOM      3  C   UNL     1      -1.094  -0.420  24.265  0.00  0.00    +0.031 A 
ATOM      4  C   UNL     1      -1.180   0.399  24.320  0.00  0.00    +0.019 A 
ATOM      5  C   UNL     1      -1.269   0.756  25.060  0.00  0.00    +0.075 A 
ATOM     32  C   UNL     1      -1.272   0.293  25.742  0.00  0.00    +0.019 A 
ATOM     33  C   UNL     1      -1.186  -0.525  25.687  0.00  0.00    +0.031 A 
ENDBRANCH   6   5
BRANCH  18  19
ATOM     19  N   UNL     1      -2.675   0.636  24.966  0.00  0.00    -0.171 NA
ATOM     20  C   UNL     1      -3.432   0.311  24.911  0.00  0.00    +0.269 C 
ATOM     21  O   UNL     1      -4.094   0.804  24.922  0.00  0.00    -0.268 OA
BRANCH  20  22
ATOM     22  C   UNL     1      -3.526  -0.507  24.845  0.00  0.00    +0.058 A 
ATOM     23  C   UNL     1      -3.583  -0.856  24.100  0.00  0.00    +0.025 A 
ATOM     24  C   UNL     1      -3.678  -1.673  24.034  0.00  0.00    +0.099 A 
ATOM     25  N   UNL     1      -3.715  -2.140  24.714  0.00  0.00    -0.242 NA
ATOM     26  C   UNL     1      -3.658  -1.790  25.458  0.00  0.00    +0.099 A 
ATOM     27  C   UNL     1      -3.564  -0.973  25.524  0.00  0.00    +0.025 A 
ENDBRANCH  20  22
ENDBRANCH  18  19
TORSDOF 3
ENDMDL
MODEL 4
REMARK VINA RESULT:     -15.4      1.501      4.313
REMARK  Name = 
REMARK  3 active torsions:
REMARK  status: ('A' for Active; 'I' for Inactive)
REMARK    1  A    between atoms: C_5  and  N_6
REMARK    2  A    between atoms: C_18  and  N_19
REMARK    3  A    between atoms: C_20  and  C_22
REMARK                            x       y       z     vdW  Elec       q    Type
REMARK                         _______ _______ _______ _____ _____    ______ ____
ROOT
ATOM      6  N   UNL     1      -4.145   0.848  24.951  0.00  0.00    -0.162 NA
ATOM      7  C   UNL     1      -4.950   1.031  24.944  0.00  0.00    +0.327 C 
ATOM      8  O   UNL     1      -5.509   0.428  24.889  0.00  0.00    -0.250 OA
ATOM      9  N   UNL     1      -5.195   1.818  24.992  0.00  0.00    -0.262 N 
ATOM     10  C   UNL     1      -5.714   2.471  25.025  0.00  0.00    +0.097 C 
ATOM     11  C   UNL     1      -5.054   3.204  25.091  0.00  0.00    +0.043 C 
ATOM     12  C   UNL     1      -4.648   3.907  25.149  0.00  0.00    +0.011 C 
ATOM     13  C   UNL     1      -4.497   3.223  25.106  0.00  0.00    +0.058 C 
ATOM     14  C   UNL     1      -5.147   2.527  25.042  0.00  0.00    +0.101 C 
ATOM     15  C   UNL     1      -3.786   2.642  25.083  0.00  0.00    +0.041 A 
ATOM     16  C   UNL     1      -2.961   2.638  25.102  0.00  0.00    +0.014 A 
ATOM     17  C   UNL     1      -2.551   1.923  25.063  0.00  0.00    +0.023 A 
ATOM     18  C   UNL     1      -2.966   1.212  25.004  0.00  0.00    +0.130 A 
ATOM     28  C   UNL     1      -3.791   1.216  24.985  0.00  0.00    +0.276 A 
ATOM     29  O   UNL     1      -3.707   0.398  24.930  0.00  0.00    -0.266 OA
ATOM     30  N   UNL     1      -4.201   1.931  25.024  0.00  0.00    -0.298 N 
ATOM     31  C   UNL     1      -4.317   2.589  25.066  0.00  0.00    +0.110 C 
ENDROOT
BRANCH   6   5
ATOM      1  F   UNL     1      -3.167  -2.298  24.755  0.00  0.00    -0.204 F 
ATOM      2  C   UNL     1      -3.411  -1.511  24.804  0.00  0.00    +0.140 A 
ATOM      3  C   UNL     1      -3.521  -1.070  24.116  0.00  0.00    +0.031 A 
ATOM      4  C   UNL     1      -3.766  -0.283  24.165  0.00  0.00    +0.019 A 
ATOM      5  C   UNL     1      -3.900   0.062  24.903  0.00  0.00    +0.075 A 
ATOM     32  C   UNL     1      -3.791  -0.379  25.590  0.00  0.00    +0.019 A 
ATOM     33  C   UNL     1      -3.546  -1.166  25.542  0.00  0.00    +0.031 A 
ENDBRANCH   6   5
BRANCH  18  19
ATOM     19  N   UNL     1      -2.556   0.498  24.965  0.00  0.00    -0.171 NA
ATOM     20  C   UNL     1      -1.732   0.493  25.002  0.00  0.00    +0.269 C 
ATOM     21  O   UNL     1      -1.318   1.202  25.078  0.00  0.00    -0.268 OA
BRANCH  20  22
ATOM     22  C   UNL     1      -1.322  -0.223  24.962  0.00  0.00    +0.058 A 
ATOM     23  C   UNL     1      -1.078  -0.518  24.231  0.00  0.00    +0.025 A 
ATOM     24  C   UNL     1      -0.668  -1.234  24.192  0.00  0.00    +0.099 A 
ATOM     25  N   UNL     1      -0.502  -1.652  24.884  0.00  0.00    -0.242 NA
ATOM     26  C   UNL     1      -0.745  -1.356  25.614  0.00  0.00    +0.099 A 
ATOM     27  C   UNL     1      -1.155  -0.642  25.653  0.00  0.00    +0.025 A 
ENDBRANCH  20  22
ENDBRANCH  18  19
TORSDOF 3
ENDMDL
MODEL 5
REMARK VINA RESULT:     -15.1      1.417      4.500
REMARK  Name = 
REMARK  3 active torsions:
REMARK  status: ('A' for Active; 'I' for Inactive)
REMARK    1  A    between atoms: C_5  and  N_6
REMARK    2  A    between atoms: C_18  and  N_19
REMARK    3  A    between atoms: C_20  and  C_22
REMARK                            x       y       z     vdW  Elec       q    Type
REMARK                         _______ _______ _______ _____ _____    ______ ____
ROOT
ATOM      6  N   UNL     1      -3.158   1.944  24.653  0.00  0.00    -0.162 NA
ATOM      7  C   UNL     1      -3.604   2.619  24.491  0.00  0.00    +0.327 C 
ATOM      8  O   UNL     1      -4.353   2.548  24.154  0.00  0.00    -0.250 OA
ATOM      9  N   UNL     1      -3.299   3.366  24.665  0.00  0.00    -0.262 N 
ATOM     10  C   UNL     1      -3.263   4.199  24.724  0.00  0.00    +0.097 C 
ATOM     11  C   UNL     1      -2.367   4.298  25.127  0.00  0.00    +0.043 C 
ATOM     12  C   UNL     1      -1.663   4.546  25.453  0.00  0.00    +0.011 C 
ATOM     13  C   UNL     1      -1.971   3.939  25.284  0.00  0.00    +0.058 C 
ATOM     14  C   UNL     1      -2.839   3.859  24.895  0.00  0.00    +0.101 C 
ATOM     15  C   UNL     1      -1.830   3.031  25.300  0.00  0.00    +0.041 A 
ATOM     16  C   UNL     1      -1.264   2.474  25.523  0.00  0.00    +0.014 A 
ATOM     17  C   UNL     1      -1.412   1.670  25.415  0.00  0.00    +0.023 A 
ATOM     18  C   UNL     1      -2.126   1.422  25.085  0.00  0.00    +0.130 A 
ATOM     28  C   UNL     1      -2.692   1.978  24.862  0.00  0.00    +0.276 A 
ATOM     29  O   UNL     1      -3.128   1.316  24.634  0.00  0.00    -0.266 OA
ATOM     30  N   UNL     1      -2.544   2.783  24.970  0.00  0.00    -0.298 N 
ATOM     31  C   UNL     1      -2.229   3.348  25.139  0.00  0.00    +0.110 C 
ENDROOT
BRANCH   6   5
ATOM      1  F   UNL     1      -4.380  -1.042  23.959  0.00  0.00    -0.204 F 
ATOM      2  C   UNL     1      -4.075  -0.295  24.133  0.00  0.00    +0.140 A 
ATOM      3  C   UNL     1      -4.224   0.051  24.866  0.00  0.00    +0.031 A 
ATOM      4  C   UNL     1      -3.919   0.797  25.040  0.00  0.00    +0.019 A 
ATOM      5  C   UNL     1      -3.463   1.198  24.479  0.00  0.00    +0.075 A 
ATOM     32  C   UNL     1      -3.314   0.851  23.746  0.00  0.00    +0.019 A 
ATOM     33  C   UNL     1      -3.619   0.105  23.572  0.00  0.00    +0.031 A 
ENDBRANCH   6   5
BRANCH  18  19
ATOM     19  N   UNL     1      -2.273   0.618  24.978  0.00  0.00    -0.171 NA
ATOM     20  C   UNL     1      -1.711   0.061  25.210  0.00  0.00    +0.269 C 
ATOM     21  O   UNL     1      -1.001   0.308  25.549  0.00  0.00    -0.268 OA
BRANCH  20  22
ATOM     22  C   UNL     1      -1.859  -0.745  25.103  0.00  0.00    +0.058 A 
ATOM     23  C   UNL     1      -1.597  -1.124  24.418  0.00  0.00    +0.025 A 
ATOM     24  C   UNL     1      -1.745  -1.929  24.311  0.00  0.00    +0.099 A 
ATOM     25  N   UNL     1      -2.154  -2.353  24.888  0.00  0.00    -0.242 NA
ATOM     26  C   UNL     1      -2.415  -1.974  25.572  0.00  0.00    +0.099 A 
ATOM     27  C   UNL     1      -2.268  -1.170  25.679  0.00  0.00    +0.025 A 
ENDBRANCH  20  22
ENDBRANCH  18  19
TORSDOF 3
ENDMDL
MODEL 6
REMARK VINA RESULT:     -14.9      2.183      3.912
REMARK  Name = 
REMARK  3 active torsions:
REMARK  status: ('A' for Active; 'I' for Inactive)
REMARK    1  A    between atoms: C_5  and  N_6
REMARK    2  A    between atoms: C_18  and  N_19
REMARK    3  A    between atoms: C_20  and  C_22
REMARK                            x       y       z     vdW  Elec       q    Type
REMARK                         _______ _______ _______ _____ _____    ______ ____
ROOT
ATOM      6  N   UNL     1      -3.714   3.078  25.286  0.00  0.00    -0.162 NA
ATOM      7  C   UNL     1      -4.392   3.521  25.445  0.00  0.00    +0.327 C 
ATOM      8  O   UNL     1      -4.328   4.322  25.631  0.00  0.00    -0.250 OA
ATOM      9  N   UNL     1      -5.135   3.163  25.418  0.00  0.00    -0.262 N 
ATOM     10  C   UNL     1      -5.966   3.087  25.465  0.00  0.00    +0.097 C 
ATOM     11  C   UNL     1      -6.057   2.128  25.244  0.00  0.00    +0.043 C 
ATOM     12  C   UNL     1      -6.299   1.367  25.081  0.00  0.00    +0.011 C 
ATOM     13  C   UNL     1      -5.695   1.723  25.118  0.00  0.00    +0.058 C 
ATOM     14  C   UNL     1      -5.623   2.651  25.334  0.00  0.00    +0.101 C 
ATOM     15  C   UNL     1      -4.787   1.615  25.021  0.00  0.00    +0.041 A 
ATOM     16  C   UNL     1      -4.227   1.038  24.839  0.00  0.00    +0.014 A 
ATOM     17  C   UNL     1      -3.425   1.232  24.822  0.00  0.00    +0.023 A 
ATOM     18  C   UNL     1      -3.184   2.004  24.987  0.00  0.00    +0.130 A 
ATOM     28  C   UNL     1      -3.745   2.581  25.169  0.00  0.00    +0.276 A 
ATOM     29  O   UNL     1      -3.088   3.075  25.235  0.00  0.00    -0.266 OA
ATOM     30  N   UNL     1      -4.546   2.387  25.186  0.00  0.00    -0.298 N 
ATOM     31  C   UNL     1      -5.108   2.025  25.144  0.00  0.00    +0.110 C 
ENDROOT
BRANCH   6   5
ATOM      1  F   UNL     1      -0.745   4.515  25.392  0.00  0.00    -0.204 F 
ATOM      2  C   UNL     1      -1.487   4.156  25.365  0.00  0.00    +0.140 A 
ATOM      3  C   UNL     1      -1.912   4.140  24.659  0.00  0.00    +0.031 A 
ATOM      4  C   UNL     1      -2.655   3.780  24.632  0.00  0.00    +0.019 A 
ATOM      5  C   UNL     1      -2.972   3.437  25.313  0.00  0.00    +0.075 A 
ATOM     32  C   UNL     1      -2.546   3.454  26.019  0.00  0.00    +0.019 A 
ATOM     33  C   UNL     1      -1.805   3.813  26.046  0.00  0.00    +0.031 A 
ENDBRANCH   6   5
BRANCH  18  19
ATOM     19  N   UNL     1      -2.383   2.198  24.970  0.00  0.00    -0.171 NA
ATOM     20  C   UNL     1      -1.821   1.617  24.803  0.00  0.00    +0.269 C 
ATOM     21  O   UNL     1      -2.061   0.842  24.653  0.00  0.00    -0.268 OA
BRANCH  20  22
ATOM     22  C   UNL     1      -1.019   1.811  24.786  0.00  0.00    +0.058 A 
ATOM     23  C   UNL     1      -0.668   2.050  24.079  0.00  0.00    +0.025 A 
ATOM     24  C   UNL     1       0.134   2.244  24.062  0.00  0.00    +0.099 A 
ATOM     25  N   UNL     1       0.584   2.199  24.753  0.00  0.00    -0.242 NA
ATOM     26  C   UNL     1       0.232   1.961  25.459  0.00  0.00    +0.099 A 
ATOM     27  C   UNL     1      -0.569   1.767  25.476  0.00  0.00    +0.025 A 
ENDBRANCH  20  22
ENDBRANCH  18  19
TORSDOF 3
ENDMDL
MODEL 7
REMARK VINA RESULT:     -14.7      1.325      3.744
REMARK  Name = 
REMARK  3 active torsions:
REMARK  status: ('A' for Active; 'I' for Inactive)
REMARK    1  A    between atoms: C_5  and  N_6
REMARK    2  A    between atoms: C_18  and  N_19
REMARK    3  A    between atoms: C_20  and  C_22
REMARK                            x       y       z     vdW  Elec       q    Type
REMARK                         _______ _______ _______ _____ _____    ______ ____
ROOT
ATOM      6  N   UNL     1      -3.119   1.757  24.748  0.00  0.00    -0.162 NA
ATOM      7  C   UNL     1      -3.383   2.534  24.657  0.00  0.00    +0.327 C 
ATOM      8  O   UNL     1      -2.845   3.134  24.483  0.00  0.00    -0.250 OA
ATOM      9  N   UNL     1      -4.185   2.709  24.739  0.00  0.00    -0.262 N 
ATOM     10  C   UNL     1      -4.885   3.165  24.760  0.00  0.00    +0.097 C 
ATOM     11  C   UNL     1      -5.539   2.455  24.968  0.00  0.00    +0.043 C 
ATOM     12  C   UNL     1      -6.192   1.996  25.134  0.00  0.00    +0.011 C 
ATOM     13  C   UNL     1      -5.501   1.905  25.053  0.00  0.00    +0.058 C 
ATOM     14  C   UNL     1      -4.880   2.603  24.852  0.00  0.00    +0.101 C 
ATOM     15  C   UNL     1      -4.853   1.254  25.071  0.00  0.00    +0.041 A 
ATOM     16  C   UNL     1      -4.763   0.443  25.192  0.00  0.00    +0.014 A 
ATOM     17  C   UNL     1      -4.014   0.100  25.145  0.00  0.00    +0.023 A 
ATOM     18  C   UNL     1      -3.355   0.567  24.977  0.00  0.00    +0.130 A 
ATOM     28  C   UNL     1      -3.445   1.378  24.856  0.00  0.00    +0.276 A 
ATOM     29  O   UNL     1      -2.628   1.364  24.745  0.00  0.00    -0.266 OA
ATOM     30  N   UNL     1      -4.194   1.721  24.903  0.00  0.00    -0.298 N 
ATOM     31  C   UNL     1      -4.856   1.781  24.984  0.00  0.00    +0.110 C 
ENDROOT
BRANCH   6   5
ATOM      1  F   UNL     1       0.089   1.057  24.417  0.00  0.00    -0.204 F 
ATOM      2  C   UNL     1      -0.713   1.232  24.500  0.00  0.00    +0.140 A 
ATOM      3  C   UNL     1      -1.211   1.202  23.843  0.00  0.00    +0.031 A 
ATOM      4  C   UNL     1      -2.014   1.377  23.926  0.00  0.00    +0.019 A 
ATOM      5  C   UNL     1      -2.317   1.582  24.666  0.00  0.00    +0.075 A 
ATOM     32  C   UNL     1      -1.818   1.612  25.322  0.00  0.00    +0.019 A 
ATOM     33  C   UNL     1      -1.016   1.437  25.240  0.00  0.00    +0.031 A 
ENDBRANCH   6   5
BRANCH  18  19
ATOM     19  N   UNL     1      -2.608   0.223  24.930  0.00  0.00    -0.171 NA
ATOM     20  C   UNL     1      -2.516  -0.586  25.063  0.00  0.00    +0.269 C 
ATOM     21  O   UNL     1      -3.173  -1.051  25.243  0.00  0.00    -0.268 OA
BRANCH  20  22
ATOM     22  C   UNL     1      -1.767  -0.930  25.016  0.00  0.00    +0.058 A 
ATOM     23  C   UNL     1      -1.293  -0.978  25.690  0.00  0.00    +0.025 A 
ATOM     24  C   UNL     1      -0.544  -1.322  25.643  0.00  0.00    +0.099 A 
ATOM     25  N   UNL     1      -0.270  -1.617  24.922  0.00  0.00    -0.242 NA
ATOM     26  C   UNL     1      -0.744  -1.568  24.249  0.00  0.00    +0.099 A 
ATOM     27  C   UNL     1      -1.493  -1.225  24.296  0.00  0.00    +0.025 A 
ENDBRANCH  20  22
ENDBRANCH  18  19
TORSDOF 3
ENDMDL
