MODEL 1
REMARK VINA RESULT:     -12.8      0.000      0.000
REMARK  Name = 
REMARK  6 active torsions:
REMARK  status: ('A' for Active; 'I' for Inactive)
REMARK    1  A    between atoms: O_2  and  C_3
REMARK    2  A    between atoms: C_3  and  C_5
REMARK    3  A    between atoms: C_18  and  N_29
REMARK    4  A    between atoms: C_20  and  C_22
REMARK    5  A    between atoms: N_29  and  C_30
REMARK    6  A    between atoms: C_30  and  C_31
REMARK                            x       y       z     vdW  Elec       q    Type
REMARK                         _______ _______ _______ _____ _____    ______ ____
ROOT
ATOM      5  C   UNL     1      -2.206  -0.156  24.604  0.00  0.00    +0.162 C 
ATOM      6  C   UNL     1      -1.485   0.240  24.548  0.00  0.00    +0.055 C 
ATOM      7  C   UNL     1      -1.468   1.065  24.539  0.00  0.00    -0.004 A 
ATOM      8  C   UNL     1      -2.171   1.494  24.586  0.00  0.00    +0.070 A 
ATOM      9  N   UNL     1      -1.982   2.296  24.565  0.00  0.00    -0.249 NA
ATOM     10  C   UNL     1      -1.162   2.365  24.505  0.00  0.00    +0.081 A 
ATOM     11  C   UNL     1      -0.844   1.603  24.489  0.00  0.00    +0.015 A 
ATOM     12  C   UNL     1      -0.028   1.498  24.431  0.00  0.00    +0.001 A 
ATOM     13  C   UNL     1       0.471   2.155  24.389  0.00  0.00    +0.000 A 
ATOM     14  C   UNL     1       0.152   2.916  24.405  0.00  0.00    +0.002 A 
ATOM     15  C   UNL     1      -0.664   3.021  24.463  0.00  0.00    +0.019 A 
ATOM     16  C   UNL     1      -2.892   1.097  24.642  0.00  0.00    +0.100 C 
ATOM     17  C   UNL     1      -3.596   1.525  24.689  0.00  0.00    +0.040 C 
ATOM     18  C   UNL     1      -4.317   1.129  24.745  0.00  0.00    +0.077 C 
ATOM     19  C   UNL     1      -4.334   0.304  24.754  0.00  0.00    +0.038 C 
ATOM     20  C   UNL     1      -3.631  -0.124  24.707  0.00  0.00    +0.082 C 
ATOM     21  N   UNL     1      -2.910   0.272  24.651  0.00  0.00    -0.258 NA
ENDROOT
BRANCH  20  22
ATOM     22  C   UNL     1      -3.650  -0.949  24.716  0.00  0.00    -0.008 A 
ATOM     23  C   UNL     1      -3.557  -1.356  25.427  0.00  0.00    -0.001 A 
ATOM     24  C   UNL     1      -3.576  -2.181  25.435  0.00  0.00    +0.029 A 
ATOM     25  C   UNL     1      -3.688  -2.598  24.732  0.00  0.00    +0.140 A 
ATOM     26  F   UNL     1      -3.706  -3.423  24.741  0.00  0.00    -0.204 F 
ATOM     27  C   UNL     1      -3.780  -2.191  24.021  0.00  0.00    +0.029 A 
ATOM     28  C   UNL     1      -3.761  -1.366  24.013  0.00  0.00    -0.001 A 
ENDBRANCH  20  22
BRANCH   5   3
ATOM      3  C   UNL     1      -2.224  -0.981  24.613  0.00  0.00    +0.332 C 
ATOM      4  O   UNL     1      -2.514  -1.730  24.426  0.00  0.00    -0.249 OA
BRANCH   3   2
ATOM      1  C   UNL     1      -1.011  -1.735  24.633  0.00  0.00    +0.256 C 
ATOM      2  O   UNL     1      -1.652  -1.402  25.032  0.00  0.00    -0.443 OA
ENDBRANCH   3   2
ENDBRANCH   5   3
BRANCH  18  29
ATOM     29  N   UNL     1      -5.021   1.557  24.793  0.00  0.00    -0.205 NA
BRANCH  29  30
ATOM     30  C   UNL     1      -5.313   1.791  25.528  0.00  0.00    +0.165 C 
BRANCH  30  31
ATOM     31  C   UNL     1      -5.722   2.504  25.602  0.00  0.00    -0.059 C 
ATOM     32  C   UNL     1      -6.130   3.216  25.676  0.00  0.00    -0.013 C 
ENDBRANCH  30  31
ENDBRANCH  29  30
ENDBRANCH  18  29
TORSDOF 6
ENDMDL
MODEL 2
REMARK VINA RESULT:     -12.8      2.143      4.645
REMARK  Name = 
REMARK  6 active torsions:
REMARK  status: ('A' for Active; 'I' for Inactive)
REMARK    1  A    between atoms: O_2  and  C_3
REMARK    2  A    between atoms: C_3  and  C_5
REMARK    3  A    between atoms: C_18  and  N_29
REMARK    4  A    between atoms: C_20  and  C_22
REMARK    5  A    between atoms: N_29  and  C_30
REMARK    6  A    between atoms: C_30  and  C_31
REMARK                            x       y       z     vdW  Elec       q    Type
REMARK                         _______ _______ _______ _____ _____    ______ ____
ROOT
ATOM      5  C   UNL     1      -4.183   1.165  24.740  0.00  0.00    +0.162 C 
ATOM      6  C   UNL     1      -4.372   0.379  24.579  0.00  0.00    +0.055 C 
ATOM      7  C   UNL     1      -3.774  -0.187  24.528  0.00  0.00    -0.004 A 
ATOM      8  C   UNL     1      -2.987   0.032  24.639  0.00  0.00    +0.070 A 
ATOM      9  N   UNL     1      -2.520  -0.642  24.557  0.00  0.00    -0.249 NA
ATOM     10  C   UNL     1      -3.017  -1.280  24.395  0.00  0.00    +0.081 A 
ATOM     11  C   UNL     1      -3.793  -0.998  24.377  0.00  0.00    +0.015 A 
ATOM     12  C   UNL     1      -4.416  -1.517  24.226  0.00  0.00    +0.001 A 
ATOM     13  C   UNL     1      -4.264  -2.318  24.092  0.00  0.00    +0.000 A 
ATOM     14  C   UNL     1      -3.488  -2.598  24.110  0.00  0.00    +0.002 A 
ATOM     15  C   UNL     1      -2.865  -2.079  24.262  0.00  0.00    +0.019 A 
ATOM     16  C   UNL     1      -2.798   0.819  24.801  0.00  0.00    +0.100 C 
ATOM     17  C   UNL     1      -2.011   1.040  24.912  0.00  0.00    +0.040 C 
ATOM     18  C   UNL     1      -1.822   1.826  25.074  0.00  0.00    +0.077 C 
ATOM     19  C   UNL     1      -2.420   2.392  25.124  0.00  0.00    +0.038 C 
ATOM     20  C   UNL     1      -3.207   2.171  25.013  0.00  0.00    +0.082 C 
ATOM     21  N   UNL     1      -3.396   1.385  24.851  0.00  0.00    -0.258 NA
ENDROOT
BRANCH  20  22
ATOM     22  C   UNL     1      -3.805   2.738  25.064  0.00  0.00    -0.008 A 
ATOM     23  C   UNL     1      -4.042   3.150  24.390  0.00  0.00    -0.001 A 
ATOM     24  C   UNL     1      -4.639   3.716  24.441  0.00  0.00    +0.029 A 
ATOM     25  C   UNL     1      -5.000   3.871  25.167  0.00  0.00    +0.140 A 
ATOM     26  F   UNL     1      -5.598   4.438  25.218  0.00  0.00    -0.204 F 
ATOM     27  C   UNL     1      -4.763   3.460  25.841  0.00  0.00    +0.029 A 
ATOM     28  C   UNL     1      -4.165   2.893  25.790  0.00  0.00    -0.001 A 
ENDBRANCH  20  22
BRANCH   5   3
ATOM      3  C   UNL     1      -4.782   1.731  24.790  0.00  0.00    +0.332 C 
ATOM      4  O   UNL     1      -5.143   2.460  24.653  0.00  0.00    -0.249 OA
BRANCH   3   2
ATOM      1  C   UNL     1      -6.172   1.405  24.793  0.00  0.00    +0.256 C 
ATOM      2  O   UNL     1      -5.475   1.563  25.205  0.00  0.00    -0.443 OA
ENDBRANCH   3   2
ENDBRANCH   5   3
BRANCH  18  29
ATOM     29  N   UNL     1      -1.035   2.047  25.185  0.00  0.00    -0.205 NA
BRANCH  29  30
ATOM     30  C   UNL     1      -0.646   1.849  25.886  0.00  0.00    +0.165 C 
BRANCH  30  31
ATOM     31  C   UNL     1      -0.016   2.311  26.152  0.00  0.00    -0.059 C 
ATOM     32  C   UNL     1       0.614   2.771  26.419  0.00  0.00    -0.013 C 
ENDBRANCH  30  31
ENDBRANCH  29  30
ENDBRANCH  18  29
TORSDOF 6
ENDMDL
MODEL 3
REMARK VINA RESULT:     -12.6      1.665      3.530
REMARK  Name = 
REMARK  6 active torsions:
REMARK  status: ('A' for Active; 'I' for Inactive)
REMARK    1  A    between atoms: O_2  and  C_3
REMARK    2  A    between atoms: C_3  and  C_5
REMARK    3  A    between atoms: C_18  and  N_29
REMARK    4  A    between atoms: C_20  and  C_22
REMARK    5  A    between atoms: N_29  and  C_30
REMARK    6  A    between atoms: C_30  and  C_31
REMARK                            x       y       z     vdW  Elec       q    Type
REMARK                         _______ _______ _______ _____ _____    ______ ____
ROOT
ATOM      5  C   UNL     1      -2.738   1.561  24.794  0.00  0.00    +0.162 C 
ATOM      6  C   UNL     1      -2.771   2.369  24.956  0.00  0.00    +0.055 C 
ATOM      7  C   UNL     1      -2.087   2.828  24.903  0.00  0.00    -0.004 A 
ATOM      8  C   UNL     1      -1.371   2.480  24.688  0.00  0.00    +0.070 A 
ATOM      9  N   UNL     1      -0.794   3.068  24.681  0.00  0.00    -0.249 NA
ATOM     10  C   UNL     1      -1.151   3.781  24.892  0.00  0.00    +0.081 A 
ATOM     11  C   UNL     1      -1.952   3.632  25.029  0.00  0.00    +0.015 A 
ATOM     12  C   UNL     1      -2.453   4.249  25.251  0.00  0.00    +0.001 A 
ATOM     13  C   UNL     1      -2.155   5.014  25.337  0.00  0.00    +0.000 A 
ATOM     14  C   UNL     1      -1.354   5.162  25.199  0.00  0.00    +0.002 A 
ATOM     15  C   UNL     1      -0.853   4.545  24.977  0.00  0.00    +0.019 A 
ATOM     16  C   UNL     1      -1.338   1.672  24.526  0.00  0.00    +0.100 C 
ATOM     17  C   UNL     1      -0.623   1.322  24.310  0.00  0.00    +0.040 C 
ATOM     18  C   UNL     1      -0.590   0.515  24.149  0.00  0.00    +0.077 C 
ATOM     19  C   UNL     1      -1.273   0.055  24.202  0.00  0.00    +0.038 C 
ATOM     20  C   UNL     1      -1.989   0.404  24.417  0.00  0.00    +0.082 C 
ATOM     21  N   UNL     1      -2.021   1.212  24.579  0.00  0.00    -0.258 NA
ENDROOT
BRANCH  20  22
ATOM     22  C   UNL     1      -2.672  -0.056  24.470  0.00  0.00    -0.008 A 
ATOM     23  C   UNL     1      -3.163  -0.142  23.814  0.00  0.00    -0.001 A 
ATOM     24  C   UNL     1      -3.846  -0.603  23.868  0.00  0.00    +0.029 A 
ATOM     25  C   UNL     1      -4.036  -0.977  24.579  0.00  0.00    +0.140 A 
ATOM     26  F   UNL     1      -4.719  -1.437  24.632  0.00  0.00    -0.204 F 
ATOM     27  C   UNL     1      -3.545  -0.890  25.235  0.00  0.00    +0.029 A 
ATOM     28  C   UNL     1      -2.862  -0.430  25.181  0.00  0.00    -0.001 A 
ENDBRANCH  20  22
BRANCH   5   3
ATOM      3  C   UNL     1      -3.421   1.102  24.848  0.00  0.00    +0.332 C 
ATOM      4  O   UNL     1      -3.868   0.436  25.041  0.00  0.00    -0.249 OA
BRANCH   3   2
ATOM      1  C   UNL     1      -4.695   1.697  25.098  0.00  0.00    +0.256 C 
ATOM      2  O   UNL     1      -4.139   1.395  24.567  0.00  0.00    -0.443 OA
ENDBRANCH   3   2
ENDBRANCH   5   3
BRANCH  18  29
ATOM     29  N   UNL     1       0.126   0.166  23.933  0.00  0.00    -0.205 NA
BRANCH  29  30
ATOM     30  C   UNL     1       0.336   0.112  23.137  0.00  0.00    +0.165 C 
BRANCH  30  31
ATOM     31  C   UNL     1       1.118  -0.049  22.926  0.00  0.00    -0.059 C 
ATOM     32  C   UNL     1       1.898  -0.209  22.716  0.00  0.00    -0.013 C 
ENDBRANCH  30  31
ENDBRANCH  29  30
ENDBRANCH  18  29
TORSDOF 6
ENDMDL
MODEL 4
REMARK VINA RESULT:     -12.6      1.689      3.789
REMARK  Name = 
REMARK  6 active torsions:
REMARK  status: ('A' for Active; 'I' for Inactive)
REMARK    1  A    between atoms: O_2  and  C_3
REMARK    2  A    between atoms: C_3  and  C_5
REMARK    3  A    between atoms: C_18  and  N_29
REMARK    4  A    between atoms: C_20  and  C_22
REMARK    5  A    between atoms: N_29  and  C_30
REMARK    6  A    between atoms: C_30  and  C_31
REMARK                            x       y       z     vdW  Elec       q    Type
REMARK                         _______ _______ _______ _____ _____    ______ ____
ROOT
ATOM      5  C   UNL     1      -1.952   0.370  24.763  0.00  0.00    +0.162 C 
ATOM      6  C   UNL     1      -2.138  -0.422  24.626  0.00  0.00    +0.055 C 
ATOM      7  C   UNL     1      -2.920  -0.644  24.484  0.00  0.00    -0.004 A 
ATOM      8  C   UNL     1      -3.516  -0.074  24.480  0.00  0.00    +0.070 A 
ATOM      9  N   UNL     1      -4.231  -0.455  24.325  0.00  0.00    -0.249 NA
ATOM     10  C   UNL     1      -4.078  -1.261  24.234  0.00  0.00    +0.081 A 
ATOM     11  C   UNL     1      -3.266  -1.377  24.333  0.00  0.00    +0.015 A 
ATOM     12  C   UNL     1      -2.948  -2.136  24.271  0.00  0.00    +0.001 A 
ATOM     13  C   UNL     1      -3.441  -2.778  24.112  0.00  0.00    +0.000 A 
ATOM     14  C   UNL     1      -4.253  -2.661  24.014  0.00  0.00    +0.002 A 
ATOM     15  C   UNL     1      -4.571  -1.902  24.075  0.00  0.00    +0.019 A 
ATOM     16  C   UNL     1      -3.331   0.718  24.617  0.00  0.00    +0.100 C 
ATOM     17  C   UNL     1      -3.927   1.288  24.612  0.00  0.00    +0.040 C 
ATOM     18  C   UNL     1      -3.741   2.080  24.749  0.00  0.00    +0.077 C 
ATOM     19  C   UNL     1      -2.959   2.302  24.891  0.00  0.00    +0.038 C 
ATOM     20  C   UNL     1      -2.364   1.732  24.895  0.00  0.00    +0.082 C 
ATOM     21  N   UNL     1      -2.549   0.940  24.758  0.00  0.00    -0.258 NA
ENDROOT
BRANCH  20  22
ATOM     22  C   UNL     1      -1.582   1.955  25.037  0.00  0.00    -0.008 A 
ATOM     23  C   UNL     1      -1.285   1.954  25.806  0.00  0.00    -0.001 A 
ATOM     24  C   UNL     1      -0.503   2.177  25.947  0.00  0.00    +0.029 A 
ATOM     25  C   UNL     1      -0.018   2.401  25.317  0.00  0.00    +0.140 A 
ATOM     26  F   UNL     1       0.764   2.624  25.459  0.00  0.00    -0.204 F 
ATOM     27  C   UNL     1      -0.315   2.402  24.548  0.00  0.00    +0.029 A 
ATOM     28  C   UNL     1      -1.097   2.179  24.408  0.00  0.00    -0.001 A 
ENDBRANCH  20  22
BRANCH   5   3
ATOM      3  C   UNL     1      -1.170   0.592  24.904  0.00  0.00    +0.332 C 
ATOM      4  O   UNL     1      -0.558   0.992  25.286  0.00  0.00    -0.249 OA
BRANCH   3   2
ATOM      1  C   UNL     1      -0.148  -0.383  24.691  0.00  0.00    +0.256 C 
ATOM      2  O   UNL     1      -0.563   0.285  24.439  0.00  0.00    -0.443 OA
ENDBRANCH   3   2
ENDBRANCH   5   3
BRANCH  18  29
ATOM     29  N   UNL     1      -4.338   2.650  24.745  0.00  0.00    -0.205 NA
BRANCH  29  30
ATOM     30  C   UNL     1      -4.752   2.820  25.438  0.00  0.00    +0.165 C 
BRANCH  30  31
ATOM     31  C   UNL     1      -5.261   3.469  25.467  0.00  0.00    -0.059 C 
ATOM     32  C   UNL     1      -5.770   4.116  25.495  0.00  0.00    -0.013 C 
ENDBRANCH  30  31
ENDBRANCH  29  30
ENDBRANCH  18  29
TORSDOF 6
ENDMDL
MODEL 5
REMARK VINA RESULT:     -12.2      1.827      4.275
REMARK  Name = 
REMARK  6 active torsions:
REMARK  status: ('A' for Active; 'I' for Inactive)
REMARK    1  A    between atoms: O_2  and  C_3
REMARK    2  A    between atoms: C_3  and  C_5
REMARK    3  A    between atoms: C_18  and  N_29
REMARK    4  A    between atoms: C_20  and  C_22
REMARK    5  A    between atoms: N_29  and  C_30
REMARK    6  A    between atoms: C_30  and  C_31
REMARK                            x       y       z     vdW  Elec       q    Type
REMARK                         _______ _______ _______ _____ _____    ______ ____
ROOT
ATOM      5  C   UNL     1      -2.503   2.147  24.853  0.00  0.00    +0.162 C 
ATOM      6  C   UNL     1      -3.110   2.671  25.045  0.00  0.00    +0.055 C 
ATOM      7  C   UNL     1      -3.887   2.401  25.097  0.00  0.00    -0.004 A 
ATOM      8  C   UNL     1      -4.058   1.606  24.957  0.00  0.00    +0.070 A 
ATOM      9  N   UNL     1      -4.871   1.500  25.047  0.00  0.00    -0.249 NA
ATOM     10  C   UNL     1      -5.204   2.229  25.244  0.00  0.00    +0.081 A 
ATOM     11  C   UNL     1      -4.595   2.786  25.275  0.00  0.00    +0.015 A 
ATOM     12  C   UNL     1      -4.764   3.572  25.460  0.00  0.00    +0.001 A 
ATOM     13  C   UNL     1      -5.542   3.801  25.615  0.00  0.00    +0.000 A 
ATOM     14  C   UNL     1      -6.150   3.243  25.584  0.00  0.00    +0.002 A 
ATOM     15  C   UNL     1      -5.981   2.458  25.399  0.00  0.00    +0.019 A 
ATOM     16  C   UNL     1      -3.451   1.081  24.764  0.00  0.00    +0.100 C 
ATOM     17  C   UNL     1      -3.621   0.287  24.624  0.00  0.00    +0.040 C 
ATOM     18  C   UNL     1      -3.014  -0.237  24.431  0.00  0.00    +0.077 C 
ATOM     19  C   UNL     1      -2.237   0.033  24.379  0.00  0.00    +0.038 C 
ATOM     20  C   UNL     1      -2.067   0.828  24.520  0.00  0.00    +0.082 C 
ATOM     21  N   UNL     1      -2.673   1.352  24.712  0.00  0.00    -0.258 NA
ENDROOT
BRANCH  20  22
ATOM     22  C   UNL     1      -1.288   1.098  24.468  0.00  0.00    -0.008 A 
ATOM     23  C   UNL     1      -0.808   1.104  25.138  0.00  0.00    -0.001 A 
ATOM     24  C   UNL     1      -0.030   1.374  25.085  0.00  0.00    +0.029 A 
ATOM     25  C   UNL     1       0.267   1.637  24.361  0.00  0.00    +0.140 A 
ATOM     26  F   UNL     1       1.045   1.907  24.309  0.00  0.00    -0.204 F 
ATOM     27  C   UNL     1      -0.213   1.631  23.691  0.00  0.00    +0.029 A 
ATOM     28  C   UNL     1      -0.991   1.361  23.744  0.00  0.00    -0.001 A 
ENDBRANCH  20  22
BRANCH   5   3
ATOM      3  C   UNL     1      -1.725   2.418  24.801  0.00  0.00    +0.332 C 
ATOM      4  O   UNL     1      -0.965   2.470  24.484  0.00  0.00    -0.249 OA
BRANCH   3   2
ATOM      1  C   UNL     1      -1.391   3.764  25.142  0.00  0.00    +0.256 C 
ATOM      2  O   UNL     1      -1.441   2.966  25.348  0.00  0.00    -0.443 OA
ENDBRANCH   3   2
ENDBRANCH   5   3
BRANCH  18  29
ATOM     29  N   UNL     1      -3.185  -1.033  24.291  0.00  0.00    -0.205 NA
BRANCH  29  30
ATOM     30  C   UNL     1      -3.208  -1.567  24.919  0.00  0.00    +0.165 C 
BRANCH  30  31
ATOM     31  C   UNL     1      -3.357  -2.366  24.776  0.00  0.00    -0.059 C 
ATOM     32  C   UNL     1      -3.506  -3.164  24.633  0.00  0.00    -0.013 C 
ENDBRANCH  30  31
ENDBRANCH  29  30
ENDBRANCH  18  29
TORSDOF 6
ENDMDL
MODEL 6
REMARK VINA RESULT:     -12.2      2.148      3.805
REMARK  Name = 
REMARK  6 active torsions:
REMARK  status: ('A' for Active; 'I' for Inactive)
REMARK    1  A    between atoms: O_2  and  C_3
REMARK    2  A    between atoms: C_3  and  C_5
REMARK    3  A    between atoms: C_18  and  N_29
REMARK    4  A    between atoms: C_20  and  C_22
REMARK    5  A    between atoms: N_29  and  C_30
REMARK    6  A    between atoms: C_30  and  C_31
REMARK                            x       y       z     vdW  Elec       q    Type
REMARK                         _______ _______ _______ _____ _____    ______ ____
ROOT
ATOM      5  C   UNL     1      -3.762   2.860  25.059  0.00  0.00    +0.162 C 
ATOM      6  C   UNL     1      -3.283   3.529  25.102  0.00  0.00    +0.055 C 
ATOM      7  C   UNL     1      -2.470   3.464  24.976  0.00  0.00    -0.004 A 
ATOM      8  C   UNL     1      -2.136   2.728  24.808  0.00  0.00    +0.070 A 
ATOM      9  N   UNL     1      -1.324   2.833  24.711  0.00  0.00    -0.249 NA
ATOM     10  C   UNL     1      -1.154   3.633  24.819  0.00  0.00    +0.081 A 
ATOM     11  C   UNL     1      -1.863   4.023  24.983  0.00  0.00    +0.015 A 
ATOM     12  C   UNL     1      -1.864   4.837  25.117  0.00  0.00    +0.001 A 
ATOM     13  C   UNL     1      -1.157   5.262  25.087  0.00  0.00    +0.000 A 
ATOM     14  C   UNL     1      -0.448   4.871  24.923  0.00  0.00    +0.002 A 
ATOM     15  C   UNL     1      -0.447   4.057  24.789  0.00  0.00    +0.019 A 
ATOM     16  C   UNL     1      -2.615   2.058  24.766  0.00  0.00    +0.100 C 
ATOM     17  C   UNL     1      -2.283   1.322  24.598  0.00  0.00    +0.040 C 
ATOM     18  C   UNL     1      -2.762   0.653  24.555  0.00  0.00    +0.077 C 
ATOM     19  C   UNL     1      -3.574   0.718  24.680  0.00  0.00    +0.038 C 
ATOM     20  C   UNL     1      -3.907   1.454  24.848  0.00  0.00    +0.082 C 
ATOM     21  N   UNL     1      -3.428   2.124  24.891  0.00  0.00    -0.258 NA
ENDROOT
BRANCH  20  22
ATOM     22  C   UNL     1      -4.720   1.519  24.973  0.00  0.00    -0.008 A 
ATOM     23  C   UNL     1      -5.030   1.427  25.732  0.00  0.00    -0.001 A 
ATOM     24  C   UNL     1      -5.843   1.492  25.856  0.00  0.00    +0.029 A 
ATOM     25  C   UNL     1      -6.346   1.649  25.221  0.00  0.00    +0.140 A 
ATOM     26  F   UNL     1      -7.160   1.714  25.346  0.00  0.00    -0.204 F 
ATOM     27  C   UNL     1      -6.037   1.741  24.463  0.00  0.00    +0.029 A 
ATOM     28  C   UNL     1      -5.224   1.676  24.338  0.00  0.00    -0.001 A 
ENDBRANCH  20  22
BRANCH   5   3
ATOM      3  C   UNL     1      -4.574   2.925  25.184  0.00  0.00    +0.332 C 
ATOM      4  O   UNL     1      -5.373   2.763  25.053  0.00  0.00    -0.249 OA
BRANCH   3   2
ATOM      1  C   UNL     1      -5.186   4.161  25.558  0.00  0.00    +0.256 C 
ATOM      2  O   UNL     1      -4.863   3.432  25.768  0.00  0.00    -0.443 OA
ENDBRANCH   3   2
ENDBRANCH   5   3
BRANCH  18  29
ATOM     29  N   UNL     1      -2.428  -0.084  24.387  0.00  0.00    -0.205 NA
BRANCH  29  30
ATOM     30  C   UNL     1      -2.266  -0.612  24.999  0.00  0.00    +0.165 C 
BRANCH  30  31
ATOM     31  C   UNL     1      -1.994  -1.372  24.827  0.00  0.00    -0.059 C 
ATOM     32  C   UNL     1      -1.722  -2.131  24.655  0.00  0.00    -0.013 C 
ENDBRANCH  30  31
ENDBRANCH  29  30
ENDBRANCH  18  29
TORSDOF 6
ENDMDL
MODEL 7
REMARK VINA RESULT:     -12.0      1.138      3.563
REMARK  Name = 
REMARK  6 active torsions:
REMARK  status: ('A' for Active; 'I' for Inactive)
REMARK    1  A    between atoms: O_2  and  C_3
REMARK    2  A    between atoms: C_3  and  C_5
REMARK    3  A    between atoms: C_18  and  N_29
REMARK    4  A    between atoms: C_20  and  C_22
REMARK    5  A    between atoms: N_29  and  C_30
REMARK    6  A    between atoms: C_30  and  C_31
REMARK                            x       y       z     vdW  Elec       q    Type
REMARK                         _______ _______ _______ _____ _____    ______ ____
ROOT
ATOM      5  C   UNL     1      -2.979   0.303  25.078  0.00  0.00    +0.162 C 
ATOM      6  C   UNL     1      -3.798   0.393  25.108  0.00  0.00    +0.055 C 
ATOM      7  C   UNL     1      -4.134   1.143  25.028  0.00  0.00    -0.004 A 
ATOM      8  C   UNL     1      -3.650   1.802  24.919  0.00  0.00    +0.070 A 
ATOM      9  N   UNL     1      -4.135   2.466  24.858  0.00  0.00    -0.249 NA
ATOM     10  C   UNL     1      -4.919   2.219  24.930  0.00  0.00    +0.081 A 
ATOM     11  C   UNL     1      -4.918   1.400  25.035  0.00  0.00    +0.015 A 
ATOM     12  C   UNL     1      -5.631   0.995  25.124  0.00  0.00    +0.001 A 
ATOM     13  C   UNL     1      -6.345   1.408  25.107  0.00  0.00    +0.000 A 
ATOM     14  C   UNL     1      -6.346   2.228  25.001  0.00  0.00    +0.002 A 
ATOM     15  C   UNL     1      -5.632   2.632  24.913  0.00  0.00    +0.019 A 
ATOM     16  C   UNL     1      -2.831   1.712  24.889  0.00  0.00    +0.100 C 
ATOM     17  C   UNL     1      -2.346   2.370  24.779  0.00  0.00    +0.040 C 
ATOM     18  C   UNL     1      -1.527   2.280  24.749  0.00  0.00    +0.077 C 
ATOM     19  C   UNL     1      -1.192   1.531  24.829  0.00  0.00    +0.038 C 
ATOM     20  C   UNL     1      -1.676   0.872  24.938  0.00  0.00    +0.082 C 
ATOM     21  N   UNL     1      -2.495   0.962  24.968  0.00  0.00    -0.258 NA
ENDROOT
BRANCH  20  22
ATOM     22  C   UNL     1      -1.340   0.123  25.017  0.00  0.00    -0.008 A 
ATOM     23  C   UNL     1      -1.156  -0.170  25.766  0.00  0.00    -0.001 A 
ATOM     24  C   UNL     1      -0.819  -0.920  25.844  0.00  0.00    +0.029 A 
ATOM     25  C   UNL     1      -0.667  -1.376  25.173  0.00  0.00    +0.140 A 
ATOM     26  F   UNL     1      -0.331  -2.126  25.253  0.00  0.00    -0.204 F 
ATOM     27  C   UNL     1      -0.851  -1.083  24.425  0.00  0.00    +0.029 A 
ATOM     28  C   UNL     1      -1.188  -0.334  24.347  0.00  0.00    -0.001 A 
ENDBRANCH  20  22
BRANCH   5   3
ATOM      3  C   UNL     1      -2.644  -0.447  25.157  0.00  0.00    +0.332 C 
ATOM      4  O   UNL     1      -2.110  -1.054  24.995  0.00  0.00    -0.249 OA
BRANCH   3   2
ATOM      1  C   UNL     1      -3.456  -1.589  25.432  0.00  0.00    +0.256 C 
ATOM      2  O   UNL     1      -2.959  -0.985  25.696  0.00  0.00    -0.443 OA
ENDBRANCH   3   2
ENDBRANCH   5   3
BRANCH  18  29
ATOM     29  N   UNL     1      -1.043   2.940  24.639  0.00  0.00    -0.205 NA
BRANCH  29  30
ATOM     30  C   UNL     1      -1.005   3.524  25.220  0.00  0.00    +0.165 C 
BRANCH  30  31
ATOM     31  C   UNL     1      -0.825   4.302  25.012  0.00  0.00    -0.059 C 
ATOM     32  C   UNL     1      -0.646   5.079  24.803  0.00  0.00    -0.013 C 
ENDBRANCH  30  31
ENDBRANCH  29  30
ENDBRANCH  18  29
TORSDOF 6
ENDMDL
MODEL 8
REMARK VINA RESULT:     -12.0      2.110      3.679
REMARK  Name = 
REMARK  6 active torsions:
REMARK  status: ('A' for Active; 'I' for Inactive)
REMARK    1  A    between atoms: O_2  and  C_3
REMARK    2  A    between atoms: C_3  and  C_5
REMARK    3  A    between atoms: C_18  and  N_29
REMARK    4  A    between atoms: C_20  and  C_22
REMARK    5  A    between atoms: N_29  and  C_30
REMARK    6  A    between atoms: C_30  and  C_31
REMARK                            x       y       z     vdW  Elec       q    Type
REMARK                         _______ _______ _______ _____ _____    ______ ____
ROOT
ATOM      5  C   UNL     1      -2.900   2.291  24.820  0.00  0.00    +0.162 C 
ATOM      6  C   UNL     1      -2.090   2.438  24.772  0.00  0.00    +0.055 C 
ATOM      7  C   UNL     1      -1.579   1.848  24.506  0.00  0.00    -0.004 A 
ATOM      8  C   UNL     1      -1.877   1.110  24.289  0.00  0.00    +0.070 A 
ATOM      9  N   UNL     1      -1.244   0.639  24.049  0.00  0.00    -0.249 NA
ATOM     10  C   UNL     1      -0.553   1.085  24.118  0.00  0.00    +0.081 A 
ATOM     11  C   UNL     1      -0.761   1.833  24.401  0.00  0.00    +0.015 A 
ATOM     12  C   UNL     1      -0.177   2.403  24.526  0.00  0.00    +0.001 A 
ATOM     13  C   UNL     1       0.613   2.226  24.368  0.00  0.00    +0.000 A 
ATOM     14  C   UNL     1       0.820   1.478  24.085  0.00  0.00    +0.002 A 
ATOM     15  C   UNL     1       0.237   0.908  23.960  0.00  0.00    +0.019 A 
ATOM     16  C   UNL     1      -2.688   0.962  24.337  0.00  0.00    +0.100 C 
ATOM     17  C   UNL     1      -2.987   0.225  24.120  0.00  0.00    +0.040 C 
ATOM     18  C   UNL     1      -3.797   0.078  24.168  0.00  0.00    +0.077 C 
ATOM     19  C   UNL     1      -4.308   0.668  24.434  0.00  0.00    +0.038 C 
ATOM     20  C   UNL     1      -4.009   1.405  24.651  0.00  0.00    +0.082 C 
ATOM     21  N   UNL     1      -3.199   1.553  24.603  0.00  0.00    -0.258 NA
ENDROOT
BRANCH  20  22
ATOM     22  C   UNL     1      -4.521   1.996  24.917  0.00  0.00    -0.008 A 
ATOM     23  C   UNL     1      -4.827   2.547  24.386  0.00  0.00    -0.001 A 
ATOM     24  C   UNL     1      -5.340   3.136  24.652  0.00  0.00    +0.029 A 
ATOM     25  C   UNL     1      -5.545   3.174  25.451  0.00  0.00    +0.140 A 
ATOM     26  F   UNL     1      -6.058   3.764  25.717  0.00  0.00    -0.204 F 
ATOM     27  C   UNL     1      -5.239   2.623  25.982  0.00  0.00    +0.029 A 
ATOM     28  C   UNL     1      -4.727   2.034  25.716  0.00  0.00    -0.001 A 
ENDBRANCH  20  22
BRANCH   5   3
ATOM      3  C   UNL     1      -3.412   2.881  25.086  0.00  0.00    +0.332 C 
ATOM      4  O   UNL     1      -4.099   3.337  25.090  0.00  0.00    -0.249 OA
BRANCH   3   2
ATOM      1  C   UNL     1      -2.885   4.107  25.597  0.00  0.00    +0.256 C 
ATOM      2  O   UNL     1      -3.198   3.354  25.727  0.00  0.00    -0.443 OA
ENDBRANCH   3   2
ENDBRANCH   5   3
BRANCH  18  29
ATOM     29  N   UNL     1      -4.096  -0.660  23.951  0.00  0.00    -0.205 NA
BRANCH  29  30
ATOM     30  C   UNL     1      -3.994  -1.310  24.449  0.00  0.00    +0.165 C 
BRANCH  30  31
ATOM     31  C   UNL     1      -4.092  -2.075  24.155  0.00  0.00    -0.059 C 
ATOM     32  C   UNL     1      -4.190  -2.838  23.862  0.00  0.00    -0.013 C 
ENDBRANCH  30  31
ENDBRANCH  29  30
ENDBRANCH  18  29
TORSDOF 6
ENDMDL
MODEL 9
REMARK VINA RESULT:     -11.7      2.240      5.133
REMARK  Name = 
REMARK  6 active torsions:
REMARK  status: ('A' for Active; 'I' for Inactive)
REMARK    1  A    between atoms: O_2  and  C_3
REMARK    2  A    between atoms: C_3  and  C_5
REMARK    3  A    between atoms: C_18  and  N_29
REMARK    4  A    between atoms: C_20  and  C_22
REMARK    5  A    between atoms: N_29  and  C_30
REMARK    6  A    between atoms: C_30  and  C_31
REMARK                            x       y       z     vdW  Elec       q    Type
REMARK                         _______ _______ _______ _____ _____    ______ ____
ROOT
ATOM      5  C   UNL     1      -2.092   1.103  24.851  0.00  0.00    +0.162 C 
ATOM      6  C   UNL     1      -2.657   0.507  24.931  0.00  0.00    +0.055 C 
ATOM      7  C   UNL     1      -2.463  -0.272  24.740  0.00  0.00    -0.004 A 
ATOM      8  C   UNL     1      -1.706  -0.455  24.468  0.00  0.00    +0.070 A 
ATOM      9  N   UNL     1      -1.677  -1.267  24.324  0.00  0.00    -0.249 NA
ATOM     10  C   UNL     1      -2.415  -1.586  24.505  0.00  0.00    +0.081 A 
ATOM     11  C   UNL     1      -2.902  -0.971  24.762  0.00  0.00    +0.015 A 
ATOM     12  C   UNL     1      -3.681  -1.127  24.984  0.00  0.00    +0.001 A 
ATOM     13  C   UNL     1      -3.974  -1.898  24.949  0.00  0.00    +0.000 A 
ATOM     14  C   UNL     1      -3.487  -2.513  24.691  0.00  0.00    +0.002 A 
ATOM     15  C   UNL     1      -2.707  -2.357  24.470  0.00  0.00    +0.019 A 
ATOM     16  C   UNL     1      -1.142   0.141  24.388  0.00  0.00    +0.100 C 
ATOM     17  C   UNL     1      -0.384  -0.041  24.117  0.00  0.00    +0.040 C 
ATOM     18  C   UNL     1       0.180   0.555  24.037  0.00  0.00    +0.077 C 
ATOM     19  C   UNL     1      -0.013   1.334  24.228  0.00  0.00    +0.038 C 
ATOM     20  C   UNL     1      -0.771   1.516  24.499  0.00  0.00    +0.082 C 
ATOM     21  N   UNL     1      -1.335   0.920  24.579  0.00  0.00    -0.258 NA
ENDROOT
BRANCH  20  22
ATOM     22  C   UNL     1      -0.963   2.296  24.690  0.00  0.00    -0.008 A 
ATOM     23  C   UNL     1      -1.266   2.799  24.113  0.00  0.00    -0.001 A 
ATOM     24  C   UNL     1      -1.458   3.579  24.304  0.00  0.00    +0.029 A 
ATOM     25  C   UNL     1      -1.346   3.854  25.075  0.00  0.00    +0.140 A 
ATOM     26  F   UNL     1      -1.539   4.633  25.266  0.00  0.00    -0.204 F 
ATOM     27  C   UNL     1      -1.043   3.350  25.652  0.00  0.00    +0.029 A 
ATOM     28  C   UNL     1      -0.851   2.571  25.461  0.00  0.00    -0.001 A 
ENDBRANCH  20  22
BRANCH   5   3
ATOM      3  C   UNL     1      -2.286   1.882  25.042  0.00  0.00    +0.332 C 
ATOM      4  O   UNL     1      -2.170   2.625  25.380  0.00  0.00    -0.249 OA
BRANCH   3   2
ATOM      1  C   UNL     1      -3.637   2.256  25.313  0.00  0.00    +0.256 C 
ATOM      2  O   UNL     1      -3.002   2.204  24.789  0.00  0.00    -0.443 OA
ENDBRANCH   3   2
ENDBRANCH   5   3
BRANCH  18  29
ATOM     29  N   UNL     1       0.938   0.372  23.766  0.00  0.00    -0.205 NA
BRANCH  29  30
ATOM     30  C   UNL     1       1.052   0.153  22.979  0.00  0.00    +0.165 C 
BRANCH  30  31
ATOM     31  C   UNL     1       1.817   0.096  22.673  0.00  0.00    -0.059 C 
ATOM     32  C   UNL     1       2.580   0.039  22.368  0.00  0.00    -0.013 C 
ENDBRANCH  30  31
ENDBRANCH  29  30
ENDBRANCH  18  29
TORSDOF 6
ENDMDL
