MODEL 1
REMARK VINA RESULT:     -15.1      0.000      0.000
REMARK  Name = 
REMARK  5 active torsions:
REMARK  status: ('A' for Active; 'I' for Inactive)
REMARK    1  A    between atoms: C_4  and  C_17
REMARK    2  A    between atoms: N_5  and  C_6
REMARK    3  A    between atoms: C_6  and  C_7
REMARK    4  A    between atoms: C_19  and  C_22
REMARK    5  A    between atoms: C_25  and  C_28
REMARK                            x       y       z     vdW  Elec       q    Type
REMARK                         _______ _______ _______ _____ _____    ______ ____
ROOT
ATOM      1  O   UNL     1      -5.862   3.809  25.747  0.00  0.00    -0.222 OA
ATOM      2  C   UNL     1      -5.212   3.358  25.513  0.00  0.00    +0.170 C 
ATOM      3  C   UNL     1      -5.242   2.626  25.134  0.00  0.00    +0.060 C 
ATOM      4  C   UNL     1      -4.467   2.375  25.003  0.00  0.00    +0.140 C 
ATOM      5  N   UNL     1      -3.958   2.951  25.300  0.00  0.00    -0.260 NA
ATOM     16  C   UNL     1      -4.419   3.559  25.616  0.00  0.00    +0.106 C 
ENDROOT
BRANCH   4  17
ATOM     17  C   UNL     1      -4.242   1.670  24.638  0.00  0.00    +0.251 A 
ATOM     18  N   UNL     1      -4.215   0.927  24.993  0.00  0.00    -0.190 NA
ATOM     19  C   UNL     1      -3.960   0.382  24.427  0.00  0.00    +0.203 A 
ATOM     20  N   UNL     1      -3.829   0.791  23.722  0.00  0.00    -0.056 NA
ATOM     21  O   UNL     1      -4.003   1.587  23.852  0.00  0.00    -0.336 OA
BRANCH  19  22
ATOM     22  C   UNL     1      -3.854  -0.427  24.545  0.00  0.00    +0.039 A 
ATOM     23  C   UNL     1      -4.183  -0.968  24.016  0.00  0.00    +0.003 A 
ATOM     24  C   UNL     1      -4.077  -1.777  24.134  0.00  0.00    +0.004 A 
ATOM     25  C   UNL     1      -3.643  -2.046  24.782  0.00  0.00    +0.071 A 
ATOM     26  C   UNL     1      -3.315  -1.505  25.311  0.00  0.00    +0.004 A 
ATOM     27  C   UNL     1      -3.420  -0.696  25.193  0.00  0.00    +0.003 A 
BRANCH  25  28
ATOM     28  C   UNL     1      -3.537  -2.855  24.900  0.00  0.00    +0.419 C 
ATOM     29  F   UNL     1      -3.432  -3.665  25.018  0.00  0.00    -0.166 F 
ATOM     30  F   UNL     1      -3.435  -2.962  24.088  0.00  0.00    -0.166 F 
ATOM     31  F   UNL     1      -3.640  -2.750  25.711  0.00  0.00    -0.166 F 
ENDBRANCH  25  28
ENDBRANCH  19  22
ENDBRANCH   4  17
BRANCH   5   6
ATOM      6  C   UNL     1      -3.134   2.926  25.286  0.00  0.00    +0.101 C 
BRANCH   6   7
ATOM      7  C   UNL     1      -2.697   3.616  25.400  0.00  0.00    +0.014 A 
ATOM      8  C   UNL     1      -2.944   4.282  25.820  0.00  0.00    +0.096 A 
ATOM      9  N   UNL     1      -2.336   4.839  25.794  0.00  0.00    -0.244 NA
ATOM     10  C   UNL     1      -1.714   4.518  25.358  0.00  0.00    +0.081 A 
ATOM     11  C   UNL     1      -1.937   3.762  25.114  0.00  0.00    +0.016 A 
ATOM     12  C   UNL     1      -1.419   3.304  24.664  0.00  0.00    +0.001 A 
ATOM     13  C   UNL     1      -0.679   3.602  24.457  0.00  0.00    +0.000 A 
ATOM     14  C   UNL     1      -0.456   4.358  24.700  0.00  0.00    +0.002 A 
ATOM     15  C   UNL     1      -0.973   4.816  25.151  0.00  0.00    +0.019 A 
ENDBRANCH   6   7
ENDBRANCH   5   6
TORSDOF 5
ENDMDL
MODEL 2
REMARK VINA RESULT:     -13.9      1.745      2.837
REMARK  Name = 
REMARK  5 active torsions:
REMARK  status: ('A' for Active; 'I' for Inactive)
REMARK    1  A    between atoms: C_4  and  C_17
REMARK    2  A    between atoms: N_5  and  C_6
REMARK    3  A    between atoms: C_6  and  C_7
REMARK    4  A    between atoms: C_19  and  C_22
REMARK    5  A    between atoms: C_25  and  C_28
REMARK                            x       y       z     vdW  Elec       q    Type
REMARK                         _______ _______ _______ _____ _____    ______ ____
ROOT
ATOM      1  O   UNL     1       0.430   2.744  26.593  0.00  0.00    -0.222 OA
ATOM      2  C   UNL     1      -0.174   2.468  26.103  0.00  0.00    +0.170 C 
ATOM      3  C   UNL     1      -0.220   1.716  25.766  0.00  0.00    +0.060 C 
ATOM      4  C   UNL     1      -0.912   1.678  25.319  0.00  0.00    +0.140 C 
ATOM      5  N   UNL     1      -1.294   2.406  25.378  0.00  0.00    -0.260 NA
ATOM     16  C   UNL     1      -0.838   2.894  25.863  0.00  0.00    +0.106 C 
ENDROOT
BRANCH   4  17
ATOM     17  C   UNL     1      -1.174   1.026  24.887  0.00  0.00    +0.251 A 
ATOM     18  N   UNL     1      -1.638   0.409  25.175  0.00  0.00    -0.190 NA
ATOM     19  C   UNL     1      -1.770  -0.123  24.557  0.00  0.00    +0.203 A 
ATOM     20  N   UNL     1      -1.386   0.168  23.887  0.00  0.00    -0.056 NA
ATOM     21  O   UNL     1      -1.018   0.877  24.090  0.00  0.00    -0.336 OA
BRANCH  19  22
ATOM     22  C   UNL     1      -2.207  -0.820  24.602  0.00  0.00    +0.039 A 
ATOM     23  C   UNL     1      -3.032  -0.790  24.622  0.00  0.00    +0.003 A 
ATOM     24  C   UNL     1      -3.470  -1.487  24.667  0.00  0.00    +0.004 A 
ATOM     25  C   UNL     1      -3.084  -2.216  24.690  0.00  0.00    +0.071 A 
ATOM     26  C   UNL     1      -2.259  -2.246  24.670  0.00  0.00    +0.004 A 
ATOM     27  C   UNL     1      -1.822  -1.549  24.625  0.00  0.00    +0.003 A 
BRANCH  25  28
ATOM     28  C   UNL     1      -3.521  -2.913  24.735  0.00  0.00    +0.419 C 
ATOM     29  F   UNL     1      -3.959  -3.611  24.779  0.00  0.00    -0.166 F 
ATOM     30  F   UNL     1      -3.503  -2.873  25.559  0.00  0.00    -0.166 F 
ATOM     31  F   UNL     1      -3.539  -2.954  23.912  0.00  0.00    -0.166 F 
ENDBRANCH  25  28
ENDBRANCH  19  22
ENDBRANCH   4  17
BRANCH   5   6
ATOM      6  C   UNL     1      -2.007   2.611  25.017  0.00  0.00    +0.101 C 
BRANCH   6   7
ATOM      7  C   UNL     1      -2.498   3.176  25.363  0.00  0.00    +0.014 A 
ATOM      8  C   UNL     1      -2.253   3.808  25.834  0.00  0.00    +0.096 A 
ATOM      9  N   UNL     1      -2.923   4.232  26.061  0.00  0.00    -0.244 NA
ATOM     10  C   UNL     1      -3.582   3.862  25.731  0.00  0.00    +0.081 A 
ATOM     11  C   UNL     1      -3.319   3.210  25.300  0.00  0.00    +0.016 A 
ATOM     12  C   UNL     1      -3.863   2.731  24.905  0.00  0.00    +0.001 A 
ATOM     13  C   UNL     1      -4.668   2.904  24.942  0.00  0.00    +0.000 A 
ATOM     14  C   UNL     1      -4.931   3.556  25.373  0.00  0.00    +0.002 A 
ATOM     15  C   UNL     1      -4.388   4.036  25.768  0.00  0.00    +0.019 A 
ENDBRANCH   6   7
ENDBRANCH   5   6
TORSDOF 5
ENDMDL
MODEL 3
REMARK VINA RESULT:     -13.9      3.559      6.253
REMARK  Name = 
REMARK  5 active torsions:
REMARK  status: ('A' for Active; 'I' for Inactive)
REMARK    1  A    between atoms: C_4  and  C_17
REMARK    2  A    between atoms: N_5  and  C_6
REMARK    3  A    between atoms: C_6  and  C_7
REMARK    4  A    between atoms: C_19  and  C_22
REMARK    5  A    between atoms: C_25  and  C_28
REMARK                            x       y       z     vdW  Elec       q    Type
REMARK                         _______ _______ _______ _____ _____    ______ ____
ROOT
ATOM      1  O   UNL     1       0.760  -0.798  23.065  0.00  0.00    -0.222 OA
ATOM      2  C   UNL     1       0.222  -0.477  23.601  0.00  0.00    +0.170 C 
ATOM      3  C   UNL     1       0.283   0.261  23.967  0.00  0.00    +0.060 C 
ATOM      4  C   UNL     1      -0.372   0.357  24.458  0.00  0.00    +0.140 C 
ATOM      5  N   UNL     1      -0.839  -0.320  24.397  0.00  0.00    -0.260 NA
ATOM     16  C   UNL     1      -0.471  -0.835  23.867  0.00  0.00    +0.106 C 
ENDROOT
BRANCH   4  17
ATOM     17  C   UNL     1      -0.533   1.016  24.928  0.00  0.00    +0.251 A 
ATOM     18  N   UNL     1      -0.732   1.768  24.657  0.00  0.00    -0.190 NA
ATOM     19  C   UNL     1      -0.844   2.256  25.314  0.00  0.00    +0.203 A 
ATOM     20  N   UNL     1      -0.714   1.803  25.991  0.00  0.00    -0.056 NA
ATOM     21  O   UNL     1      -0.521   1.037  25.753  0.00  0.00    -0.336 OA
BRANCH  19  22
ATOM     22  C   UNL     1      -1.050   3.054  25.297  0.00  0.00    +0.039 A 
ATOM     23  C   UNL     1      -0.563   3.598  24.913  0.00  0.00    +0.003 A 
ATOM     24  C   UNL     1      -0.769   4.396  24.895  0.00  0.00    +0.004 A 
ATOM     25  C   UNL     1      -1.462   4.651  25.262  0.00  0.00    +0.071 A 
ATOM     26  C   UNL     1      -1.950   4.107  25.646  0.00  0.00    +0.004 A 
ATOM     27  C   UNL     1      -1.744   3.309  25.663  0.00  0.00    +0.003 A 
BRANCH  25  28
ATOM     28  C   UNL     1      -1.669   5.449  25.244  0.00  0.00    +0.419 C 
ATOM     29  F   UNL     1      -1.875   6.248  25.227  0.00  0.00    -0.166 F 
ATOM     30  F   UNL     1      -2.377   5.276  25.632  0.00  0.00    -0.166 F 
ATOM     31  F   UNL     1      -0.962   5.624  24.857  0.00  0.00    -0.166 F 
ENDBRANCH  25  28
ENDBRANCH  19  22
ENDBRANCH   4  17
BRANCH   5   6
ATOM      6  C   UNL     1      -1.549  -0.459  24.795  0.00  0.00    +0.101 C 
BRANCH   6   7
ATOM      7  C   UNL     1      -1.945  -1.174  24.695  0.00  0.00    +0.014 A 
ATOM      8  C   UNL     1      -1.613  -1.927  24.764  0.00  0.00    +0.096 A 
ATOM      9  N   UNL     1      -2.206  -2.481  24.620  0.00  0.00    -0.244 NA
ATOM     10  C   UNL     1      -2.904  -2.073  24.462  0.00  0.00    +0.081 A 
ATOM     11  C   UNL     1      -2.743  -1.265  24.509  0.00  0.00    +0.016 A 
ATOM     12  C   UNL     1      -3.345  -0.716  24.375  0.00  0.00    +0.001 A 
ATOM     13  C   UNL     1      -4.107  -0.974  24.195  0.00  0.00    +0.000 A 
ATOM     14  C   UNL     1      -4.268  -1.782  24.148  0.00  0.00    +0.002 A 
ATOM     15  C   UNL     1      -3.667  -2.332  24.282  0.00  0.00    +0.019 A 
ENDBRANCH   6   7
ENDBRANCH   5   6
TORSDOF 5
ENDMDL
MODEL 4
REMARK VINA RESULT:     -13.3      2.858      5.374
REMARK  Name = 
REMARK  5 active torsions:
REMARK  status: ('A' for Active; 'I' for Inactive)
REMARK    1  A    between atoms: C_4  and  C_17
REMARK    2  A    between atoms: N_5  and  C_6
REMARK    3  A    between atoms: C_6  and  C_7
REMARK    4  A    between atoms: C_19  and  C_22
REMARK    5  A    between atoms: C_25  and  C_28
REMARK                            x       y       z     vdW  Elec       q    Type
REMARK                         _______ _______ _______ _____ _____    ______ ____
ROOT
ATOM      1  O   UNL     1      -6.550   1.346  26.245  0.00  0.00    -0.222 OA
ATOM      2  C   UNL     1      -5.867   1.350  25.783  0.00  0.00    +0.170 C 
ATOM      3  C   UNL     1      -5.463   2.019  25.519  0.00  0.00    +0.060 C 
ATOM      4  C   UNL     1      -4.814   1.769  25.077  0.00  0.00    +0.140 C 
ATOM      5  N   UNL     1      -4.815   0.944  25.067  0.00  0.00    -0.260 NA
ATOM     16  C   UNL     1      -5.466   0.685  25.503  0.00  0.00    +0.106 C 
ENDROOT
BRANCH   4  17
ATOM     17  C   UNL     1      -4.260   2.258  24.709  0.00  0.00    +0.251 A 
ATOM     18  N   UNL     1      -3.657   2.675  25.084  0.00  0.00    -0.190 NA
ATOM     19  C   UNL     1      -3.236   3.090  24.508  0.00  0.00    +0.203 A 
ATOM     20  N   UNL     1      -3.582   2.929  23.777  0.00  0.00    -0.056 NA
ATOM     21  O   UNL     1      -4.214   2.414  23.900  0.00  0.00    -0.336 OA
BRANCH  19  22
ATOM     22  C   UNL     1      -2.586   3.580  24.640  0.00  0.00    +0.039 A 
ATOM     23  C   UNL     1      -2.694   4.329  24.971  0.00  0.00    +0.003 A 
ATOM     24  C   UNL     1      -2.044   4.818  25.103  0.00  0.00    +0.004 A 
ATOM     25  C   UNL     1      -1.286   4.561  24.905  0.00  0.00    +0.071 A 
ATOM     26  C   UNL     1      -1.178   3.813  24.574  0.00  0.00    +0.004 A 
ATOM     27  C   UNL     1      -1.828   3.323  24.442  0.00  0.00    +0.003 A 
BRANCH  25  28
ATOM     28  C   UNL     1      -0.636   5.051  25.037  0.00  0.00    +0.419 C 
ATOM     29  F   UNL     1       0.015   5.541  25.169  0.00  0.00    -0.166 F 
ATOM     30  F   UNL     1      -0.147   4.388  25.091  0.00  0.00    -0.166 F 
ATOM     31  F   UNL     1      -1.124   5.713  24.982  0.00  0.00    -0.166 F 
ENDBRANCH  25  28
ENDBRANCH  19  22
ENDBRANCH   4  17
BRANCH   5   6
ATOM      6  C   UNL     1      -4.263   0.462  24.687  0.00  0.00    +0.101 C 
BRANCH   6   7
ATOM      7  C   UNL     1      -4.023  -0.245  25.037  0.00  0.00    +0.014 A 
ATOM      8  C   UNL     1      -3.781  -0.342  25.820  0.00  0.00    +0.096 A 
ATOM      9  N   UNL     1      -3.592  -1.137  25.932  0.00  0.00    -0.244 NA
ATOM     10  C   UNL     1      -3.717  -1.531  25.219  0.00  0.00    +0.081 A 
ATOM     11  C   UNL     1      -3.983  -0.980  24.665  0.00  0.00    +0.016 A 
ATOM     12  C   UNL     1      -4.155  -1.220  23.895  0.00  0.00    +0.001 A 
ATOM     13  C   UNL     1      -4.061  -2.010  23.677  0.00  0.00    +0.000 A 
ATOM     14  C   UNL     1      -3.794  -2.561  24.230  0.00  0.00    +0.002 A 
ATOM     15  C   UNL     1      -3.622  -2.322  25.001  0.00  0.00    +0.019 A 
ENDBRANCH   6   7
ENDBRANCH   5   6
TORSDOF 5
ENDMDL
MODEL 5
REMARK VINA RESULT:     -13.2      3.075      5.676
REMARK  Name = 
REMARK  5 active torsions:
REMARK  status: ('A' for Active; 'I' for Inactive)
REMARK    1  A    between atoms: C_4  and  C_17
REMARK    2  A    between atoms: N_5  and  C_6
REMARK    3  A    between atoms: C_6  and  C_7
REMARK    4  A    between atoms: C_19  and  C_22
REMARK    5  A    between atoms: C_25  and  C_28
REMARK                            x       y       z     vdW  Elec       q    Type
REMARK                         _______ _______ _______ _____ _____    ______ ____
ROOT
ATOM      1  O   UNL     1       0.768  -0.056  23.106  0.00  0.00    -0.222 OA
ATOM      2  C   UNL     1       0.154   0.087  23.638  0.00  0.00    +0.170 C 
ATOM      3  C   UNL     1      -0.077   0.825  23.926  0.00  0.00    +0.060 C 
ATOM      4  C   UNL     1      -0.710   0.712  24.441  0.00  0.00    +0.140 C 
ATOM      5  N   UNL     1      -0.873  -0.096  24.472  0.00  0.00    -0.260 NA
ATOM     16  C   UNL     1      -0.338  -0.482  23.975  0.00  0.00    +0.106 C 
ENDROOT
BRANCH   4  17
ATOM     17  C   UNL     1      -1.112   1.304  24.853  0.00  0.00    +0.251 A 
ATOM     18  N   UNL     1      -1.859   1.600  24.671  0.00  0.00    -0.190 NA
ATOM     19  C   UNL     1      -2.045   2.183  25.225  0.00  0.00    +0.203 A 
ATOM     20  N   UNL     1      -1.411   2.246  25.750  0.00  0.00    -0.056 NA
ATOM     21  O   UNL     1      -0.834   1.702  25.520  0.00  0.00    -0.336 OA
BRANCH  19  22
ATOM     22  C   UNL     1      -2.741   2.624  25.250  0.00  0.00    +0.039 A 
ATOM     23  C   UNL     1      -3.439   2.313  24.938  0.00  0.00    +0.003 A 
ATOM     24  C   UNL     1      -4.135   2.755  24.963  0.00  0.00    +0.004 A 
ATOM     25  C   UNL     1      -4.134   3.507  25.300  0.00  0.00    +0.071 A 
ATOM     26  C   UNL     1      -3.436   3.818  25.612  0.00  0.00    +0.004 A 
ATOM     27  C   UNL     1      -2.740   3.377  25.587  0.00  0.00    +0.003 A 
BRANCH  25  28
ATOM     28  C   UNL     1      -4.830   3.949  25.325  0.00  0.00    +0.419 C 
ATOM     29  F   UNL     1      -5.527   4.390  25.350  0.00  0.00    -0.166 F 
ATOM     30  F   UNL     1      -5.049   3.565  26.022  0.00  0.00    -0.166 F 
ATOM     31  F   UNL     1      -4.612   4.332  24.629  0.00  0.00    -0.166 F 
ENDBRANCH  25  28
ENDBRANCH  19  22
ENDBRANCH   4  17
BRANCH   5   6
ATOM      6  C   UNL     1      -1.465  -0.456  24.921  0.00  0.00    +0.101 C 
BRANCH   6   7
ATOM      7  C   UNL     1      -1.653  -1.249  24.796  0.00  0.00    +0.014 A 
ATOM      8  C   UNL     1      -1.116  -1.874  24.755  0.00  0.00    +0.096 A 
ATOM      9  N   UNL     1      -1.542  -2.568  24.624  0.00  0.00    -0.244 NA
ATOM     10  C   UNL     1      -2.342  -2.372  24.584  0.00  0.00    +0.081 A 
ATOM     11  C   UNL     1      -2.410  -1.556  24.690  0.00  0.00    +0.016 A 
ATOM     12  C   UNL     1      -3.155  -1.200  24.677  0.00  0.00    +0.001 A 
ATOM     13  C   UNL     1      -3.830  -1.658  24.558  0.00  0.00    +0.000 A 
ATOM     14  C   UNL     1      -3.761  -2.473  24.452  0.00  0.00    +0.002 A 
ATOM     15  C   UNL     1      -3.018  -2.831  24.465  0.00  0.00    +0.019 A 
ENDBRANCH   6   7
ENDBRANCH   5   6
TORSDOF 5
ENDMDL
MODEL 6
REMARK VINA RESULT:     -13.1      2.056      3.280
REMARK  Name = 
REMARK  5 active torsions:
REMARK  status: ('A' for Active; 'I' for Inactive)
REMARK    1  A    between atoms: C_4  and  C_17
REMARK    2  A    between atoms: N_5  and  C_6
REMARK    3  A    between atoms: C_6  and  C_7
REMARK    4  A    between atoms: C_19  and  C_22
REMARK    5  A    between atoms: C_25  and  C_28
REMARK                            x       y       z     vdW  Elec       q    Type
REMARK                         _______ _______ _______ _____ _____    ______ ____
ROOT
ATOM      1  O   UNL     1      -1.359   5.039  25.402  0.00  0.00    -0.222 OA
ATOM      2  C   UNL     1      -1.679   4.338  25.106  0.00  0.00    +0.170 C 
ATOM      3  C   UNL     1      -1.253   3.673  24.867  0.00  0.00    +0.060 C 
ATOM      4  C   UNL     1      -1.792   3.104  24.612  0.00  0.00    +0.140 C 
ATOM      5  N   UNL     1      -2.551   3.415  24.693  0.00  0.00    -0.260 NA
ATOM     16  C   UNL     1      -2.481   4.178  24.999  0.00  0.00    +0.106 C 
ENDROOT
BRANCH   4  17
ATOM     17  C   UNL     1      -1.603   2.353  24.325  0.00  0.00    +0.251 A 
ATOM     18  N   UNL     1      -1.508   1.671  24.778  0.00  0.00    -0.190 NA
ATOM     19  C   UNL     1      -1.323   1.049  24.267  0.00  0.00    +0.203 A 
ATOM     20  N   UNL     1      -1.303   1.348  23.499  0.00  0.00    -0.056 NA
ATOM     21  O   UNL     1      -1.477   2.154  23.534  0.00  0.00    -0.336 OA
BRANCH  19  22
ATOM     22  C   UNL     1      -1.182   0.267  24.486  0.00  0.00    +0.039 A 
ATOM     23  C   UNL     1      -1.726  -0.134  24.961  0.00  0.00    +0.003 A 
ATOM     24  C   UNL     1      -1.585  -0.916  25.180  0.00  0.00    +0.004 A 
ATOM     25  C   UNL     1      -0.900  -1.299  24.926  0.00  0.00    +0.071 A 
ATOM     26  C   UNL     1      -0.356  -0.899  24.451  0.00  0.00    +0.004 A 
ATOM     27  C   UNL     1      -0.497  -0.116  24.232  0.00  0.00    +0.003 A 
BRANCH  25  28
ATOM     28  C   UNL     1      -0.759  -2.081  25.145  0.00  0.00    +0.419 C 
ATOM     29  F   UNL     1      -0.618  -2.864  25.364  0.00  0.00    -0.166 F 
ATOM     30  F   UNL     1      -0.207  -1.826  25.703  0.00  0.00    -0.166 F 
ATOM     31  F   UNL     1      -1.311  -2.337  24.588  0.00  0.00    -0.166 F 
ENDBRANCH  25  28
ENDBRANCH  19  22
ENDBRANCH   4  17
BRANCH   5   6
ATOM      6  C   UNL     1      -3.256   3.031  24.502  0.00  0.00    +0.101 C 
BRANCH   6   7
ATOM      7  C   UNL     1      -3.944   3.199  24.924  0.00  0.00    +0.014 A 
ATOM      8  C   UNL     1      -4.094   3.886  25.356  0.00  0.00    +0.096 A 
ATOM      9  N   UNL     1      -4.846   3.821  25.687  0.00  0.00    -0.244 NA
ATOM     10  C   UNL     1      -5.162   3.094  25.460  0.00  0.00    +0.081 A 
ATOM     11  C   UNL     1      -4.605   2.709  24.988  0.00  0.00    +0.016 A 
ATOM     12  C   UNL     1      -4.772   1.963  24.679  0.00  0.00    +0.001 A 
ATOM     13  C   UNL     1      -5.494   1.601  24.841  0.00  0.00    +0.000 A 
ATOM     14  C   UNL     1      -6.051   1.985  25.312  0.00  0.00    +0.002 A 
ATOM     15  C   UNL     1      -5.886   2.732  25.622  0.00  0.00    +0.019 A 
ENDBRANCH   6   7
ENDBRANCH   5   6
TORSDOF 5
ENDMDL
