REMARK  Name = 
REMARK  5 active torsions:
REMARK  status: ('A' for Active; 'I' for Inactive)
REMARK    1  A    between atoms: C_2  and  C_4
REMARK    2  A    between atoms: C_4  and  C_5
REMARK    3  A    between atoms: C_7  and  C_18
REMARK    4  A    between atoms: N_20  and  C_21
REMARK    5  A    between atoms: C_21  and  C_22
REMARK                            x       y       z     vdW  Elec       q    Type
REMARK                         _______ _______ _______ _____ _____    ______ ____
ROOT
ATOM      5  C   UNL     1       0.560  -1.195   0.000  0.00  0.00    +0.095 C 
ATOM      6  N   UNL     1       1.165  -1.756   0.000  0.00  0.00    -0.207 NA
ATOM      7  C   UNL     1       1.103  -2.579   0.000  0.00  0.00    +0.155 C 
ATOM      8  C   UNL     1       0.421  -3.043   0.000  0.00  0.00    +0.055 C 
ATOM      9  C   UNL     1      -0.367  -2.800   0.000  0.00  0.00    +0.000 A 
ATOM     10  C   UNL     1      -1.004  -3.324   0.000  0.00  0.00    +0.095 A 
ATOM     11  N   UNL     1      -1.699  -2.880   0.000  0.00  0.00    -0.244 NA
ATOM     12  C   UNL     1      -1.492  -2.082   0.000  0.00  0.00    +0.081 A 
ATOM     13  C   UNL     1      -0.668  -2.032   0.000  0.00  0.00    +0.013 A 
ATOM     14  C   UNL     1      -0.256  -1.318   0.000  0.00  0.00    -0.005 A 
ATOM     15  C   UNL     1      -0.754  -0.606   0.000  0.00  0.00    -0.003 A 
ATOM     16  C   UNL     1      -1.577  -0.655   0.000  0.00  0.00    +0.001 A 
ATOM     17  C   UNL     1      -1.946  -1.393   0.000  0.00  0.00    +0.019 A 
ENDROOT
BRANCH   7  18
ATOM     18  C   UNL     1       1.817  -2.991   0.000  0.00  0.00    +0.258 C 
ATOM     19  O   UNL     1       1.817  -3.816   0.000  0.00  0.00    -0.272 OA
ATOM     20  N   UNL     1       2.532  -2.579   0.000  0.00  0.00    -0.190 NA
BRANCH  20  21
ATOM     21  C   UNL     1       3.247  -2.991   0.000  0.00  0.00    +0.191 C 
BRANCH  21  22
ATOM     22  C   UNL     1       3.961  -2.579   0.000  0.00  0.00    -0.054 C 
ATOM     23  C   UNL     1       4.675  -2.166   0.000  0.00  0.00    -0.012 C 
ENDBRANCH  21  22
ENDBRANCH  20  21
ENDBRANCH   7  18
BRANCH   5   4
ATOM      4  C   UNL     1       0.803  -0.406   0.000  0.00  0.00    +0.022 C 
BRANCH   4   2
ATOM      1  C   UNL     1       0.485   0.987   0.000  0.00  0.00    +0.000 C 
ATOM      2  C   UNL     1       0.242   0.198   0.000  0.00  0.00    +0.002 C 
ATOM      3  C   UNL     1      -0.562   0.015   0.000  0.00  0.00    +0.000 C 
ENDBRANCH   4   2
ENDBRANCH   5   4
TORSDOF 5
