MODEL 1
REMARK VINA RESULT:     -11.7      0.000      0.000
REMARK  Name = 
REMARK  6 active torsions:
REMARK  status: ('A' for Active; 'I' for Inactive)
REMARK    1  A    between atoms: C_4  and  C_23
REMARK    2  A    between atoms: C_6  and  C_7
REMARK    3  A    between atoms: C_14  and  C_15
REMARK    4  A    between atoms: C_15  and  N_16
REMARK    5  A    between atoms: N_16  and  C_17
REMARK    6  A    between atoms: C_17  and  C_18
REMARK                            x       y       z     vdW  Elec       q    Type
REMARK                         _______ _______ _______ _____ _____    ______ ____
ROOT
ATOM      1  C   UNL     1      -0.997  -0.740  25.673  0.00  0.00    +0.153 C 
ATOM      2  N   UNL     1      -1.536  -0.277  25.253  0.00  0.00    -0.253 N 
ATOM      3  N   UNL     1      -2.315  -0.120  25.473  0.00  0.00    -0.170 NA
ATOM      4  C   UNL     1      -2.650   0.365  24.896  0.00  0.00    +0.102 A 
ATOM      5  C   UNL     1      -2.078   0.507  24.320  0.00  0.00    +0.035 A 
ATOM      6  C   UNL     1      -1.389   0.111  24.541  0.00  0.00    +0.058 A 
ENDROOT
BRANCH   4  23
ATOM     23  C   UNL     1      -3.422   0.656  24.895  0.00  0.00    +0.019 A 
ATOM     24  C   UNL     1      -3.564   1.448  25.076  0.00  0.00    +0.002 A 
ATOM     25  C   UNL     1      -4.337   1.740  25.075  0.00  0.00    +0.000 A 
ATOM     26  C   UNL     1      -4.966   1.238  24.894  0.00  0.00    +0.000 A 
ATOM     27  C   UNL     1      -5.738   1.529  24.893  0.00  0.00    +0.000 A 
ATOM     28  C   UNL     1      -5.880   2.322  25.074  0.00  0.00    +0.000 A 
ATOM     29  C   UNL     1      -5.250   2.823  25.256  0.00  0.00    +0.000 A 
ATOM     30  C   UNL     1      -4.479   2.532  25.256  0.00  0.00    +0.000 A 
ATOM     31  C   UNL     1      -4.824   0.446  24.713  0.00  0.00    +0.000 A 
ATOM     32  C   UNL     1      -4.051   0.154  24.713  0.00  0.00    +0.002 A 
ENDBRANCH   4  23
BRANCH   6   7
ATOM      7  C   UNL     1      -0.678   0.103  24.122  0.00  0.00    +0.056 C 
ATOM      8  C   UNL     1      -0.443  -0.580  23.832  0.00  0.00    +0.078 C 
ATOM      9  N   UNL     1      -0.048   0.141  23.761  0.00  0.00    -0.272 NA
ATOM     10  C   UNL     1      -0.625   0.860  24.259  0.00  0.00    +0.072 C 
ATOM     11  C   UNL     1      -0.720   1.477  24.453  0.00  0.00    +0.018 C 
ATOM     12  C   UNL     1      -0.284   0.806  24.047  0.00  0.00    +0.010 C 
ATOM     13  C   UNL     1       0.471   1.020  23.653  0.00  0.00    +0.018 C 
ATOM     14  C   UNL     1       0.735   0.370  23.353  0.00  0.00    +0.075 C 
BRANCH  14  15
ATOM     15  C   UNL     1       1.362   0.058  22.916  0.00  0.00    +0.105 C 
BRANCH  15  16
ATOM     16  N   UNL     1       2.125   0.355  23.021  0.00  0.00    -0.209 NA
BRANCH  16  17
ATOM     17  C   UNL     1       2.743   0.076  22.550  0.00  0.00    +0.153 C 
BRANCH  17  18
ATOM     18  C   UNL     1       3.526   0.200  22.782  0.00  0.00    +0.141 A 
ATOM     19  C   UNL     1       3.942   0.910  22.722  0.00  0.00    +0.038 A 
ATOM     20  C   UNL     1       4.703   0.784  23.018  0.00  0.00    +0.043 A 
ATOM     21  C   UNL     1       4.756  -0.002  23.259  0.00  0.00    +0.179 A 
ATOM     22  O   UNL     1       4.029  -0.364  23.114  0.00  0.00    -0.453 OA
ENDBRANCH  17  18
ENDBRANCH  16  17
ENDBRANCH  15  16
ENDBRANCH  14  15
ENDBRANCH   6   7
TORSDOF 6
ENDMDL
MODEL 2
REMARK VINA RESULT:      -9.9      3.852      5.018
REMARK  Name = 
REMARK  6 active torsions:
REMARK  status: ('A' for Active; 'I' for Inactive)
REMARK    1  A    between atoms: C_4  and  C_23
REMARK    2  A    between atoms: C_6  and  C_7
REMARK    3  A    between atoms: C_14  and  C_15
REMARK    4  A    between atoms: C_15  and  N_16
REMARK    5  A    between atoms: N_16  and  C_17
REMARK    6  A    between atoms: C_17  and  C_18
REMARK                            x       y       z     vdW  Elec       q    Type
REMARK                         _______ _______ _______ _____ _____    ______ ____
ROOT
ATOM      1  C   UNL     1      -5.850   1.761  25.389  0.00  0.00    +0.153 C 
ATOM      2  N   UNL     1      -5.231   1.277  25.136  0.00  0.00    -0.253 N 
ATOM      3  N   UNL     1      -5.265   0.459  25.035  0.00  0.00    -0.170 NA
ATOM      4  C   UNL     1      -4.525   0.203  24.777  0.00  0.00    +0.102 A 
ATOM      5  C   UNL     1      -4.034   0.863  24.719  0.00  0.00    +0.035 A 
ATOM      6  C   UNL     1      -4.470   1.526  24.941  0.00  0.00    +0.058 A 
ENDROOT
BRANCH   4  23
ATOM     23  C   UNL     1      -4.313  -0.576  24.607  0.00  0.00    +0.019 A 
ATOM     24  C   UNL     1      -3.850  -1.003  25.140  0.00  0.00    +0.002 A 
ATOM     25  C   UNL     1      -3.639  -1.783  24.969  0.00  0.00    +0.000 A 
ATOM     26  C   UNL     1      -3.890  -2.134  24.266  0.00  0.00    +0.000 A 
ATOM     27  C   UNL     1      -3.678  -2.913  24.096  0.00  0.00    +0.000 A 
ATOM     28  C   UNL     1      -3.215  -3.341  24.629  0.00  0.00    +0.000 A 
ATOM     29  C   UNL     1      -2.964  -2.989  25.332  0.00  0.00    +0.000 A 
ATOM     30  C   UNL     1      -3.176  -2.210  25.502  0.00  0.00    +0.000 A 
ATOM     31  C   UNL     1      -4.353  -1.707  23.733  0.00  0.00    +0.000 A 
ATOM     32  C   UNL     1      -4.565  -0.927  23.903  0.00  0.00    +0.002 A 
ENDBRANCH   4  23
BRANCH   6   7
ATOM      7  C   UNL     1      -4.194   2.304  24.964  0.00  0.00    +0.056 C 
ATOM      8  C   UNL     1      -4.038   2.605  25.664  0.00  0.00    +0.078 C 
ATOM      9  N   UNL     1      -3.953   2.990  24.939  0.00  0.00    -0.272 NA
ATOM     10  C   UNL     1      -4.246   2.312  24.194  0.00  0.00    +0.072 C 
ATOM     11  C   UNL     1      -4.341   2.168  23.564  0.00  0.00    +0.018 C 
ATOM     12  C   UNL     1      -4.108   2.688  24.257  0.00  0.00    +0.010 C 
ATOM     13  C   UNL     1      -3.836   3.498  24.056  0.00  0.00    +0.018 C 
ATOM     14  C   UNL     1      -3.672   3.830  24.722  0.00  0.00    +0.075 C 
BRANCH  14  15
ATOM     15  C   UNL     1      -3.399   4.535  25.053  0.00  0.00    +0.105 C 
BRANCH  15  16
ATOM     16  N   UNL     1      -2.688   4.863  24.795  0.00  0.00    -0.209 NA
BRANCH  16  17
ATOM     17  C   UNL     1      -2.090   5.031  25.339  0.00  0.00    +0.153 C 
BRANCH  17  18
ATOM     18  C   UNL     1      -1.300   4.903  25.136  0.00  0.00    +0.141 A 
ATOM     19  C   UNL     1      -0.836   5.392  24.661  0.00  0.00    +0.038 A 
ATOM     20  C   UNL     1      -0.085   5.054  24.604  0.00  0.00    +0.043 A 
ATOM     21  C   UNL     1      -0.085   4.357  25.044  0.00  0.00    +0.179 A 
ATOM     22  O   UNL     1      -0.836   4.262  25.374  0.00  0.00    -0.453 OA
ENDBRANCH  17  18
ENDBRANCH  16  17
ENDBRANCH  15  16
ENDBRANCH  14  15
ENDBRANCH   6   7
TORSDOF 6
ENDMDL
