MODEL 1
REMARK VINA RESULT:      -7.9      0.000      0.000
REMARK  Name = 
REMARK  3 active torsions:
REMARK  status: ('A' for Active; 'I' for Inactive)
REMARK    1  A    between atoms: N_2  and  C_4
REMARK    2  A    between atoms: C_7  and  C_8
REMARK    3  A    between atoms: C_8  and  N_9
REMARK                            x       y       z     vdW  Elec       q    Type
REMARK                         _______ _______ _______ _____ _____    ______ ____
ROOT
ATOM      8  C   UNL     1      -4.529   0.205  24.854  0.00  0.00    +0.149 C 
ENDROOT
BRANCH   8   9
ATOM      9  N   UNL     1      -4.212   0.960  24.957  0.00  0.00    -0.186 NA
ATOM     10  C   UNL     1      -4.710   1.618  24.967  0.00  0.00    +0.323 C 
ATOM     11  O   UNL     1      -5.525   1.521  24.875  0.00  0.00    -0.251 OA
ATOM     12  N   UNL     1      -4.395   2.373  25.070  0.00  0.00    -0.258 N 
ATOM     13  C   UNL     1      -4.892   3.031  25.080  0.00  0.00    +0.127 C 
ATOM     14  C   UNL     1      -4.576   3.785  25.183  0.00  0.00    +0.164 C 
ATOM     15  O   UNL     1      -3.762   3.883  25.276  0.00  0.00    -0.350 OA
ATOM     16  C   UNL     1      -3.264   3.225  25.265  0.00  0.00    +0.164 C 
ATOM     17  C   UNL     1      -3.580   2.470  25.162  0.00  0.00    +0.127 C 
ENDBRANCH   8   9
BRANCH   8   7
ATOM      4  C   UNL     1      -3.420  -1.618  24.917  0.00  0.00    +0.121 C 
ATOM      5  C   UNL     1      -3.329  -1.349  25.692  0.00  0.00    +0.161 C 
ATOM      6  O   UNL     1      -3.733  -0.634  25.762  0.00  0.00    -0.350 OA
ATOM      7  C   UNL     1      -4.074  -0.461  25.031  0.00  0.00    +0.169 C 
ATOM     18  C   UNL     1      -3.881  -1.069  24.509  0.00  0.00    +0.198 C 
ATOM     19  O   UNL     1      -4.108  -1.119  23.717  0.00  0.00    -0.219 OA
BRANCH   4   2
ATOM      1  C   UNL     1      -2.300  -2.362  24.430  0.00  0.00    +0.090 C 
ATOM      2  N   UNL     1      -3.106  -2.314  24.605  0.00  0.00    -0.267 NA
ATOM      3  C   UNL     1      -3.596  -2.963  24.468  0.00  0.00    +0.090 C 
ENDBRANCH   4   2
ENDBRANCH   8   7
TORSDOF 3
ENDMDL
MODEL 2
REMARK VINA RESULT:      -7.6      1.019      4.653
REMARK  Name = 
REMARK  3 active torsions:
REMARK  status: ('A' for Active; 'I' for Inactive)
REMARK    1  A    between atoms: N_2  and  C_4
REMARK    2  A    between atoms: C_7  and  C_8
REMARK    3  A    between atoms: C_8  and  N_9
REMARK                            x       y       z     vdW  Elec       q    Type
REMARK                         _______ _______ _______ _____ _____    ______ ____
ROOT
ATOM      8  C   UNL     1      -3.447   0.646  25.038  0.00  0.00    +0.149 C 
ENDROOT
BRANCH   8   9
ATOM      9  N   UNL     1      -3.665  -0.089  24.731  0.00  0.00    -0.186 NA
ATOM     10  C   UNL     1      -3.285  -0.773  24.991  0.00  0.00    +0.323 C 
ATOM     11  O   UNL     1      -2.687  -0.723  25.558  0.00  0.00    -0.251 OA
ATOM     12  N   UNL     1      -3.503  -1.507  24.685  0.00  0.00    -0.258 N 
ATOM     13  C   UNL     1      -3.124  -2.192  24.945  0.00  0.00    +0.127 C 
ATOM     14  C   UNL     1      -3.341  -2.926  24.639  0.00  0.00    +0.164 C 
ATOM     15  O   UNL     1      -3.939  -2.976  24.073  0.00  0.00    -0.350 OA
ATOM     16  C   UNL     1      -4.319  -2.292  23.813  0.00  0.00    +0.164 C 
ATOM     17  C   UNL     1      -4.101  -1.558  24.119  0.00  0.00    +0.127 C 
ENDBRANCH   8   9
BRANCH   8   7
ATOM      4  C   UNL     1      -4.332   2.571  24.781  0.00  0.00    +0.121 C 
ATOM      5  C   UNL     1      -4.967   2.078  24.593  0.00  0.00    +0.161 C 
ATOM      6  O   UNL     1      -4.712   1.297  24.666  0.00  0.00    -0.350 OA
ATOM      7  C   UNL     1      -3.921   1.308  24.899  0.00  0.00    +0.169 C 
ATOM     18  C   UNL     1      -3.686   2.095  24.970  0.00  0.00    +0.198 C 
ATOM     19  O   UNL     1      -2.937   2.360  25.192  0.00  0.00    -0.219 OA
BRANCH   4   2
ATOM      1  C   UNL     1      -4.700   3.806  25.401  0.00  0.00    +0.090 C 
ATOM      2  N   UNL     1      -4.343   3.396  24.780  0.00  0.00    -0.267 NA
ATOM      3  C   UNL     1      -3.997   3.813  24.158  0.00  0.00    +0.090 C 
ENDBRANCH   4   2
ENDBRANCH   8   7
TORSDOF 3
ENDMDL
MODEL 3
REMARK VINA RESULT:      -7.5      1.596      2.086
REMARK  Name = 
REMARK  3 active torsions:
REMARK  status: ('A' for Active; 'I' for Inactive)
REMARK    1  A    between atoms: N_2  and  C_4
REMARK    2  A    between atoms: C_7  and  C_8
REMARK    3  A    between atoms: C_8  and  N_9
REMARK                            x       y       z     vdW  Elec       q    Type
REMARK                         _______ _______ _______ _____ _____    ______ ____
ROOT
ATOM      8  C   UNL     1      -3.347   1.559  24.766  0.00  0.00    +0.149 C 
ENDROOT
BRANCH   8   9
ATOM      9  N   UNL     1      -2.716   2.080  24.876  0.00  0.00    -0.186 NA
ATOM     10  C   UNL     1      -2.860   2.886  24.981  0.00  0.00    +0.323 C 
ATOM     11  O   UNL     1      -3.635   3.171  24.975  0.00  0.00    -0.251 OA
ATOM     12  N   UNL     1      -2.230   3.407  25.091  0.00  0.00    -0.258 N 
ATOM     13  C   UNL     1      -2.374   4.212  25.195  0.00  0.00    +0.127 C 
ATOM     14  C   UNL     1      -1.744   4.733  25.305  0.00  0.00    +0.164 C 
ATOM     15  O   UNL     1      -0.969   4.448  25.311  0.00  0.00    -0.350 OA
ATOM     16  C   UNL     1      -0.826   3.643  25.206  0.00  0.00    +0.164 C 
ATOM     17  C   UNL     1      -1.456   3.122  25.096  0.00  0.00    +0.127 C 
ENDBRANCH   8   9
BRANCH   8   7
ATOM      4  C   UNL     1      -3.365  -0.569  24.610  0.00  0.00    +0.121 C 
ATOM      5  C   UNL     1      -2.594  -0.398  24.368  0.00  0.00    +0.161 C 
ATOM      6  O   UNL     1      -2.494   0.420  24.397  0.00  0.00    -0.350 OA
ATOM      7  C   UNL     1      -3.202   0.754  24.657  0.00  0.00    +0.169 C 
ATOM     18  C   UNL     1      -3.740   0.143  24.789  0.00  0.00    +0.198 C 
ATOM     19  O   UNL     1      -4.517   0.229  25.053  0.00  0.00    -0.219 OA
BRANCH   4   2
ATOM      1  C   UNL     1      -3.558  -1.790  25.329  0.00  0.00    +0.090 C 
ATOM      2  N   UNL     1      -3.700  -1.321  24.664  0.00  0.00    -0.267 NA
ATOM      3  C   UNL     1      -4.178  -1.605  24.055  0.00  0.00    +0.090 C 
ENDBRANCH   4   2
ENDBRANCH   8   7
TORSDOF 3
ENDMDL
MODEL 4
REMARK VINA RESULT:      -7.5      1.781      1.937
REMARK  Name = 
REMARK  3 active torsions:
REMARK  status: ('A' for Active; 'I' for Inactive)
REMARK    1  A    between atoms: N_2  and  C_4
REMARK    2  A    between atoms: C_7  and  C_8
REMARK    3  A    between atoms: C_8  and  N_9
REMARK                            x       y       z     vdW  Elec       q    Type
REMARK                         _______ _______ _______ _____ _____    ______ ____
ROOT
ATOM      8  C   UNL     1      -3.201   0.574  24.829  0.00  0.00    +0.149 C 
ENDROOT
BRANCH   8   9
ATOM      9  N   UNL     1      -3.483   1.335  24.981  0.00  0.00    -0.186 NA
ATOM     10  C   UNL     1      -4.295   1.467  25.049  0.00  0.00    +0.323 C 
ATOM     11  O   UNL     1      -4.824   0.839  24.965  0.00  0.00    -0.251 OA
ATOM     12  N   UNL     1      -4.578   2.227  25.200  0.00  0.00    -0.258 N 
ATOM     13  C   UNL     1      -5.389   2.360  25.268  0.00  0.00    +0.127 C 
ATOM     14  C   UNL     1      -5.672   3.119  25.419  0.00  0.00    +0.164 C 
ATOM     15  O   UNL     1      -5.143   3.748  25.503  0.00  0.00    -0.350 OA
ATOM     16  C   UNL     1      -4.332   3.615  25.435  0.00  0.00    +0.164 C 
ATOM     17  C   UNL     1      -4.049   2.855  25.283  0.00  0.00    +0.127 C 
ENDBRANCH   8   9
BRANCH   8   7
ATOM      4  C   UNL     1      -1.217  -0.212  24.852  0.00  0.00    +0.121 C 
ATOM      5  C   UNL     1      -1.095   0.537  25.176  0.00  0.00    +0.161 C 
ATOM      6  O   UNL     1      -1.823   0.922  25.207  0.00  0.00    -0.350 OA
ATOM      7  C   UNL     1      -2.395   0.412  24.902  0.00  0.00    +0.169 C 
ATOM     18  C   UNL     1      -2.020  -0.289  24.683  0.00  0.00    +0.198 C 
ATOM     19  O   UNL     1      -2.385  -0.952  24.352  0.00  0.00    -0.219 OA
BRANCH   4   2
ATOM      1  C   UNL     1      -0.144  -0.728  24.060  0.00  0.00    +0.090 C 
ATOM      2  N   UNL     1      -0.637  -0.784  24.720  0.00  0.00    -0.267 NA
ATOM      3  C   UNL     1      -0.548  -1.411  25.248  0.00  0.00    +0.090 C 
ENDBRANCH   4   2
ENDBRANCH   8   7
TORSDOF 3
ENDMDL
MODEL 5
REMARK VINA RESULT:      -7.3      1.439      4.553
REMARK  Name = 
REMARK  3 active torsions:
REMARK  status: ('A' for Active; 'I' for Inactive)
REMARK    1  A    between atoms: N_2  and  C_4
REMARK    2  A    between atoms: C_7  and  C_8
REMARK    3  A    between atoms: C_8  and  N_9
REMARK                            x       y       z     vdW  Elec       q    Type
REMARK                         _______ _______ _______ _____ _____    ______ ____
ROOT
ATOM      8  C   UNL     1      -3.193   1.438  24.353  0.00  0.00    +0.149 C 
ENDROOT
BRANCH   8   9
ATOM      9  N   UNL     1      -3.199   0.665  24.642  0.00  0.00    -0.186 NA
ATOM     10  C   UNL     1      -3.577   0.068  24.215  0.00  0.00    +0.323 C 
ATOM     11  O   UNL     1      -3.949   0.245  23.500  0.00  0.00    -0.251 OA
ATOM     12  N   UNL     1      -3.583  -0.704  24.503  0.00  0.00    -0.258 N 
ATOM     13  C   UNL     1      -3.961  -1.301  24.077  0.00  0.00    +0.127 C 
ATOM     14  C   UNL     1      -3.967  -2.073  24.366  0.00  0.00    +0.164 C 
ATOM     15  O   UNL     1      -3.595  -2.250  25.081  0.00  0.00    -0.350 OA
ATOM     16  C   UNL     1      -3.218  -1.653  25.507  0.00  0.00    +0.164 C 
ATOM     17  C   UNL     1      -3.211  -0.881  25.219  0.00  0.00    +0.127 C 
ENDBRANCH   8   9
BRANCH   8   7
ATOM      4  C   UNL     1      -2.356   3.181  25.257  0.00  0.00    +0.121 C 
ATOM      5  C   UNL     1      -1.751   2.632  25.378  0.00  0.00    +0.161 C 
ATOM      6  O   UNL     1      -1.991   1.913  25.054  0.00  0.00    -0.350 OA
ATOM      7  C   UNL     1      -2.744   2.017  24.733  0.00  0.00    +0.169 C 
ATOM     18  C   UNL     1      -2.969   2.800  24.859  0.00  0.00    +0.198 C 
ATOM     19  O   UNL     1      -3.683   3.143  24.627  0.00  0.00    -0.219 OA
BRANCH   4   2
ATOM      1  C   UNL     1      -1.867   4.515  25.101  0.00  0.00    +0.090 C 
ATOM      2  N   UNL     1      -2.347   3.971  25.494  0.00  0.00    -0.267 NA
ATOM      3  C   UNL     1      -2.819   4.218  26.124  0.00  0.00    +0.090 C 
ENDBRANCH   4   2
ENDBRANCH   8   7
TORSDOF 3
ENDMDL
MODEL 6
REMARK VINA RESULT:      -7.1     18.743     19.801
REMARK  Name = 
REMARK  3 active torsions:
REMARK  status: ('A' for Active; 'I' for Inactive)
REMARK    1  A    between atoms: N_2  and  C_4
REMARK    2  A    between atoms: C_7  and  C_8
REMARK    3  A    between atoms: C_8  and  N_9
REMARK                            x       y       z     vdW  Elec       q    Type
REMARK                         _______ _______ _______ _____ _____    ______ ____
ROOT
ATOM      8  C   UNL     1      13.999   6.788  20.405  0.00  0.00    +0.149 C 
ENDROOT
BRANCH   8   9
ATOM      9  N   UNL     1      13.326   7.201  20.166  0.00  0.00    -0.186 NA
ATOM     10  C   UNL     1      12.667   7.238  20.662  0.00  0.00    +0.323 C 
ATOM     11  O   UNL     1      12.683   6.861  21.397  0.00  0.00    -0.251 OA
ATOM     12  N   UNL     1      11.994   7.651  20.425  0.00  0.00    -0.258 N 
ATOM     13  C   UNL     1      11.336   7.688  20.920  0.00  0.00    +0.127 C 
ATOM     14  C   UNL     1      10.663   8.100  20.682  0.00  0.00    +0.164 C 
ATOM     15  O   UNL     1      10.648   8.477  19.948  0.00  0.00    -0.350 OA
ATOM     16  C   UNL     1      11.306   8.440  19.452  0.00  0.00    +0.164 C 
ATOM     17  C   UNL     1      11.979   8.027  19.690  0.00  0.00    +0.127 C 
ENDBRANCH   8   9
BRANCH   8   7
ATOM      4  C   UNL     1      15.916   6.591  19.485  0.00  0.00    +0.121 C 
ATOM      5  C   UNL     1      15.477   6.924  18.870  0.00  0.00    +0.161 C 
ATOM      6  O   UNL     1      14.706   7.038  19.140  0.00  0.00    -0.350 OA
ATOM      7  C   UNL     1      14.668   6.776  19.921  0.00  0.00    +0.169 C 
ATOM     18  C   UNL     1      15.415   6.500  20.134  0.00  0.00    +0.198 C 
ATOM     19  O   UNL     1      15.626   6.187  20.869  0.00  0.00    -0.219 OA
BRANCH   4   2
ATOM      1  C   UNL     1      16.967   5.782  18.951  0.00  0.00    +0.090 C 
ATOM      2  N   UNL     1      16.714   6.386  19.455  0.00  0.00    -0.267 NA
ATOM      3  C   UNL     1      17.261   6.783  19.928  0.00  0.00    +0.090 C 
ENDBRANCH   4   2
ENDBRANCH   8   7
TORSDOF 3
ENDMDL
MODEL 7
REMARK VINA RESULT:      -7.0     18.674     19.896
REMARK  Name = 
REMARK  3 active torsions:
REMARK  status: ('A' for Active; 'I' for Inactive)
REMARK    1  A    between atoms: N_2  and  C_4
REMARK    2  A    between atoms: C_7  and  C_8
REMARK    3  A    between atoms: C_8  and  N_9
REMARK                            x       y       z     vdW  Elec       q    Type
REMARK                         _______ _______ _______ _____ _____    ______ ____
ROOT
ATOM      8  C   UNL     1      13.694   6.861  20.045  0.00  0.00    +0.149 C 
ENDROOT
BRANCH   8   9
ATOM      9  N   UNL     1      14.472   6.753  20.300  0.00  0.00    -0.186 NA
ATOM     10  C   UNL     1      15.073   6.630  19.749  0.00  0.00    +0.323 C 
ATOM     11  O   UNL     1      14.896   6.614  18.942  0.00  0.00    -0.251 OA
ATOM     12  N   UNL     1      15.850   6.522  20.003  0.00  0.00    -0.258 N 
ATOM     13  C   UNL     1      16.451   6.399  19.452  0.00  0.00    +0.127 C 
ATOM     14  C   UNL     1      17.228   6.291  19.706  0.00  0.00    +0.164 C 
ATOM     15  O   UNL     1      17.405   6.307  20.512  0.00  0.00    -0.350 OA
ATOM     16  C   UNL     1      16.803   6.431  21.063  0.00  0.00    +0.164 C 
ATOM     17  C   UNL     1      16.027   6.538  20.809  0.00  0.00    +0.127 C 
ENDBRANCH   8   9
BRANCH   8   7
ATOM      4  C   UNL     1      11.931   7.346  21.146  0.00  0.00    +0.121 C 
ATOM      5  C   UNL     1      12.518   7.612  21.661  0.00  0.00    +0.161 C 
ATOM      6  O   UNL     1      13.250   7.463  21.311  0.00  0.00    -0.350 OA
ATOM      7  C   UNL     1      13.115   7.104  20.580  0.00  0.00    +0.169 C 
ATOM     18  C   UNL     1      12.300   7.032  20.479  0.00  0.00    +0.198 C 
ATOM     19  O   UNL     1      11.920   6.703  19.824  0.00  0.00    -0.219 OA
BRANCH   4   2
ATOM      1  C   UNL     1      10.683   8.025  20.985  0.00  0.00    +0.090 C 
ATOM      2  N   UNL     1      11.117   7.386  21.277  0.00  0.00    -0.267 NA
ATOM      3  C   UNL     1      10.736   6.788  21.699  0.00  0.00    +0.090 C 
ENDBRANCH   4   2
ENDBRANCH   8   7
TORSDOF 3
ENDMDL
MODEL 8
REMARK VINA RESULT:      -6.9     17.506     18.788
REMARK  Name = 
REMARK  3 active torsions:
REMARK  status: ('A' for Active; 'I' for Inactive)
REMARK    1  A    between atoms: N_2  and  C_4
REMARK    2  A    between atoms: C_7  and  C_8
REMARK    3  A    between atoms: C_8  and  N_9
REMARK                            x       y       z     vdW  Elec       q    Type
REMARK                         _______ _______ _______ _____ _____    ______ ____
ROOT
ATOM      8  C   UNL     1      12.276   7.338  19.201  0.00  0.00    +0.149 C 
ENDROOT
BRANCH   8   9
ATOM      9  N   UNL     1      11.893   7.688  19.843  0.00  0.00    -0.186 NA
ATOM     10  C   UNL     1      11.537   7.215  20.418  0.00  0.00    +0.323 C 
ATOM     11  O   UNL     1      11.565   6.392  20.352  0.00  0.00    -0.251 OA
ATOM     12  N   UNL     1      11.154   7.563  21.060  0.00  0.00    -0.258 N 
ATOM     13  C   UNL     1      10.799   7.091  21.635  0.00  0.00    +0.127 C 
ATOM     14  C   UNL     1      10.416   7.440  22.276  0.00  0.00    +0.164 C 
ATOM     15  O   UNL     1      10.388   8.262  22.343  0.00  0.00    -0.350 OA
ATOM     16  C   UNL     1      10.743   8.734  21.768  0.00  0.00    +0.164 C 
ATOM     17  C   UNL     1      11.126   8.386  21.127  0.00  0.00    +0.127 C 
ENDBRANCH   8   9
BRANCH   8   7
ATOM      4  C   UNL     1      13.191   8.327  17.546  0.00  0.00    +0.121 C 
ATOM      5  C   UNL     1      13.544   8.719  18.181  0.00  0.00    +0.161 C 
ATOM      6  O   UNL     1      13.244   8.397  18.877  0.00  0.00    -0.350 OA
ATOM      7  C   UNL     1      12.706   7.805  18.674  0.00  0.00    +0.169 C 
ATOM     18  C   UNL     1      12.674   7.762  17.851  0.00  0.00    +0.198 C 
ATOM     19  O   UNL     1      12.206   7.245  17.410  0.00  0.00    -0.219 OA
BRANCH   4   2
ATOM      1  C   UNL     1      13.978   8.125  16.369  0.00  0.00    +0.090 C 
ATOM      2  N   UNL     1      13.332   8.475  16.746  0.00  0.00    -0.267 NA
ATOM      3  C   UNL     1      12.828   8.971  16.323  0.00  0.00    +0.090 C 
ENDBRANCH   4   2
ENDBRANCH   8   7
TORSDOF 3
ENDMDL
MODEL 9
REMARK VINA RESULT:      -6.6     17.764     19.089
REMARK  Name = 
REMARK  3 active torsions:
REMARK  status: ('A' for Active; 'I' for Inactive)
REMARK    1  A    between atoms: N_2  and  C_4
REMARK    2  A    between atoms: C_7  and  C_8
REMARK    3  A    between atoms: C_8  and  N_9
REMARK                            x       y       z     vdW  Elec       q    Type
REMARK                         _______ _______ _______ _____ _____    ______ ____
ROOT
ATOM      8  C   UNL     1      12.495   7.574  19.462  0.00  0.00    +0.149 C 
ENDROOT
BRANCH   8   9
ATOM      9  N   UNL     1      12.559   7.954  18.732  0.00  0.00    -0.186 NA
ATOM     10  C   UNL     1      13.212   7.809  18.248  0.00  0.00    +0.323 C 
ATOM     11  O   UNL     1      13.800   7.284  18.494  0.00  0.00    -0.251 OA
ATOM     12  N   UNL     1      13.277   8.188  17.519  0.00  0.00    -0.258 N 
ATOM     13  C   UNL     1      13.928   8.044  17.035  0.00  0.00    +0.127 C 
ATOM     14  C   UNL     1      13.993   8.423  16.306  0.00  0.00    +0.164 C 
ATOM     15  O   UNL     1      13.406   8.948  16.060  0.00  0.00    -0.350 OA
ATOM     16  C   UNL     1      12.754   9.093  16.544  0.00  0.00    +0.164 C 
ATOM     17  C   UNL     1      12.689   8.714  17.273  0.00  0.00    +0.127 C 
ENDBRANCH   8   9
BRANCH   8   7
ATOM      4  C   UNL     1      11.102   7.842  21.057  0.00  0.00    +0.121 C 
ATOM      5  C   UNL     1      10.730   8.258  20.449  0.00  0.00    +0.161 C 
ATOM      6  O   UNL     1      11.207   8.208  19.778  0.00  0.00    -0.350 OA
ATOM      7  C   UNL     1      11.873   7.761  19.971  0.00  0.00    +0.169 C 
ATOM     18  C   UNL     1      11.808   7.535  20.762  0.00  0.00    +0.198 C 
ATOM     19  O   UNL     1      12.354   7.082  21.183  0.00  0.00    -0.219 OA
BRANCH   4   2
ATOM      1  C   UNL     1      10.391   7.072  22.030  0.00  0.00    +0.090 C 
ATOM      2  N   UNL     1      10.817   7.749  21.826  0.00  0.00    -0.267 NA
ATOM      3  C   UNL     1      10.958   8.333  22.392  0.00  0.00    +0.090 C 
ENDBRANCH   4   2
ENDBRANCH   8   7
TORSDOF 3
ENDMDL
