MODEL 1
REMARK VINA RESULT:     -12.1      0.000      0.000
REMARK  Name = 
REMARK  3 active torsions:
REMARK  status: ('A' for Active; 'I' for Inactive)
REMARK    1  A    between atoms: C_2  and  C_20
REMARK    2  A    between atoms: N_9  and  C_10
REMARK    3  A    between atoms: C_10  and  C_11
REMARK                            x       y       z     vdW  Elec       q    Type
REMARK                         _______ _______ _______ _____ _____    ______ ____
ROOT
ATOM      1  O   UNL     1      -4.305   0.005  25.325  0.00  0.00    -0.270 OA
ATOM      2  C   UNL     1      -3.646  -0.388  25.022  0.00  0.00    +0.249 C 
ATOM      3  N   UNL     1      -2.915  -0.004  24.989  0.00  0.00    -0.273 N 
ATOM      4  C   UNL     1      -2.256  -0.396  24.686  0.00  0.00    +0.115 C 
ATOM      5  C   UNL     1      -1.527  -0.012  24.653  0.00  0.00    +0.116 C 
ATOM      6  N   UNL     1      -1.456   0.764  24.923  0.00  0.00    -0.261 N 
ATOM      7  C   UNL     1      -2.116   1.157  25.226  0.00  0.00    +0.116 C 
ATOM      8  C   UNL     1      -1.881   1.915  25.450  0.00  0.00    +0.117 C 
ATOM      9  N   UNL     1      -1.076   1.991  25.285  0.00  0.00    -0.258 N 
ATOM     17  C   UNL     1      -0.815   1.280  24.960  0.00  0.00    +0.308 C 
ATOM     18  O   UNL     1      -0.044   1.114  24.714  0.00  0.00    -0.252 OA
ATOM     19  C   UNL     1      -2.846   0.773  25.259  0.00  0.00    +0.115 C 
ENDROOT
BRANCH   2  20
ATOM     20  C   UNL     1      -3.715  -1.164  24.751  0.00  0.00    +0.054 A 
ATOM     21  C   UNL     1      -4.047  -1.314  24.011  0.00  0.00    +0.005 A 
ATOM     22  C   UNL     1      -4.117  -2.090  23.740  0.00  0.00    +0.000 A 
ATOM     23  C   UNL     1      -3.855  -2.716  24.210  0.00  0.00    +0.000 A 
ATOM     24  C   UNL     1      -3.523  -2.566  24.949  0.00  0.00    +0.000 A 
ATOM     25  C   UNL     1      -3.453  -1.790  25.221  0.00  0.00    +0.005 A 
ENDBRANCH   2  20
BRANCH   9  10
ATOM     10  C   UNL     1      -0.615   2.661  25.422  0.00  0.00    +0.123 C 
BRANCH  10  11
ATOM     11  C   UNL     1      -0.938   3.414  25.320  0.00  0.00    +0.017 A 
ATOM     12  C   UNL     1      -0.696   3.884  24.687  0.00  0.00    +0.001 A 
ATOM     13  C   UNL     1      -1.020   4.637  24.585  0.00  0.00    +0.020 A 
ATOM     14  C   UNL     1      -1.585   4.918  25.116  0.00  0.00    +0.099 A 
ATOM     15  N   UNL     1      -1.827   4.446  25.749  0.00  0.00    -0.243 NA
ATOM     16  C   UNL     1      -1.504   3.695  25.851  0.00  0.00    +0.096 A 
ENDBRANCH  10  11
ENDBRANCH   9  10
TORSDOF 3
ENDMDL
MODEL 2
REMARK VINA RESULT:     -11.9      1.505      2.277
REMARK  Name = 
REMARK  3 active torsions:
REMARK  status: ('A' for Active; 'I' for Inactive)
REMARK    1  A    between atoms: C_2  and  C_20
REMARK    2  A    between atoms: N_9  and  C_10
REMARK    3  A    between atoms: C_10  and  C_11
REMARK                            x       y       z     vdW  Elec       q    Type
REMARK                         _______ _______ _______ _____ _____    ______ ____
ROOT
ATOM      1  O   UNL     1      -2.083  -0.682  24.221  0.00  0.00    -0.270 OA
ATOM      2  C   UNL     1      -2.879  -0.758  24.423  0.00  0.00    +0.249 C 
ATOM      3  N   UNL     1      -3.327  -0.086  24.596  0.00  0.00    -0.273 N 
ATOM      4  C   UNL     1      -4.123  -0.162  24.798  0.00  0.00    +0.115 C 
ATOM      5  C   UNL     1      -4.570   0.509  24.971  0.00  0.00    +0.116 C 
ATOM      6  N   UNL     1      -4.222   1.257  24.942  0.00  0.00    -0.261 N 
ATOM      7  C   UNL     1      -3.425   1.333  24.740  0.00  0.00    +0.116 C 
ATOM      8  C   UNL     1      -3.233   2.134  24.756  0.00  0.00    +0.117 C 
ATOM      9  N   UNL     1      -3.910   2.554  24.968  0.00  0.00    -0.258 N 
ATOM     17  C   UNL     1      -4.521   2.012  25.083  0.00  0.00    +0.308 C 
ATOM     18  O   UNL     1      -5.296   2.193  25.301  0.00  0.00    -0.252 OA
ATOM     19  C   UNL     1      -2.978   0.661  24.567  0.00  0.00    +0.115 C 
ENDROOT
BRANCH   2  20
ATOM     20  C   UNL     1      -3.229  -1.504  24.452  0.00  0.00    +0.054 A 
ATOM     21  C   UNL     1      -3.111  -1.989  25.111  0.00  0.00    +0.005 A 
ATOM     22  C   UNL     1      -3.461  -2.735  25.140  0.00  0.00    +0.000 A 
ATOM     23  C   UNL     1      -3.927  -2.998  24.512  0.00  0.00    +0.000 A 
ATOM     24  C   UNL     1      -4.044  -2.514  23.855  0.00  0.00    +0.000 A 
ATOM     25  C   UNL     1      -3.695  -1.767  23.825  0.00  0.00    +0.005 A 
ENDBRANCH   2  20
BRANCH   9  10
ATOM     10  C   UNL     1      -3.967   3.373  25.051  0.00  0.00    +0.123 C 
BRANCH  10  11
ATOM     11  C   UNL     1      -3.292   3.820  25.212  0.00  0.00    +0.017 A 
ATOM     12  C   UNL     1      -3.069   3.964  25.993  0.00  0.00    +0.001 A 
ATOM     13  C   UNL     1      -2.394   4.410  26.154  0.00  0.00    +0.020 A 
ATOM     14  C   UNL     1      -1.942   4.712  25.533  0.00  0.00    +0.099 A 
ATOM     15  N   UNL     1      -2.165   4.568  24.752  0.00  0.00    -0.243 NA
ATOM     16  C   UNL     1      -2.840   4.122  24.591  0.00  0.00    +0.096 A 
ENDBRANCH  10  11
ENDBRANCH   9  10
TORSDOF 3
ENDMDL
MODEL 3
REMARK VINA RESULT:     -11.7      1.038      5.250
REMARK  Name = 
REMARK  3 active torsions:
REMARK  status: ('A' for Active; 'I' for Inactive)
REMARK    1  A    between atoms: C_2  and  C_20
REMARK    2  A    between atoms: N_9  and  C_10
REMARK    3  A    between atoms: C_10  and  C_11
REMARK                            x       y       z     vdW  Elec       q    Type
REMARK                         _______ _______ _______ _____ _____    ______ ____
ROOT
ATOM      1  O   UNL     1      -0.705   2.266  25.553  0.00  0.00    -0.270 OA
ATOM      2  C   UNL     1      -1.326   2.714  25.245  0.00  0.00    +0.249 C 
ATOM      3  N   UNL     1      -2.050   2.356  25.077  0.00  0.00    -0.273 N 
ATOM      4  C   UNL     1      -2.671   2.804  24.769  0.00  0.00    +0.115 C 
ATOM      5  C   UNL     1      -3.394   2.446  24.601  0.00  0.00    +0.116 C 
ATOM      6  N   UNL     1      -3.498   1.639  24.740  0.00  0.00    -0.261 N 
ATOM      7  C   UNL     1      -2.878   1.191  25.048  0.00  0.00    +0.116 C 
ATOM      8  C   UNL     1      -3.140   0.414  25.128  0.00  0.00    +0.117 C 
ATOM      9  N   UNL     1      -3.923   0.381  24.869  0.00  0.00    -0.258 N 
ATOM     17  C   UNL     1      -4.143   1.139  24.630  0.00  0.00    +0.308 C 
ATOM     18  O   UNL     1      -4.881   1.357  24.332  0.00  0.00    -0.252 OA
ATOM     19  C   UNL     1      -2.153   1.549  25.216  0.00  0.00    +0.115 C 
ENDROOT
BRANCH   2  20
ATOM     20  C   UNL     1      -1.223   3.520  25.105  0.00  0.00    +0.054 A 
ATOM     21  C   UNL     1      -0.749   3.773  24.478  0.00  0.00    +0.005 A 
ATOM     22  C   UNL     1      -0.646   4.579  24.338  0.00  0.00    +0.000 A 
ATOM     23  C   UNL     1      -1.016   5.133  24.824  0.00  0.00    +0.000 A 
ATOM     24  C   UNL     1      -1.489   4.881  25.450  0.00  0.00    +0.000 A 
ATOM     25  C   UNL     1      -1.593   4.075  25.591  0.00  0.00    +0.005 A 
ENDBRANCH   2  20
BRANCH   9  10
ATOM     10  C   UNL     1      -4.400  -0.292  24.853  0.00  0.00    +0.123 C 
BRANCH  10  11
ATOM     11  C   UNL     1      -4.060  -1.038  24.763  0.00  0.00    +0.017 A 
ATOM     12  C   UNL     1      -4.056  -1.403  24.023  0.00  0.00    +0.001 A 
ATOM     13  C   UNL     1      -3.715  -2.150  23.934  0.00  0.00    +0.020 A 
ATOM     14  C   UNL     1      -3.379  -2.531  24.584  0.00  0.00    +0.099 A 
ATOM     15  N   UNL     1      -3.383  -2.165  25.324  0.00  0.00    -0.243 NA
ATOM     16  C   UNL     1      -3.724  -1.419  25.413  0.00  0.00    +0.096 A 
ENDBRANCH  10  11
ENDBRANCH   9  10
TORSDOF 3
ENDMDL
