REMARK  Name = 
REMARK  6 active torsions:
REMARK  status: ('A' for Active; 'I' for Inactive)
REMARK    1  A    between atoms: O_2  and  C_3
REMARK    2  A    between atoms: C_6  and  C_9
REMARK    3  A    between atoms: N_11  and  C_12
REMARK    4  A    between atoms: C_16  and  O_20
REMARK    5  A    between atoms: O_20  and  C_21
REMARK    6  A    between atoms: C_21  and  C_22
REMARK                            x       y       z     vdW  Elec       q    Type
REMARK                         _______ _______ _______ _____ _____    ______ ____
ROOT
ATOM     12  C   UNL     1       1.270  -0.922   0.000  0.00  0.00    +0.155 C 
ATOM     13  C   UNL     1       0.785  -0.255   0.000  0.00  0.00    +0.166 C 
ATOM     14  O   UNL     1       1.270   0.412   0.000  0.00  0.00    -0.349 OA
ATOM     15  C   UNL     1       2.054   0.158   0.000  0.00  0.00    +0.173 C 
ATOM     16  C   UNL     1       2.839   0.412   0.000  0.00  0.00    +0.175 C 
ATOM     17  C   UNL     1       3.324  -0.255   0.000  0.00  0.00    +0.174 C 
ATOM     18  O   UNL     1       2.839  -0.922   0.000  0.00  0.00    -0.349 OA
ATOM     19  C   UNL     1       2.054  -0.667   0.000  0.00  0.00    +0.167 C 
ENDROOT
BRANCH  12  11
ATOM      9  C   UNL     1       0.208  -1.879   0.000  0.00  0.00    +0.265 C 
ATOM     10  O   UNL     1      -0.344  -1.265   0.000  0.00  0.00    -0.268 OA
ATOM     11  N   UNL     1       1.015  -1.707   0.000  0.00  0.00    -0.198 NA
BRANCH   9   6
ATOM      3  C   UNL     1      -0.557  -4.232   0.000  0.00  0.00    +0.139 A 
ATOM      4  C   UNL     1      -1.109  -3.619   0.000  0.00  0.00    +0.037 A 
ATOM      5  C   UNL     1      -0.854  -2.835   0.000  0.00  0.00    +0.008 A 
ATOM      6  C   UNL     1      -0.047  -2.663   0.000  0.00  0.00    +0.055 A 
ATOM      7  C   UNL     1       0.505  -3.276   0.000  0.00  0.00    +0.008 A 
ATOM      8  C   UNL     1       0.250  -4.061   0.000  0.00  0.00    +0.037 A 
BRANCH   3   2
ATOM      1  C   UNL     1      -0.260  -5.630   0.000  0.00  0.00    +0.252 C 
ATOM      2  O   UNL     1      -0.812  -5.017   0.000  0.00  0.00    -0.471 OA
ENDBRANCH   3   2
ENDBRANCH   9   6
ENDBRANCH  12  11
BRANCH  16  20
ATOM     20  O   UNL     1       3.094   1.197   0.000  0.00  0.00    -0.342 OA
BRANCH  20  21
ATOM     21  C   UNL     1       2.542   1.810   0.000  0.00  0.00    +0.230 C 
BRANCH  21  22
ATOM     22  C   UNL     1       2.797   2.595   0.000  0.00  0.00    +0.291 C 
ATOM     23  N   UNL     1       2.245   3.208   0.000  0.00  0.00    -0.086 NA
ATOM     24  O   UNL     1       3.604   2.766   0.000  0.00  0.00    -0.269 OA
ENDBRANCH  21  22
ENDBRANCH  20  21
ENDBRANCH  16  20
TORSDOF 6
