MODEL 1
REMARK VINA RESULT:     -11.5      0.000      0.000
REMARK  Name = 
REMARK  9 active torsions:
REMARK  status: ('A' for Active; 'I' for Inactive)
REMARK    1  A    between atoms: C_2  and  C_3
REMARK    2  A    between atoms: C_3  and  C_4
REMARK    3  A    between atoms: C_4  and  C_5
REMARK    4  A    between atoms: C_7  and  C_8
REMARK    5  A    between atoms: C_8  and  C_9
REMARK    6  A    between atoms: C_14  and  C_15
REMARK    7  A    between atoms: C_15  and  C_16
REMARK    8  A    between atoms: N_18  and  C_20
REMARK    9  A    between atoms: C_20  and  C_21
REMARK                            x       y       z     vdW  Elec       q    Type
REMARK                         _______ _______ _______ _____ _____    ______ ____
ROOT
ATOM      9  C   UNL     1      -4.359   2.774  24.799  0.00  0.00    +0.024 C 
ATOM     10  C   UNL     1      -4.694   3.449  25.135  0.00  0.00    +0.089 C 
ATOM     11  N   UNL     1      -5.387   3.389  25.579  0.00  0.00    -0.218 NA
ATOM     12  C   UNL     1      -5.744   2.654  25.687  0.00  0.00    +0.089 C 
ATOM     13  C   UNL     1      -5.410   1.978  25.352  0.00  0.00    +0.019 C 
ATOM     14  C   UNL     1      -4.717   2.039  24.908  0.00  0.00    +0.012 C 
ENDROOT
BRANCH   9   8
ATOM      8  C   UNL     1      -3.667   2.835  24.355  0.00  0.00    +0.051 C 
BRANCH   8   7
ATOM      5  C   UNL     1      -1.861   3.695  25.099  0.00  0.00    +0.154 A 
ATOM      6  C   UNL     1      -2.312   3.038  24.888  0.00  0.00    +0.054 A 
ATOM      7  C   UNL     1      -3.046   3.307  24.621  0.00  0.00    +0.100 A 
ATOM     27  N   UNL     1      -3.048   4.131  24.667  0.00  0.00    -0.082 NA
ATOM     28  O   UNL     1      -2.316   4.371  24.962  0.00  0.00    -0.358 OA
BRANCH   5   4
ATOM      4  C   UNL     1      -1.091   3.680  25.394  0.00  0.00    +0.067 C 
BRANCH   4   3
ATOM      3  C   UNL     1      -0.827   3.028  25.826  0.00  0.00    +0.008 C 
BRANCH   3   2
ATOM      1  C   UNL     1       0.225   2.387  26.549  0.00  0.00    +0.000 C 
ATOM      2  C   UNL     1      -0.023   2.941  25.991  0.00  0.00    +0.000 C 
ENDBRANCH   3   2
ENDBRANCH   4   3
ENDBRANCH   5   4
ENDBRANCH   8   7
ENDBRANCH   9   8
BRANCH  14  15
ATOM     15  C   UNL     1      -4.382   1.363  24.572  0.00  0.00    +0.085 C 
BRANCH  15  16
ATOM     16  C   UNL     1      -4.528   0.622  24.904  0.00  0.00    +0.226 C 
ATOM     17  O   UNL     1      -4.946   0.562  25.613  0.00  0.00    -0.275 OA
ATOM     18  N   UNL     1      -4.257  -0.059  24.526  0.00  0.00    -0.274 N 
ATOM     19  C   UNL     1      -3.840   0.001  23.817  0.00  0.00    +0.115 C 
BRANCH  18  20
ATOM     20  C   UNL     1      -4.403  -0.801  24.858  0.00  0.00    +0.120 C 
BRANCH  20  21
ATOM     21  C   UNL     1      -3.899  -1.432  24.693  0.00  0.00    -0.002 A 
ATOM     22  C   UNL     1      -3.176  -1.496  25.086  0.00  0.00    -0.003 A 
ATOM     23  C   UNL     1      -2.672  -2.128  24.921  0.00  0.00    -0.000 A 
ATOM     24  C   UNL     1      -2.889  -2.695  24.364  0.00  0.00    -0.000 A 
ATOM     25  C   UNL     1      -3.611  -2.631  23.971  0.00  0.00    -0.000 A 
ATOM     26  C   UNL     1      -4.116  -1.999  24.135  0.00  0.00    -0.003 A 
ENDBRANCH  20  21
ENDBRANCH  18  20
ENDBRANCH  15  16
ENDBRANCH  14  15
TORSDOF 9
ENDMDL
MODEL 2
REMARK VINA RESULT:     -11.3      1.005      4.901
REMARK  Name = 
REMARK  9 active torsions:
REMARK  status: ('A' for Active; 'I' for Inactive)
REMARK    1  A    between atoms: C_2  and  C_3
REMARK    2  A    between atoms: C_3  and  C_4
REMARK    3  A    between atoms: C_4  and  C_5
REMARK    4  A    between atoms: C_7  and  C_8
REMARK    5  A    between atoms: C_8  and  C_9
REMARK    6  A    between atoms: C_14  and  C_15
REMARK    7  A    between atoms: C_15  and  C_16
REMARK    8  A    between atoms: N_18  and  C_20
REMARK    9  A    between atoms: C_20  and  C_21
REMARK                            x       y       z     vdW  Elec       q    Type
REMARK                         _______ _______ _______ _____ _____    ______ ____
ROOT
ATOM      9  C   UNL     1      -5.027   1.750  25.033  0.00  0.00    +0.024 C 
ATOM     10  C   UNL     1      -5.683   1.363  25.351  0.00  0.00    +0.089 C 
ATOM     11  N   UNL     1      -6.227   1.781  25.810  0.00  0.00    -0.218 NA
ATOM     12  C   UNL     1      -6.114   2.586  25.952  0.00  0.00    +0.089 C 
ATOM     13  C   UNL     1      -5.458   2.973  25.635  0.00  0.00    +0.019 C 
ATOM     14  C   UNL     1      -4.914   2.555  25.175  0.00  0.00    +0.012 C 
ENDROOT
BRANCH   9   8
ATOM      8  C   UNL     1      -4.485   1.332  24.575  0.00  0.00    +0.051 C 
BRANCH   8   7
ATOM      5  C   UNL     1      -4.185  -0.781  24.562  0.00  0.00    +0.154 A 
ATOM      6  C   UNL     1      -4.358  -0.076  24.171  0.00  0.00    +0.054 A 
ATOM      7  C   UNL     1      -4.342   0.534  24.727  0.00  0.00    +0.100 A 
ATOM     27  N   UNL     1      -4.160   0.205  25.462  0.00  0.00    -0.082 NA
ATOM     28  O   UNL     1      -4.062  -0.607  25.360  0.00  0.00    -0.358 OA
BRANCH   5   4
ATOM      4  C   UNL     1      -4.142  -1.529  24.217  0.00  0.00    +0.067 C 
BRANCH   4   3
ATOM      3  C   UNL     1      -3.671  -2.115  24.558  0.00  0.00    +0.008 C 
BRANCH   3   2
ATOM      1  C   UNL     1      -3.006  -3.361  24.341  0.00  0.00    +0.000 C 
ATOM      2  C   UNL     1      -3.667  -2.877  24.242  0.00  0.00    +0.000 C 
ENDBRANCH   3   2
ENDBRANCH   4   3
ENDBRANCH   5   4
ENDBRANCH   8   7
ENDBRANCH   9   8
BRANCH  14  15
ATOM     15  C   UNL     1      -4.258   2.942  24.858  0.00  0.00    +0.085 C 
BRANCH  15  16
ATOM     16  C   UNL     1      -3.799   3.434  25.336  0.00  0.00    +0.226 C 
ATOM     17  O   UNL     1      -3.980   3.519  26.136  0.00  0.00    -0.275 OA
ATOM     18  N   UNL     1      -3.159   3.841  25.012  0.00  0.00    -0.274 N 
ATOM     19  C   UNL     1      -2.978   3.756  24.212  0.00  0.00    +0.115 C 
BRANCH  18  20
ATOM     20  C   UNL     1      -2.699   4.333  25.489  0.00  0.00    +0.120 C 
BRANCH  20  21
ATOM     21  C   UNL     1      -1.913   4.484  25.290  0.00  0.00    -0.002 A 
ATOM     22  C   UNL     1      -1.689   5.239  25.041  0.00  0.00    -0.003 A 
ATOM     23  C   UNL     1      -0.903   5.389  24.841  0.00  0.00    -0.000 A 
ATOM     24  C   UNL     1      -0.342   4.788  24.890  0.00  0.00    -0.000 A 
ATOM     25  C   UNL     1      -0.566   4.034  25.139  0.00  0.00    -0.000 A 
ATOM     26  C   UNL     1      -1.353   3.882  25.339  0.00  0.00    -0.003 A 
ENDBRANCH  20  21
ENDBRANCH  18  20
ENDBRANCH  15  16
ENDBRANCH  14  15
TORSDOF 9
ENDMDL
MODEL 3
REMARK VINA RESULT:     -10.6      2.456      6.015
REMARK  Name = 
REMARK  9 active torsions:
REMARK  status: ('A' for Active; 'I' for Inactive)
REMARK    1  A    between atoms: C_2  and  C_3
REMARK    2  A    between atoms: C_3  and  C_4
REMARK    3  A    between atoms: C_4  and  C_5
REMARK    4  A    between atoms: C_7  and  C_8
REMARK    5  A    between atoms: C_8  and  C_9
REMARK    6  A    between atoms: C_14  and  C_15
REMARK    7  A    between atoms: C_15  and  C_16
REMARK    8  A    between atoms: N_18  and  C_20
REMARK    9  A    between atoms: C_20  and  C_21
REMARK                            x       y       z     vdW  Elec       q    Type
REMARK                         _______ _______ _______ _____ _____    ______ ____
ROOT
ATOM      9  C   UNL     1      -0.429  -0.230  24.573  0.00  0.00    +0.024 C 
ATOM     10  C   UNL     1       0.007  -0.709  24.061  0.00  0.00    +0.089 C 
ATOM     11  N   UNL     1       0.438  -0.369  23.445  0.00  0.00    -0.218 NA
ATOM     12  C   UNL     1       0.432   0.448  23.340  0.00  0.00    +0.089 C 
ATOM     13  C   UNL     1      -0.003   0.928  23.851  0.00  0.00    +0.019 C 
ATOM     14  C   UNL     1      -0.434   0.589  24.467  0.00  0.00    +0.012 C 
ENDROOT
BRANCH   9   8
ATOM      8  C   UNL     1      -0.860  -0.569  25.188  0.00  0.00    +0.051 C 
BRANCH   8   7
ATOM      5  C   UNL     1      -2.260  -2.152  24.888  0.00  0.00    +0.154 A 
ATOM      6  C   UNL     1      -2.090  -1.354  25.011  0.00  0.00    +0.054 A 
ATOM      7  C   UNL     1      -1.270  -1.274  25.066  0.00  0.00    +0.100 A 
ATOM     27  N   UNL     1      -0.934  -2.023  24.977  0.00  0.00    -0.082 NA
ATOM     28  O   UNL     1      -1.546  -2.565  24.867  0.00  0.00    -0.358 OA
BRANCH   5   4
ATOM      4  C   UNL     1      -3.012  -2.479  24.802  0.00  0.00    +0.067 C 
BRANCH   4   3
ATOM      3  C   UNL     1      -3.519  -2.200  24.214  0.00  0.00    +0.008 C 
BRANCH   3   2
ATOM      1  C   UNL     1      -4.751  -2.301  23.496  0.00  0.00    +0.000 C 
ATOM      2  C   UNL     1      -4.205  -2.620  24.027  0.00  0.00    +0.000 C 
ENDBRANCH   3   2
ENDBRANCH   4   3
ENDBRANCH   5   4
ENDBRANCH   8   7
ENDBRANCH   9   8
BRANCH  14  15
ATOM     15  C   UNL     1      -0.871   1.068  24.979  0.00  0.00    +0.085 C 
BRANCH  15  16
ATOM     16  C   UNL     1      -0.553   1.780  25.248  0.00  0.00    +0.226 C 
ATOM     17  O   UNL     1       0.263   1.858  25.341  0.00  0.00    -0.275 OA
ATOM     18  N   UNL     1      -1.051   2.413  25.423  0.00  0.00    -0.274 N 
ATOM     19  C   UNL     1      -1.866   2.334  25.330  0.00  0.00    +0.115 C 
BRANCH  18  20
ATOM     20  C   UNL     1      -0.733   3.126  25.692  0.00  0.00    +0.120 C 
BRANCH  20  21
ATOM     21  C   UNL     1      -1.100   3.839  25.500  0.00  0.00    -0.002 A 
ATOM     22  C   UNL     1      -0.724   4.373  24.994  0.00  0.00    -0.003 A 
ATOM     23  C   UNL     1      -1.091   5.086  24.802  0.00  0.00    -0.000 A 
ATOM     24  C   UNL     1      -1.832   5.266  25.114  0.00  0.00    -0.000 A 
ATOM     25  C   UNL     1      -2.208   4.734  25.619  0.00  0.00    -0.000 A 
ATOM     26  C   UNL     1      -1.841   4.019  25.812  0.00  0.00    -0.003 A 
ENDBRANCH  20  21
ENDBRANCH  18  20
ENDBRANCH  15  16
ENDBRANCH  14  15
TORSDOF 9
ENDMDL
MODEL 4
REMARK VINA RESULT:     -10.3      1.508      3.312
REMARK  Name = 
REMARK  9 active torsions:
REMARK  status: ('A' for Active; 'I' for Inactive)
REMARK    1  A    between atoms: C_2  and  C_3
REMARK    2  A    between atoms: C_3  and  C_4
REMARK    3  A    between atoms: C_4  and  C_5
REMARK    4  A    between atoms: C_7  and  C_8
REMARK    5  A    between atoms: C_8  and  C_9
REMARK    6  A    between atoms: C_14  and  C_15
REMARK    7  A    between atoms: C_15  and  C_16
REMARK    8  A    between atoms: N_18  and  C_20
REMARK    9  A    between atoms: C_20  and  C_21
REMARK                            x       y       z     vdW  Elec       q    Type
REMARK                         _______ _______ _______ _____ _____    ______ ____
ROOT
ATOM      9  C   UNL     1      -1.278   2.545  25.063  0.00  0.00    +0.024 C 
ATOM     10  C   UNL     1      -1.009   3.220  25.453  0.00  0.00    +0.089 C 
ATOM     11  N   UNL     1      -0.383   3.167  25.988  0.00  0.00    -0.218 NA
ATOM     12  C   UNL     1      -0.027   2.438  26.134  0.00  0.00    +0.089 C 
ATOM     13  C   UNL     1      -0.295   1.761  25.744  0.00  0.00    +0.019 C 
ATOM     14  C   UNL     1      -0.921   1.815  25.209  0.00  0.00    +0.012 C 
ENDROOT
BRANCH   9   8
ATOM      8  C   UNL     1      -1.903   2.599  24.529  0.00  0.00    +0.051 C 
BRANCH   8   7
ATOM      5  C   UNL     1      -3.776   3.464  25.077  0.00  0.00    +0.154 A 
ATOM      6  C   UNL     1      -3.287   2.806  24.977  0.00  0.00    +0.054 A 
ATOM      7  C   UNL     1      -2.555   3.072  24.703  0.00  0.00    +0.100 A 
ATOM     27  N   UNL     1      -2.591   3.894  24.633  0.00  0.00    -0.082 NA
ATOM     28  O   UNL     1      -3.345   4.136  24.864  0.00  0.00    -0.358 OA
BRANCH   5   4
ATOM      4  C   UNL     1      -4.556   3.452  25.342  0.00  0.00    +0.067 C 
BRANCH   4   3
ATOM      3  C   UNL     1      -5.013   2.770  25.250  0.00  0.00    +0.008 C 
BRANCH   3   2
ATOM      1  C   UNL     1      -6.207   2.037  25.532  0.00  0.00    +0.000 C 
ATOM      2  C   UNL     1      -5.775   2.739  25.567  0.00  0.00    +0.000 C 
ENDBRANCH   3   2
ENDBRANCH   4   3
ENDBRANCH   5   4
ENDBRANCH   8   7
ENDBRANCH   9   8
BRANCH  14  15
ATOM     15  C   UNL     1      -1.190   1.139  24.820  0.00  0.00    +0.085 C 
BRANCH  15  16
ATOM     16  C   UNL     1      -1.237   0.422  25.224  0.00  0.00    +0.226 C 
ATOM     17  O   UNL     1      -1.015   0.380  26.018  0.00  0.00    -0.275 OA
ATOM     18  N   UNL     1      -1.507  -0.254  24.835  0.00  0.00    -0.274 N 
ATOM     19  C   UNL     1      -1.728  -0.212  24.042  0.00  0.00    +0.115 C 
BRANCH  18  20
ATOM     20  C   UNL     1      -1.554  -0.972  25.240  0.00  0.00    +0.120 C 
BRANCH  20  21
ATOM     21  C   UNL     1      -2.179  -1.489  25.089  0.00  0.00    -0.002 A 
ATOM     22  C   UNL     1      -2.057  -2.158  24.621  0.00  0.00    -0.003 A 
ATOM     23  C   UNL     1      -2.682  -2.675  24.470  0.00  0.00    -0.000 A 
ATOM     24  C   UNL     1      -3.427  -2.524  24.787  0.00  0.00    -0.000 A 
ATOM     25  C   UNL     1      -3.550  -1.856  25.255  0.00  0.00    -0.000 A 
ATOM     26  C   UNL     1      -2.925  -1.338  25.406  0.00  0.00    -0.003 A 
ENDBRANCH  20  21
ENDBRANCH  18  20
ENDBRANCH  15  16
ENDBRANCH  14  15
TORSDOF 9
ENDMDL
MODEL 5
REMARK VINA RESULT:     -10.2      2.200      4.571
REMARK  Name = 
REMARK  9 active torsions:
REMARK  status: ('A' for Active; 'I' for Inactive)
REMARK    1  A    between atoms: C_2  and  C_3
REMARK    2  A    between atoms: C_3  and  C_4
REMARK    3  A    between atoms: C_4  and  C_5
REMARK    4  A    between atoms: C_7  and  C_8
REMARK    5  A    between atoms: C_8  and  C_9
REMARK    6  A    between atoms: C_14  and  C_15
REMARK    7  A    between atoms: C_15  and  C_16
REMARK    8  A    between atoms: N_18  and  C_20
REMARK    9  A    between atoms: C_20  and  C_21
REMARK                            x       y       z     vdW  Elec       q    Type
REMARK                         _______ _______ _______ _____ _____    ______ ____
ROOT
ATOM      9  C   UNL     1      -3.020  -1.534  24.852  0.00  0.00    +0.024 C 
ATOM     10  C   UNL     1      -2.851  -2.261  24.502  0.00  0.00    +0.089 C 
ATOM     11  N   UNL     1      -3.410  -2.627  24.018  0.00  0.00    -0.218 NA
ATOM     12  C   UNL     1      -4.138  -2.264  23.883  0.00  0.00    +0.089 C 
ATOM     13  C   UNL     1      -4.308  -1.536  24.232  0.00  0.00    +0.019 C 
ATOM     14  C   UNL     1      -3.749  -1.171  24.717  0.00  0.00    +0.012 C 
ENDROOT
BRANCH   9   8
ATOM      8  C   UNL     1      -2.461  -1.169  25.336  0.00  0.00    +0.051 C 
BRANCH   8   7
ATOM      5  C   UNL     1      -0.486  -0.761  24.638  0.00  0.00    +0.154 A 
ATOM      6  C   UNL     1      -1.268  -0.531  24.762  0.00  0.00    +0.054 A 
ATOM      7  C   UNL     1      -1.667  -1.161  25.116  0.00  0.00    +0.100 A 
ATOM     27  N   UNL     1      -1.130  -1.781  25.212  0.00  0.00    -0.082 NA
ATOM     28  O   UNL     1      -0.401  -1.534  24.917  0.00  0.00    -0.358 OA
BRANCH   5   4
ATOM      4  C   UNL     1       0.107  -0.301  24.297  0.00  0.00    +0.067 C 
BRANCH   4   3
ATOM      3  C   UNL     1       0.344  -0.444  23.519  0.00  0.00    +0.008 C 
BRANCH   3   2
ATOM      1  C   UNL     1       1.263  -0.173  22.458  0.00  0.00    +0.000 C 
ATOM      2  C   UNL     1       0.887   0.060  23.155  0.00  0.00    +0.000 C 
ENDBRANCH   3   2
ENDBRANCH   4   3
ENDBRANCH   5   4
ENDBRANCH   8   7
ENDBRANCH   9   8
BRANCH  14  15
ATOM     15  C   UNL     1      -3.919  -0.443  25.067  0.00  0.00    +0.085 C 
BRANCH  15  16
ATOM     16  C   UNL     1      -4.296   0.146  24.630  0.00  0.00    +0.226 C 
ATOM     17  O   UNL     1      -4.305   0.107  23.806  0.00  0.00    -0.275 OA
ATOM     18  N   UNL     1      -4.663   0.775  25.017  0.00  0.00    -0.274 N 
ATOM     19  C   UNL     1      -4.654   0.814  25.840  0.00  0.00    +0.115 C 
BRANCH  18  20
ATOM     20  C   UNL     1      -5.041   1.365  24.580  0.00  0.00    +0.120 C 
BRANCH  20  21
ATOM     21  C   UNL     1      -5.029   2.146  24.845  0.00  0.00    -0.002 A 
ATOM     22  C   UNL     1      -4.406   2.644  24.631  0.00  0.00    -0.003 A 
ATOM     23  C   UNL     1      -4.394   3.425  24.897  0.00  0.00    -0.000 A 
ATOM     24  C   UNL     1      -5.003   3.707  25.376  0.00  0.00    -0.000 A 
ATOM     25  C   UNL     1      -5.625   3.210  25.590  0.00  0.00    -0.000 A 
ATOM     26  C   UNL     1      -5.637   2.428  25.324  0.00  0.00    -0.003 A 
ENDBRANCH  20  21
ENDBRANCH  18  20
ENDBRANCH  15  16
ENDBRANCH  14  15
TORSDOF 9
ENDMDL
MODEL 6
REMARK VINA RESULT:     -10.2      1.688      5.161
REMARK  Name = 
REMARK  9 active torsions:
REMARK  status: ('A' for Active; 'I' for Inactive)
REMARK    1  A    between atoms: C_2  and  C_3
REMARK    2  A    between atoms: C_3  and  C_4
REMARK    3  A    between atoms: C_4  and  C_5
REMARK    4  A    between atoms: C_7  and  C_8
REMARK    5  A    between atoms: C_8  and  C_9
REMARK    6  A    between atoms: C_14  and  C_15
REMARK    7  A    between atoms: C_15  and  C_16
REMARK    8  A    between atoms: N_18  and  C_20
REMARK    9  A    between atoms: C_20  and  C_21
REMARK                            x       y       z     vdW  Elec       q    Type
REMARK                         _______ _______ _______ _____ _____    ______ ____
ROOT
ATOM      9  C   UNL     1      -2.100  -0.214  24.621  0.00  0.00    +0.024 C 
ATOM     10  C   UNL     1      -2.261  -0.967  24.918  0.00  0.00    +0.089 C 
ATOM     11  N   UNL     1      -1.719  -1.339  25.415  0.00  0.00    -0.218 NA
ATOM     12  C   UNL     1      -1.014  -0.960  25.614  0.00  0.00    +0.089 C 
ATOM     13  C   UNL     1      -0.852  -0.208  25.317  0.00  0.00    +0.019 C 
ATOM     14  C   UNL     1      -1.395   0.165  24.820  0.00  0.00    +0.012 C 
ENDROOT
BRANCH   9   8
ATOM      8  C   UNL     1      -2.642   0.158  24.124  0.00  0.00    +0.051 C 
BRANCH   8   7
ATOM      5  C   UNL     1      -4.645   0.590  24.725  0.00  0.00    +0.154 A 
ATOM      6  C   UNL     1      -3.864   0.824  24.597  0.00  0.00    +0.054 A 
ATOM      7  C   UNL     1      -3.443   0.170  24.322  0.00  0.00    +0.100 A 
ATOM     27  N   UNL     1      -3.963  -0.470  24.281  0.00  0.00    -0.082 NA
ATOM     28  O   UNL     1      -4.705  -0.210  24.530  0.00  0.00    -0.358 OA
BRANCH   5   4
ATOM      4  C   UNL     1      -5.256   1.069  25.000  0.00  0.00    +0.067 C 
BRANCH   4   3
ATOM      3  C   UNL     1      -5.127   1.876  25.118  0.00  0.00    +0.008 C 
BRANCH   3   2
ATOM      1  C   UNL     1      -5.564   3.113  25.686  0.00  0.00    +0.000 C 
ATOM      2  C   UNL     1      -5.733   2.351  25.417  0.00  0.00    +0.000 C 
ENDBRANCH   3   2
ENDBRANCH   4   3
ENDBRANCH   5   4
ENDBRANCH   8   7
ENDBRANCH   9   8
BRANCH  14  15
ATOM     15  C   UNL     1      -1.233   0.918  24.522  0.00  0.00    +0.085 C 
BRANCH  15  16
ATOM     16  C   UNL     1      -0.955   1.509  25.026  0.00  0.00    +0.226 C 
ATOM     17  O   UNL     1      -0.799   1.337  25.818  0.00  0.00    -0.275 OA
ATOM     18  N   UNL     1      -0.833   2.272  24.737  0.00  0.00    -0.274 N 
ATOM     19  C   UNL     1      -0.988   2.443  23.946  0.00  0.00    +0.115 C 
BRANCH  18  20
ATOM     20  C   UNL     1      -0.555   2.864  25.241  0.00  0.00    +0.120 C 
BRANCH  20  21
ATOM     21  C   UNL     1      -0.904   3.611  25.231  0.00  0.00    -0.002 A 
ATOM     22  C   UNL     1      -0.514   4.244  24.873  0.00  0.00    -0.003 A 
ATOM     23  C   UNL     1      -0.863   4.991  24.863  0.00  0.00    -0.000 A 
ATOM     24  C   UNL     1      -1.602   5.106  25.210  0.00  0.00    -0.000 A 
ATOM     25  C   UNL     1      -1.992   4.474  25.568  0.00  0.00    -0.000 A 
ATOM     26  C   UNL     1      -1.643   3.726  25.579  0.00  0.00    -0.003 A 
ENDBRANCH  20  21
ENDBRANCH  18  20
ENDBRANCH  15  16
ENDBRANCH  14  15
TORSDOF 9
ENDMDL
MODEL 7
REMARK VINA RESULT:     -10.1      1.863      4.649
REMARK  Name = 
REMARK  9 active torsions:
REMARK  status: ('A' for Active; 'I' for Inactive)
REMARK    1  A    between atoms: C_2  and  C_3
REMARK    2  A    between atoms: C_3  and  C_4
REMARK    3  A    between atoms: C_4  and  C_5
REMARK    4  A    between atoms: C_7  and  C_8
REMARK    5  A    between atoms: C_8  and  C_9
REMARK    6  A    between atoms: C_14  and  C_15
REMARK    7  A    between atoms: C_15  and  C_16
REMARK    8  A    between atoms: N_18  and  C_20
REMARK    9  A    between atoms: C_20  and  C_21
REMARK                            x       y       z     vdW  Elec       q    Type
REMARK                         _______ _______ _______ _____ _____    ______ ____
ROOT
ATOM      9  C   UNL     1      -0.719   1.847  24.740  0.00  0.00    +0.024 C 
ATOM     10  C   UNL     1      -0.008   1.707  25.133  0.00  0.00    +0.089 C 
ATOM     11  N   UNL     1       0.266   2.244  25.696  0.00  0.00    -0.218 NA
ATOM     12  C   UNL     1      -0.171   2.923  25.864  0.00  0.00    +0.089 C 
ATOM     13  C   UNL     1      -0.882   3.065  25.471  0.00  0.00    +0.019 C 
ATOM     14  C   UNL     1      -1.157   2.527  24.909  0.00  0.00    +0.012 C 
ENDROOT
BRANCH   9   8
ATOM      8  C   UNL     1      -0.993   1.310  24.178  0.00  0.00    +0.051 C 
BRANCH   8   7
ATOM      5  C   UNL     1      -1.046  -0.783  24.594  0.00  0.00    +0.154 A 
ATOM      6  C   UNL     1      -1.405  -0.040  24.589  0.00  0.00    +0.054 A 
ATOM      7  C   UNL     1      -0.864   0.502  24.281  0.00  0.00    +0.100 A 
ATOM     27  N   UNL     1      -0.171   0.094  24.095  0.00  0.00    -0.082 NA
ATOM     28  O   UNL     1      -0.284  -0.700  24.288  0.00  0.00    -0.358 OA
BRANCH   5   4
ATOM      4  C   UNL     1      -1.389  -1.485  24.857  0.00  0.00    +0.067 C 
BRANCH   4   3
ATOM      3  C   UNL     1      -2.132  -1.711  24.577  0.00  0.00    +0.008 C 
BRANCH   3   2
ATOM      1  C   UNL     1      -3.239  -2.613  24.651  0.00  0.00    +0.000 C 
ATOM      2  C   UNL     1      -2.438  -2.452  24.774  0.00  0.00    +0.000 C 
ENDBRANCH   3   2
ENDBRANCH   4   3
ENDBRANCH   5   4
ENDBRANCH   8   7
ENDBRANCH   9   8
BRANCH  14  15
ATOM     15  C   UNL     1      -1.868   2.669  24.515  0.00  0.00    +0.085 C 
BRANCH  15  16
ATOM     16  C   UNL     1      -2.496   3.024  24.914  0.00  0.00    +0.226 C 
ATOM     17  O   UNL     1      -2.387   3.320  25.676  0.00  0.00    -0.275 OA
ATOM     18  N   UNL     1      -3.235   3.083  24.551  0.00  0.00    -0.274 N 
ATOM     19  C   UNL     1      -3.344   2.787  23.789  0.00  0.00    +0.115 C 
BRANCH  18  20
ATOM     20  C   UNL     1      -3.864   3.438  24.950  0.00  0.00    +0.120 C 
BRANCH  20  21
ATOM     21  C   UNL     1      -4.555   3.011  25.093  0.00  0.00    -0.002 A 
ATOM     22  C   UNL     1      -4.990   3.150  25.781  0.00  0.00    -0.003 A 
ATOM     23  C   UNL     1      -5.681   2.723  25.924  0.00  0.00    -0.000 A 
ATOM     24  C   UNL     1      -5.937   2.158  25.381  0.00  0.00    -0.000 A 
ATOM     25  C   UNL     1      -5.502   2.019  24.694  0.00  0.00    -0.000 A 
ATOM     26  C   UNL     1      -4.811   2.447  24.550  0.00  0.00    -0.003 A 
ENDBRANCH  20  21
ENDBRANCH  18  20
ENDBRANCH  15  16
ENDBRANCH  14  15
TORSDOF 9
ENDMDL
