REMARK  Name = 
REMARK  5 active torsions:
REMARK  status: ('A' for Active; 'I' for Inactive)
REMARK    1  A    between atoms: C_8  and  C_10
REMARK    2  A    between atoms: C_10  and  C_11
REMARK    3  A    between atoms: C_13  and  C_14
REMARK    4  A    between atoms: C_14  and  N_15
REMARK    5  A    between atoms: N_15  and  S_16
REMARK                            x       y       z     vdW  Elec       q    Type
REMARK                         _______ _______ _______ _____ _____    ______ ____
ROOT
ATOM     11  C   UNL     1       0.000   4.704   0.000  0.00  0.00    +0.157 C 
ATOM     12  O   UNL     1       0.667   4.219   0.000  0.00  0.00    -0.351 OA
ATOM     13  C   UNL     1       0.412   3.434   0.000  0.00  0.00    +0.167 C 
ATOM     20  C   UNL     1      -0.412   3.434   0.000  0.00  0.00    +0.213 C 
ATOM     21  O   UNL     1      -0.897   2.767   0.000  0.00  0.00    -0.218 OA
ATOM     22  C   UNL     1      -0.667   4.219   0.000  0.00  0.00    +0.212 C 
ATOM     23  O   UNL     1      -1.452   4.474   0.000  0.00  0.00    -0.218 OA
ENDROOT
BRANCH  11  10
ATOM     10  C   UNL     1       0.000   5.529   0.000  0.00  0.00    +0.117 C 
BRANCH  10   8
ATOM      1  C   UNL     1      -0.715   9.241   0.000  0.00  0.00    +0.000 C 
ATOM      2  C   UNL     1      -0.715   8.416   0.000  0.00  0.00    +0.003 C 
ATOM      3  C   UNL     1       0.000   8.004   0.000  0.00  0.00    +0.022 C 
ATOM      4  C   UNL     1       0.000   7.179   0.000  0.00  0.00    +0.093 C 
ATOM      5  N   UNL     1      -0.715   6.766   0.000  0.00  0.00    -0.279 N 
ATOM      6  C   UNL     1      -1.429   7.179   0.000  0.00  0.00    +0.093 C 
ATOM      7  C   UNL     1      -1.429   8.004   0.000  0.00  0.00    +0.022 C 
ATOM      8  C   UNL     1      -0.715   5.941   0.000  0.00  0.00    +0.228 C 
ATOM      9  O   UNL     1      -1.429   5.529   0.000  0.00  0.00    -0.275 OA
ENDBRANCH  10   8
ENDBRANCH  11  10
BRANCH  13  14
ATOM     14  C   UNL     1       0.897   2.767   0.000  0.00  0.00    +0.147 C 
BRANCH  14  15
ATOM     15  N   UNL     1       0.562   2.013   0.000  0.00  0.00    -0.079 NA
BRANCH  15  16
ATOM     16  S   UNL     1       1.047   1.345   0.000  0.00  0.00    +0.059 S 
ATOM     17  C   UNL     1       1.532   0.678   0.000  0.00  0.00    +0.197 C 
ATOM     18  O   UNL     1       0.379   0.861   0.000  0.00  0.00    -0.156 OA
ATOM     19  O   UNL     1       1.714   1.830   0.000  0.00  0.00    -0.156 OA
ENDBRANCH  15  16
ENDBRANCH  14  15
ENDBRANCH  13  14
TORSDOF 5
