MODEL 1
REMARK VINA RESULT:     -10.6      0.000      0.000
REMARK  Name = 
REMARK  7 active torsions:
REMARK  status: ('A' for Active; 'I' for Inactive)
REMARK    1  A    between atoms: S_2  and  C_3
REMARK    2  A    between atoms: C_7  and  N_8
REMARK    3  A    between atoms: N_11  and  C_12
REMARK    4  A    between atoms: C_12  and  C_13
REMARK    5  A    between atoms: C_20  and  C_21
REMARK    6  A    between atoms: C_21  and  N_22
REMARK    7  A    between atoms: N_25  and  C_28
REMARK                            x       y       z     vdW  Elec       q    Type
REMARK                         _______ _______ _______ _____ _____    ______ ____
ROOT
ATOM     13  C   UNL     1      -5.210   0.698  24.962  0.00  0.00    +0.079 C 
ATOM     14  C   UNL     1      -5.695   1.213  25.288  0.00  0.00    +0.018 C 
ATOM     15  C   UNL     1      -5.539   1.998  25.406  0.00  0.00    +0.005 C 
ATOM     16  C   UNL     1      -6.227   2.420  25.796  0.00  0.00    +0.017 C 
ATOM     17  C   UNL     1      -5.909   1.909  25.542  0.00  0.00    +0.072 C 
ATOM     18  N   UNL     1      -5.058   1.500  25.086  0.00  0.00    -0.272 NA
ATOM     19  C   UNL     1      -4.331   2.019  24.901  0.00  0.00    +0.073 C 
ATOM     20  C   UNL     1      -4.836   2.492  25.225  0.00  0.00    +0.032 C 
ENDROOT
BRANCH  13  12
ATOM     12  C   UNL     1      -5.007  -0.057  24.699  0.00  0.00    +0.133 C 
BRANCH  12  11
ATOM      8  N   UNL     1      -3.441  -1.437  25.337  0.00  0.00    -0.161 NA
ATOM      9  C   UNL     1      -3.897  -0.943  24.859  0.00  0.00    +0.344 C 
ATOM     10  O   UNL     1      -3.701  -0.841  24.065  0.00  0.00    -0.249 OA
ATOM     11  N   UNL     1      -4.550  -0.551  25.177  0.00  0.00    -0.185 NA
BRANCH   8   7
ATOM      3  C   UNL     1      -1.377  -1.919  24.820  0.00  0.00    +0.027 A 
ATOM      4  C   UNL     1      -1.482  -2.614  24.387  0.00  0.00    +0.006 A 
ATOM      5  C   UNL     1      -2.241  -2.916  24.272  0.00  0.00    +0.002 A 
ATOM      6  C   UNL     1      -2.894  -2.524  24.588  0.00  0.00    +0.017 A 
ATOM      7  C   UNL     1      -2.789  -1.829  25.020  0.00  0.00    +0.075 A 
ATOM     34  C   UNL     1      -2.030  -1.527  25.136  0.00  0.00    +0.023 A 
BRANCH   3   2
ATOM      1  C   UNL     1      -0.283  -1.116  24.372  0.00  0.00    +0.074 C 
ATOM      2  S   UNL     1      -0.618  -1.616  24.936  0.00  0.00    -0.113 S 
ENDBRANCH   3   2
ENDBRANCH   8   7
ENDBRANCH  12  11
ENDBRANCH  13  12
BRANCH  20  21
ATOM     21  C   UNL     1      -4.741   3.298  25.373  0.00  0.00    +0.074 C 
BRANCH  21  22
ATOM     22  N   UNL     1      -4.001   3.649  25.283  0.00  0.00    -0.270 NA
ATOM     23  C   UNL     1      -3.517   3.768  25.941  0.00  0.00    +0.094 C 
ATOM     24  C   UNL     1      -2.776   4.119  25.850  0.00  0.00    +0.108 C 
ATOM     25  N   UNL     1      -2.518   4.351  25.101  0.00  0.00    -0.305 N 
ATOM     26  C   UNL     1      -3.001   4.233  24.443  0.00  0.00    +0.108 C 
ATOM     27  C   UNL     1      -3.742   3.881  24.534  0.00  0.00    +0.094 C 
BRANCH  25  28
ATOM     28  C   UNL     1      -1.777   4.703  25.010  0.00  0.00    +0.048 A 
ATOM     29  C   UNL     1      -1.709   5.525  25.007  0.00  0.00    +0.015 A 
ATOM     30  C   UNL     1      -0.967   5.876  24.916  0.00  0.00    +0.001 A 
ATOM     31  C   UNL     1      -0.296   5.406  24.828  0.00  0.00    +0.000 A 
ATOM     32  C   UNL     1      -0.365   4.583  24.832  0.00  0.00    +0.001 A 
ATOM     33  C   UNL     1      -1.106   4.232  24.923  0.00  0.00    +0.015 A 
ENDBRANCH  25  28
ENDBRANCH  21  22
ENDBRANCH  20  21
TORSDOF 7
ENDMDL
MODEL 2
REMARK VINA RESULT:     -10.5      1.380      5.233
REMARK  Name = 
REMARK  7 active torsions:
REMARK  status: ('A' for Active; 'I' for Inactive)
REMARK    1  A    between atoms: S_2  and  C_3
REMARK    2  A    between atoms: C_7  and  N_8
REMARK    3  A    between atoms: N_11  and  C_12
REMARK    4  A    between atoms: C_12  and  C_13
REMARK    5  A    between atoms: C_20  and  C_21
REMARK    6  A    between atoms: C_21  and  N_22
REMARK    7  A    between atoms: N_25  and  C_28
REMARK                            x       y       z     vdW  Elec       q    Type
REMARK                         _______ _______ _______ _____ _____    ______ ____
ROOT
ATOM     13  C   UNL     1      -5.014   3.081  25.233  0.00  0.00    +0.079 C 
ATOM     14  C   UNL     1      -5.653   2.655  25.360  0.00  0.00    +0.018 C 
ATOM     15  C   UNL     1      -5.708   1.852  25.280  0.00  0.00    +0.005 C 
ATOM     16  C   UNL     1      -6.532   1.553  25.474  0.00  0.00    +0.017 C 
ATOM     17  C   UNL     1      -6.065   2.003  25.397  0.00  0.00    +0.072 C 
ATOM     18  N   UNL     1      -5.078   2.261  25.154  0.00  0.00    -0.272 NA
ATOM     19  C   UNL     1      -4.474   1.622  24.911  0.00  0.00    +0.073 C 
ATOM     20  C   UNL     1      -5.122   1.242  25.046  0.00  0.00    +0.032 C 
ENDROOT
BRANCH  13  12
ATOM     12  C   UNL     1      -4.598   3.792  25.201  0.00  0.00    +0.133 C 
BRANCH  12  11
ATOM      8  N   UNL     1      -2.539   4.204  25.795  0.00  0.00    -0.161 NA
ATOM      9  C   UNL     1      -3.207   4.095  25.324  0.00  0.00    +0.344 C 
ATOM     10  O   UNL     1      -3.153   4.182  24.506  0.00  0.00    -0.249 OA
ATOM     11  N   UNL     1      -3.930   3.900  25.672  0.00  0.00    -0.185 NA
BRANCH   8   7
ATOM      3  C   UNL     1      -0.519   4.012  24.991  0.00  0.00    +0.027 A 
ATOM      4  C   UNL     1      -0.371   4.788  24.754  0.00  0.00    +0.006 A 
ATOM      5  C   UNL     1      -0.946   5.369  24.864  0.00  0.00    +0.002 A 
ATOM      6  C   UNL     1      -1.669   5.174  25.211  0.00  0.00    +0.017 A 
ATOM      7  C   UNL     1      -1.817   4.398  25.448  0.00  0.00    +0.075 A 
ATOM     34  C   UNL     1      -1.241   3.817  25.338  0.00  0.00    +0.023 A 
BRANCH   3   2
ATOM      1  C   UNL     1      -0.046   2.853  24.301  0.00  0.00    +0.074 C 
ATOM      2  S   UNL     1       0.056   3.430  24.882  0.00  0.00    -0.113 S 
ENDBRANCH   3   2
ENDBRANCH   8   7
ENDBRANCH  12  11
ENDBRANCH  13  12
BRANCH  20  21
ATOM     21  C   UNL     1      -5.245   0.428  24.984  0.00  0.00    +0.074 C 
BRANCH  21  22
ATOM     22  N   UNL     1      -4.603  -0.080  24.898  0.00  0.00    -0.270 NA
ATOM     23  C   UNL     1      -4.216  -0.373  25.566  0.00  0.00    +0.094 C 
ATOM     24  C   UNL     1      -3.572  -0.882  25.480  0.00  0.00    +0.108 C 
ATOM     25  N   UNL     1      -3.315  -1.099  24.727  0.00  0.00    -0.305 N 
ATOM     26  C   UNL     1      -3.701  -0.806  24.059  0.00  0.00    +0.108 C 
ATOM     27  C   UNL     1      -4.345  -0.297  24.145  0.00  0.00    +0.094 C 
BRANCH  25  28
ATOM     28  C   UNL     1      -2.672  -1.608  24.641  0.00  0.00    +0.048 A 
ATOM     29  C   UNL     1      -2.798  -2.412  24.504  0.00  0.00    +0.015 A 
ATOM     30  C   UNL     1      -2.154  -2.921  24.418  0.00  0.00    +0.001 A 
ATOM     31  C   UNL     1      -1.385  -2.627  24.468  0.00  0.00    +0.000 A 
ATOM     32  C   UNL     1      -1.259  -1.822  24.604  0.00  0.00    +0.001 A 
ATOM     33  C   UNL     1      -1.903  -1.313  24.690  0.00  0.00    +0.015 A 
ENDBRANCH  25  28
ENDBRANCH  21  22
ENDBRANCH  20  21
TORSDOF 7
ENDMDL
MODEL 3
REMARK VINA RESULT:     -10.4      3.294      5.573
REMARK  Name = 
REMARK  7 active torsions:
REMARK  status: ('A' for Active; 'I' for Inactive)
REMARK    1  A    between atoms: S_2  and  C_3
REMARK    2  A    between atoms: C_7  and  N_8
REMARK    3  A    between atoms: N_11  and  C_12
REMARK    4  A    between atoms: C_12  and  C_13
REMARK    5  A    between atoms: C_20  and  C_21
REMARK    6  A    between atoms: C_21  and  N_22
REMARK    7  A    between atoms: N_25  and  C_28
REMARK                            x       y       z     vdW  Elec       q    Type
REMARK                         _______ _______ _______ _____ _____    ______ ____
ROOT
ATOM     13  C   UNL     1      -0.096  -0.300  23.842  0.00  0.00    +0.079 C 
ATOM     14  C   UNL     1      -0.403  -0.959  24.120  0.00  0.00    +0.018 C 
ATOM     15  C   UNL     1      -1.171  -1.058  24.357  0.00  0.00    +0.005 C 
ATOM     16  C   UNL     1      -1.326  -1.893  24.645  0.00  0.00    +0.017 C 
ATOM     17  C   UNL     1      -0.967  -1.404  24.403  0.00  0.00    +0.072 C 
ATOM     18  N   UNL     1      -0.877  -0.409  24.086  0.00  0.00    -0.272 NA
ATOM     19  C   UNL     1      -1.592   0.157  24.113  0.00  0.00    +0.073 C 
ATOM     20  C   UNL     1      -1.855  -0.508  24.380  0.00  0.00    +0.032 C 
ENDROOT
BRANCH  13  12
ATOM     12  C   UNL     1       0.524   0.153  23.541  0.00  0.00    +0.133 C 
BRANCH  12  11
ATOM      8  N   UNL     1       2.548  -0.223  22.816  0.00  0.00    -0.161 NA
ATOM      9  C   UNL     1       1.907   0.146  23.182  0.00  0.00    +0.344 C 
ATOM     10  O   UNL     1       2.007   0.875  23.553  0.00  0.00    -0.249 OA
ATOM     11  N   UNL     1       1.165  -0.216  23.176  0.00  0.00    -0.185 NA
BRANCH   8   7
ATOM      3  C   UNL     1       4.664   0.134  23.214  0.00  0.00    +0.027 A 
ATOM      4  C   UNL     1       4.773   0.858  22.834  0.00  0.00    +0.006 A 
ATOM      5  C   UNL     1       4.142   1.221  22.448  0.00  0.00    +0.002 A 
ATOM      6  C   UNL     1       3.399   0.861  22.442  0.00  0.00    +0.017 A 
ATOM      7  C   UNL     1       3.289   0.137  22.822  0.00  0.00    +0.075 A 
ATOM     34  C   UNL     1       3.922  -0.226  23.208  0.00  0.00    +0.023 A 
BRANCH   3   2
ATOM      1  C   UNL     1       5.604   0.103  24.289  0.00  0.00    +0.074 C 
ATOM      2  S   UNL     1       5.296  -0.229  23.600  0.00  0.00    -0.113 S 
ENDBRANCH   3   2
ENDBRANCH   8   7
ENDBRANCH  12  11
ENDBRANCH  13  12
BRANCH  20  21
ATOM     21  C   UNL     1      -2.621  -0.676  24.637  0.00  0.00    +0.074 C 
BRANCH  21  22
ATOM     22  N   UNL     1      -3.158  -0.062  24.759  0.00  0.00    -0.270 NA
ATOM     23  C   UNL     1      -3.640   0.194  24.140  0.00  0.00    +0.094 C 
ATOM     24  C   UNL     1      -4.177   0.808  24.263  0.00  0.00    +0.108 C 
ATOM     25  N   UNL     1      -4.232   1.166  25.004  0.00  0.00    -0.305 N 
ATOM     26  C   UNL     1      -3.750   0.911  25.623  0.00  0.00    +0.108 C 
ATOM     27  C   UNL     1      -3.213   0.297  25.500  0.00  0.00    +0.094 C 
BRANCH  25  28
ATOM     28  C   UNL     1      -4.769   1.781  25.127  0.00  0.00    +0.048 A 
ATOM     29  C   UNL     1      -5.540   1.612  25.367  0.00  0.00    +0.015 A 
ATOM     30  C   UNL     1      -6.077   2.226  25.490  0.00  0.00    +0.001 A 
ATOM     31  C   UNL     1      -5.844   3.009  25.372  0.00  0.00    +0.000 A 
ATOM     32  C   UNL     1      -5.072   3.177  25.132  0.00  0.00    +0.001 A 
ATOM     33  C   UNL     1      -4.535   2.563  25.009  0.00  0.00    +0.015 A 
ENDBRANCH  25  28
ENDBRANCH  21  22
ENDBRANCH  20  21
TORSDOF 7
ENDMDL
MODEL 4
REMARK VINA RESULT:      -8.9      2.018      6.138
REMARK  Name = 
REMARK  7 active torsions:
REMARK  status: ('A' for Active; 'I' for Inactive)
REMARK    1  A    between atoms: S_2  and  C_3
REMARK    2  A    between atoms: C_7  and  N_8
REMARK    3  A    between atoms: N_11  and  C_12
REMARK    4  A    between atoms: C_12  and  C_13
REMARK    5  A    between atoms: C_20  and  C_21
REMARK    6  A    between atoms: C_21  and  N_22
REMARK    7  A    between atoms: N_25  and  C_28
REMARK                            x       y       z     vdW  Elec       q    Type
REMARK                         _______ _______ _______ _____ _____    ______ ____
ROOT
ATOM     13  C   UNL     1      -0.974   3.133  25.025  0.00  0.00    +0.079 C 
ATOM     14  C   UNL     1      -0.292   2.872  24.756  0.00  0.00    +0.018 C 
ATOM     15  C   UNL     1      -0.070   2.094  24.708  0.00  0.00    +0.005 C 
ATOM     16  C   UNL     1       0.755   2.003  24.370  0.00  0.00    +0.017 C 
ATOM     17  C   UNL     1       0.227   2.331  24.571  0.00  0.00    +0.072 C 
ATOM     18  N   UNL     1      -0.741   2.342  24.973  0.00  0.00    -0.272 NA
ATOM     19  C   UNL     1      -1.164   1.565  25.195  0.00  0.00    +0.073 C 
ATOM     20  C   UNL     1      -0.483   1.351  24.924  0.00  0.00    +0.032 C 
ENDROOT
BRANCH  13  12
ATOM     12  C   UNL     1      -1.511   3.730  25.213  0.00  0.00    +0.133 C 
BRANCH  12  11
ATOM      8  N   UNL     1      -3.611   3.822  24.629  0.00  0.00    -0.161 NA
ATOM      9  C   UNL     1      -2.934   3.716  25.087  0.00  0.00    +0.344 C 
ATOM     10  O   UNL     1      -3.002   3.490  25.877  0.00  0.00    -0.249 OA
ATOM     11  N   UNL     1      -2.188   3.836  24.755  0.00  0.00    -0.185 NA
BRANCH   8   7
ATOM      3  C   UNL     1      -5.458   2.838  25.250  0.00  0.00    +0.027 A 
ATOM      4  C   UNL     1      -5.848   3.461  25.624  0.00  0.00    +0.006 A 
ATOM      5  C   UNL     1      -5.493   4.204  25.666  0.00  0.00    +0.002 A 
ATOM      6  C   UNL     1      -4.747   4.325  25.334  0.00  0.00    +0.017 A 
ATOM      7  C   UNL     1      -4.357   3.702  24.961  0.00  0.00    +0.075 A 
ATOM     34  C   UNL     1      -4.712   2.958  24.919  0.00  0.00    +0.023 A 
BRANCH   3   2
ATOM      1  C   UNL     1      -6.145   1.757  25.884  0.00  0.00    +0.074 C 
ATOM      2  S   UNL     1      -5.813   2.094  25.209  0.00  0.00    -0.113 S 
ENDBRANCH   3   2
ENDBRANCH   8   7
ENDBRANCH  12  11
ENDBRANCH  13  12
BRANCH  20  21
ATOM     21  C   UNL     1      -0.196   0.580  24.849  0.00  0.00    +0.074 C 
BRANCH  21  22
ATOM     22  N   UNL     1      -0.721  -0.054  24.816  0.00  0.00    -0.270 NA
ATOM     23  C   UNL     1      -0.984  -0.409  25.513  0.00  0.00    +0.094 C 
ATOM     24  C   UNL     1      -1.510  -1.044  25.480  0.00  0.00    +0.108 C 
ATOM     25  N   UNL     1      -1.774  -1.323  24.750  0.00  0.00    -0.305 N 
ATOM     26  C   UNL     1      -1.512  -0.968  24.053  0.00  0.00    +0.108 C 
ATOM     27  C   UNL     1      -0.986  -0.334  24.086  0.00  0.00    +0.094 C 
BRANCH  25  28
ATOM     28  C   UNL     1      -2.300  -1.958  24.717  0.00  0.00    +0.048 A 
ATOM     29  C   UNL     1      -3.060  -1.881  25.030  0.00  0.00    +0.015 A 
ATOM     30  C   UNL     1      -3.586  -2.516  24.997  0.00  0.00    +0.001 A 
ATOM     31  C   UNL     1      -3.353  -3.227  24.651  0.00  0.00    +0.000 A 
ATOM     32  C   UNL     1      -2.593  -3.304  24.337  0.00  0.00    +0.001 A 
ATOM     33  C   UNL     1      -2.067  -2.669  24.371  0.00  0.00    +0.015 A 
ENDBRANCH  25  28
ENDBRANCH  21  22
ENDBRANCH  20  21
TORSDOF 7
ENDMDL
MODEL 5
REMARK VINA RESULT:      -8.5      1.611      3.760
REMARK  Name = 
REMARK  7 active torsions:
REMARK  status: ('A' for Active; 'I' for Inactive)
REMARK    1  A    between atoms: S_2  and  C_3
REMARK    2  A    between atoms: C_7  and  N_8
REMARK    3  A    between atoms: N_11  and  C_12
REMARK    4  A    between atoms: C_12  and  C_13
REMARK    5  A    between atoms: C_20  and  C_21
REMARK    6  A    between atoms: C_21  and  N_22
REMARK    7  A    between atoms: N_25  and  C_28
REMARK                            x       y       z     vdW  Elec       q    Type
REMARK                         _______ _______ _______ _____ _____    ______ ____
ROOT
ATOM     13  C   UNL     1      -0.148   1.263  24.745  0.00  0.00    +0.079 C 
ATOM     14  C   UNL     1       0.137   1.922  25.045  0.00  0.00    +0.018 C 
ATOM     15  C   UNL     1      -0.274   2.614  25.138  0.00  0.00    +0.005 C 
ATOM     16  C   UNL     1       0.234   3.257  25.503  0.00  0.00    +0.017 C 
ATOM     17  C   UNL     1       0.105   2.660  25.271  0.00  0.00    +0.072 C 
ATOM     18  N   UNL     1      -0.560   1.972  24.842  0.00  0.00    -0.272 NA
ATOM     19  C   UNL     1      -1.419   2.211  24.648  0.00  0.00    +0.073 C 
ATOM     20  C   UNL     1      -1.101   2.837  24.949  0.00  0.00    +0.032 C 
ENDROOT
BRANCH  13  12
ATOM     12  C   UNL     1      -0.087   0.475  24.511  0.00  0.00    +0.133 C 
BRANCH  12  11
ATOM      8  N   UNL     1      -1.193  -1.294  25.153  0.00  0.00    -0.161 NA
ATOM      9  C   UNL     1      -0.890  -0.697  24.672  0.00  0.00    +0.344 C 
ATOM     10  O   UNL     1      -1.085  -0.673  23.871  0.00  0.00    -0.249 OA
ATOM     11  N   UNL     1      -0.391  -0.123  24.992  0.00  0.00    -0.185 NA
BRANCH   8   7
ATOM      3  C   UNL     1      -3.009  -2.345  24.553  0.00  0.00    +0.027 A 
ATOM      4  C   UNL     1      -2.690  -3.015  24.194  0.00  0.00    +0.006 A 
ATOM      5  C   UNL     1      -1.872  -3.112  24.155  0.00  0.00    +0.002 A 
ATOM      6  C   UNL     1      -1.373  -2.538  24.474  0.00  0.00    +0.017 A 
ATOM      7  C   UNL     1      -1.692  -1.868  24.833  0.00  0.00    +0.075 A 
ATOM     34  C   UNL     1      -2.511  -1.771  24.873  0.00  0.00    +0.023 A 
BRANCH   3   2
ATOM      1  C   UNL     1      -4.249  -2.021  23.920  0.00  0.00    +0.074 C 
ATOM      2  S   UNL     1      -3.828  -2.248  24.592  0.00  0.00    -0.113 S 
ENDBRANCH   3   2
ENDBRANCH   8   7
ENDBRANCH  12  11
ENDBRANCH  13  12
BRANCH  20  21
ATOM     21  C   UNL     1      -1.461   3.570  25.070  0.00  0.00    +0.074 C 
BRANCH  21  22
ATOM     22  N   UNL     1      -2.278   3.616  25.168  0.00  0.00    -0.270 NA
ATOM     23  C   UNL     1      -2.776   3.574  24.511  0.00  0.00    +0.094 C 
ATOM     24  C   UNL     1      -3.593   3.620  24.609  0.00  0.00    +0.108 C 
ATOM     25  N   UNL     1      -3.914   3.709  25.364  0.00  0.00    -0.305 N 
ATOM     26  C   UNL     1      -3.418   3.751  26.021  0.00  0.00    +0.108 C 
ATOM     27  C   UNL     1      -2.600   3.704  25.923  0.00  0.00    +0.094 C 
BRANCH  25  28
ATOM     28  C   UNL     1      -4.732   3.755  25.462  0.00  0.00    +0.048 A 
ATOM     29  C   UNL     1      -5.109   4.489  25.438  0.00  0.00    +0.015 A 
ATOM     30  C   UNL     1      -5.927   4.535  25.537  0.00  0.00    +0.001 A 
ATOM     31  C   UNL     1      -6.368   3.849  25.658  0.00  0.00    +0.000 A 
ATOM     32  C   UNL     1      -5.991   3.115  25.682  0.00  0.00    +0.001 A 
ATOM     33  C   UNL     1      -5.173   3.069  25.584  0.00  0.00    +0.015 A 
ENDBRANCH  25  28
ENDBRANCH  21  22
ENDBRANCH  20  21
TORSDOF 7
ENDMDL
MODEL 6
REMARK VINA RESULT:      -8.3      3.552      6.106
REMARK  Name = 
REMARK  7 active torsions:
REMARK  status: ('A' for Active; 'I' for Inactive)
REMARK    1  A    between atoms: S_2  and  C_3
REMARK    2  A    between atoms: C_7  and  N_8
REMARK    3  A    between atoms: N_11  and  C_12
REMARK    4  A    between atoms: C_12  and  C_13
REMARK    5  A    between atoms: C_20  and  C_21
REMARK    6  A    between atoms: C_21  and  N_22
REMARK    7  A    between atoms: N_25  and  C_28
REMARK                            x       y       z     vdW  Elec       q    Type
REMARK                         _______ _______ _______ _____ _____    ______ ____
ROOT
ATOM     13  C   UNL     1       0.301   2.115  24.379  0.00  0.00    +0.079 C 
ATOM     14  C   UNL     1      -0.125   2.439  24.944  0.00  0.00    +0.018 C 
ATOM     15  C   UNL     1      -0.876   2.218  25.154  0.00  0.00    +0.005 C 
ATOM     16  C   UNL     1      -1.193   2.715  25.830  0.00  0.00    +0.017 C 
ATOM     17  C   UNL     1      -0.752   2.524  25.388  0.00  0.00    +0.072 C 
ATOM     18  N   UNL     1      -0.464   1.897  24.599  0.00  0.00    -0.272 NA
ATOM     19  C   UNL     1      -1.030   1.254  24.282  0.00  0.00    +0.073 C 
ATOM     20  C   UNL     1      -1.415   1.598  24.845  0.00  0.00    +0.032 C 
ENDROOT
BRANCH  13  12
ATOM     12  C   UNL     1       0.982   2.045  23.920  0.00  0.00    +0.133 C 
BRANCH  12  11
ATOM      8  N   UNL     1       2.483   0.539  23.430  0.00  0.00    -0.161 NA
ATOM      9  C   UNL     1       2.105   1.269  23.499  0.00  0.00    +0.344 C 
ATOM     10  O   UNL     1       2.472   1.951  23.217  0.00  0.00    -0.249 OA
ATOM     11  N   UNL     1       1.360   1.316  23.851  0.00  0.00    -0.185 NA
BRANCH   8   7
ATOM      3  C   UNL     1       4.645   0.349  23.197  0.00  0.00    +0.027 A 
ATOM      4  C   UNL     1       4.718   0.397  22.377  0.00  0.00    +0.006 A 
ATOM      5  C   UNL     1       4.046   0.491  21.908  0.00  0.00    +0.002 A 
ATOM      6  C   UNL     1       3.301   0.539  22.259  0.00  0.00    +0.017 A 
ATOM      7  C   UNL     1       3.228   0.492  23.079  0.00  0.00    +0.075 A 
ATOM     34  C   UNL     1       3.900   0.397  23.549  0.00  0.00    +0.023 A 
BRANCH   3   2
ATOM      1  C   UNL     1       5.569  -0.502  23.878  0.00  0.00    +0.074 C 
ATOM      2  S   UNL     1       5.317   0.254  23.667  0.00  0.00    -0.113 S 
ENDBRANCH   3   2
ENDBRANCH   8   7
ENDBRANCH  12  11
ENDBRANCH  13  12
BRANCH  20  21
ATOM     21  C   UNL     1      -2.178   1.424  25.107  0.00  0.00    +0.074 C 
BRANCH  21  22
ATOM     22  N   UNL     1      -2.516   0.693  24.934  0.00  0.00    -0.270 NA
ATOM     23  C   UNL     1      -2.388   0.050  25.436  0.00  0.00    +0.094 C 
ATOM     24  C   UNL     1      -2.726  -0.682  25.263  0.00  0.00    +0.108 C 
ATOM     25  N   UNL     1      -3.192  -0.772  24.588  0.00  0.00    -0.305 N 
ATOM     26  C   UNL     1      -3.320  -0.131  24.086  0.00  0.00    +0.108 C 
ATOM     27  C   UNL     1      -2.982   0.602  24.259  0.00  0.00    +0.094 C 
BRANCH  25  28
ATOM     28  C   UNL     1      -3.530  -1.505  24.415  0.00  0.00    +0.048 A 
ATOM     29  C   UNL     1      -3.195  -2.196  24.717  0.00  0.00    +0.015 A 
ATOM     30  C   UNL     1      -3.533  -2.928  24.543  0.00  0.00    +0.001 A 
ATOM     31  C   UNL     1      -4.206  -2.970  24.068  0.00  0.00    +0.000 A 
ATOM     32  C   UNL     1      -4.541  -2.279  23.766  0.00  0.00    +0.001 A 
ATOM     33  C   UNL     1      -4.203  -1.546  23.940  0.00  0.00    +0.015 A 
ENDBRANCH  25  28
ENDBRANCH  21  22
ENDBRANCH  20  21
TORSDOF 7
ENDMDL
MODEL 7
REMARK VINA RESULT:      -8.2      2.996      5.251
REMARK  Name = 
REMARK  7 active torsions:
REMARK  status: ('A' for Active; 'I' for Inactive)
REMARK    1  A    between atoms: S_2  and  C_3
REMARK    2  A    between atoms: C_7  and  N_8
REMARK    3  A    between atoms: N_11  and  C_12
REMARK    4  A    between atoms: C_12  and  C_13
REMARK    5  A    between atoms: C_20  and  C_21
REMARK    6  A    between atoms: C_21  and  N_22
REMARK    7  A    between atoms: N_25  and  C_28
REMARK                            x       y       z     vdW  Elec       q    Type
REMARK                         _______ _______ _______ _____ _____    ______ ____
ROOT
ATOM     13  C   UNL     1       0.035   2.660  24.388  0.00  0.00    +0.079 C 
ATOM     14  C   UNL     1      -0.057   3.401  24.609  0.00  0.00    +0.018 C 
ATOM     15  C   UNL     1      -0.766   3.769  24.738  0.00  0.00    +0.005 C 
ATOM     16  C   UNL     1      -0.658   4.624  24.988  0.00  0.00    +0.017 C 
ATOM     17  C   UNL     1      -0.463   4.028  24.806  0.00  0.00    +0.072 C 
ATOM     18  N   UNL     1      -0.684   3.043  24.522  0.00  0.00    -0.272 NA
ATOM     19  C   UNL     1      -1.548   2.757  24.462  0.00  0.00    +0.073 C 
ATOM     20  C   UNL     1      -1.595   3.487  24.679  0.00  0.00    +0.032 C 
ENDROOT
BRANCH  13  12
ATOM     12  C   UNL     1       0.492   2.006  24.182  0.00  0.00    +0.133 C 
BRANCH  12  11
ATOM      8  N   UNL     1       2.362   1.561  23.147  0.00  0.00    -0.161 NA
ATOM      9  C   UNL     1       1.671   1.460  23.587  0.00  0.00    +0.344 C 
ATOM     10  O   UNL     1       1.471   0.714  23.874  0.00  0.00    -0.249 OA
ATOM     11  N   UNL     1       1.182   2.107  23.741  0.00  0.00    -0.185 NA
BRANCH   8   7
ATOM      3  C   UNL     1       4.144   0.308  23.022  0.00  0.00    +0.027 A 
ATOM      4  C   UNL     1       3.830  -0.376  22.685  0.00  0.00    +0.006 A 
ATOM      5  C   UNL     1       3.027  -0.414  22.501  0.00  0.00    +0.002 A 
ATOM      6  C   UNL     1       2.537   0.231  22.655  0.00  0.00    +0.017 A 
ATOM      7  C   UNL     1       2.851   0.916  22.993  0.00  0.00    +0.075 A 
ATOM     34  C   UNL     1       3.655   0.954  23.176  0.00  0.00    +0.023 A 
BRANCH   3   2
ATOM      1  C   UNL     1       5.282  -0.211  23.713  0.00  0.00    +0.074 C 
ATOM      2  S   UNL     1       4.948   0.347  23.205  0.00  0.00    -0.113 S 
ENDBRANCH   3   2
ENDBRANCH   8   7
ENDBRANCH  12  11
ENDBRANCH  13  12
BRANCH  20  21
ATOM     21  C   UNL     1      -2.282   3.921  24.826  0.00  0.00    +0.074 C 
BRANCH  21  22
ATOM     22  N   UNL     1      -3.004   3.532  24.910  0.00  0.00    -0.270 NA
ATOM     23  C   UNL     1      -3.265   3.304  25.659  0.00  0.00    +0.094 C 
ATOM     24  C   UNL     1      -3.988   2.915  25.743  0.00  0.00    +0.108 C 
ATOM     25  N   UNL     1      -4.450   2.755  25.078  0.00  0.00    -0.305 N 
ATOM     26  C   UNL     1      -4.190   2.983  24.329  0.00  0.00    +0.108 C 
ATOM     27  C   UNL     1      -3.467   3.372  24.246  0.00  0.00    +0.094 C 
BRANCH  25  28
ATOM     28  C   UNL     1      -5.173   2.366  25.162  0.00  0.00    +0.048 A 
ATOM     29  C   UNL     1      -5.791   2.728  25.573  0.00  0.00    +0.015 A 
ATOM     30  C   UNL     1      -6.514   2.339  25.657  0.00  0.00    +0.001 A 
ATOM     31  C   UNL     1      -6.619   1.589  25.330  0.00  0.00    +0.000 A 
ATOM     32  C   UNL     1      -6.001   1.227  24.919  0.00  0.00    +0.001 A 
ATOM     33  C   UNL     1      -5.278   1.616  24.835  0.00  0.00    +0.015 A 
ENDBRANCH  25  28
ENDBRANCH  21  22
ENDBRANCH  20  21
TORSDOF 7
ENDMDL
MODEL 8
REMARK VINA RESULT:      -8.1     14.201     15.989
REMARK  Name = 
REMARK  7 active torsions:
REMARK  status: ('A' for Active; 'I' for Inactive)
REMARK    1  A    between atoms: S_2  and  C_3
REMARK    2  A    between atoms: C_7  and  N_8
REMARK    3  A    between atoms: N_11  and  C_12
REMARK    4  A    between atoms: C_12  and  C_13
REMARK    5  A    between atoms: C_20  and  C_21
REMARK    6  A    between atoms: C_21  and  N_22
REMARK    7  A    between atoms: N_25  and  C_28
REMARK                            x       y       z     vdW  Elec       q    Type
REMARK                         _______ _______ _______ _____ _____    ______ ____
ROOT
ATOM     13  C   UNL     1      -5.879 -10.358  16.725  0.00  0.00    +0.079 C 
ATOM     14  C   UNL     1      -5.223 -10.435  17.136  0.00  0.00    +0.018 C 
ATOM     15  C   UNL     1      -4.485 -10.561  16.829  0.00  0.00    +0.005 C 
ATOM     16  C   UNL     1      -3.861 -10.621  17.470  0.00  0.00    +0.017 C 
ATOM     17  C   UNL     1      -4.464 -10.543  17.232  0.00  0.00    +0.072 C 
ATOM     18  N   UNL     1      -5.123 -10.487  16.418  0.00  0.00    -0.272 NA
ATOM     19  C   UNL     1      -4.818 -10.576  15.563  0.00  0.00    +0.073 C 
ATOM     20  C   UNL     1      -4.198 -10.646  16.003  0.00  0.00    +0.032 C 
ENDROOT
BRANCH  13  12
ATOM     12  C   UNL     1      -6.691 -10.240  16.651  0.00  0.00    +0.133 C 
BRANCH  12  11
ATOM      8  N   UNL     1      -8.290  -9.117  17.625  0.00  0.00    -0.161 NA
ATOM      9  C   UNL     1      -7.892  -9.598  17.085  0.00  0.00    +0.344 C 
ATOM     10  O   UNL     1      -8.296  -9.918  16.442  0.00  0.00    -0.249 OA
ATOM     11  N   UNL     1      -7.089  -9.759  17.191  0.00  0.00    -0.185 NA
BRANCH   8   7
ATOM      3  C   UNL     1     -10.131  -8.071  17.098  0.00  0.00    +0.027 A 
ATOM      4  C   UNL     1     -10.696  -8.633  17.312  0.00  0.00    +0.006 A 
ATOM      5  C   UNL     1     -10.459  -9.355  17.630  0.00  0.00    +0.002 A 
ATOM      6  C   UNL     1      -9.657  -9.518  17.734  0.00  0.00    +0.017 A 
ATOM      7  C   UNL     1      -9.092  -8.956  17.521  0.00  0.00    +0.075 A 
ATOM     34  C   UNL     1      -9.329  -8.232  17.202  0.00  0.00    +0.023 A 
BRANCH   3   2
ATOM      1  C   UNL     1     -10.275  -7.202  15.973  0.00  0.00    +0.074 C 
ATOM      2  S   UNL     1     -10.368  -7.347  16.779  0.00  0.00    -0.113 S 
ENDBRANCH   3   2
ENDBRANCH   8   7
ENDBRANCH  12  11
ENDBRANCH  13  12
BRANCH  20  21
ATOM     21  C   UNL     1      -3.422 -10.775  15.755  0.00  0.00    +0.074 C 
BRANCH  21  22
ATOM     22  N   UNL     1      -3.217 -10.659  14.965  0.00  0.00    -0.270 NA
ATOM     23  C   UNL     1      -2.445 -10.447  14.766  0.00  0.00    +0.094 C 
ATOM     24  C   UNL     1      -2.240 -10.331  13.975  0.00  0.00    +0.108 C 
ATOM     25  N   UNL     1      -2.807 -10.427  13.384  0.00  0.00    -0.305 N 
ATOM     26  C   UNL     1      -3.579 -10.639  13.582  0.00  0.00    +0.108 C 
ATOM     27  C   UNL     1      -3.784 -10.755  14.373  0.00  0.00    +0.094 C 
BRANCH  25  28
ATOM     28  C   UNL     1      -2.602 -10.311  12.593  0.00  0.00    +0.048 A 
ATOM     29  C   UNL     1      -1.821 -10.137  12.390  0.00  0.00    +0.015 A 
ATOM     30  C   UNL     1      -1.616 -10.021  11.600  0.00  0.00    +0.001 A 
ATOM     31  C   UNL     1      -2.192 -10.078  11.012  0.00  0.00    +0.000 A 
ATOM     32  C   UNL     1      -2.973 -10.251  11.214  0.00  0.00    +0.001 A 
ATOM     33  C   UNL     1      -3.178 -10.367  12.005  0.00  0.00    +0.015 A 
ENDBRANCH  25  28
ENDBRANCH  21  22
ENDBRANCH  20  21
TORSDOF 7
ENDMDL
MODEL 9
REMARK VINA RESULT:      -8.0      1.984      5.242
REMARK  Name = 
REMARK  7 active torsions:
REMARK  status: ('A' for Active; 'I' for Inactive)
REMARK    1  A    between atoms: S_2  and  C_3
REMARK    2  A    between atoms: C_7  and  N_8
REMARK    3  A    between atoms: N_11  and  C_12
REMARK    4  A    between atoms: C_12  and  C_13
REMARK    5  A    between atoms: C_20  and  C_21
REMARK    6  A    between atoms: C_21  and  N_22
REMARK    7  A    between atoms: N_25  and  C_28
REMARK                            x       y       z     vdW  Elec       q    Type
REMARK                         _______ _______ _______ _____ _____    ______ ____
ROOT
ATOM     13  C   UNL     1      -4.050  -1.019  24.886  0.00  0.00    +0.079 C 
ATOM     14  C   UNL     1      -3.854  -1.756  24.729  0.00  0.00    +0.018 C 
ATOM     15  C   UNL     1      -3.102  -2.026  24.598  0.00  0.00    +0.005 C 
ATOM     16  C   UNL     1      -3.087  -2.907  24.434  0.00  0.00    +0.017 C 
ATOM     17  C   UNL     1      -3.365  -2.332  24.570  0.00  0.00    +0.072 C 
ATOM     18  N   UNL     1      -3.286  -1.302  24.751  0.00  0.00    -0.272 NA
ATOM     19  C   UNL     1      -2.474  -0.885  24.738  0.00  0.00    +0.073 C 
ATOM     20  C   UNL     1      -2.324  -1.619  24.587  0.00  0.00    +0.032 C 
ENDROOT
BRANCH  13  12
ATOM     12  C   UNL     1      -4.594  -0.423  25.055  0.00  0.00    +0.133 C 
BRANCH  12  11
ATOM      8  N   UNL     1      -4.710   1.686  24.508  0.00  0.00    -0.161 NA
ATOM      9  C   UNL     1      -4.696   0.999  24.964  0.00  0.00    +0.344 C 
ATOM     10  O   UNL     1      -4.770   1.047  25.784  0.00  0.00    -0.249 OA
ATOM     11  N   UNL     1      -4.608   0.264  24.599  0.00  0.00    -0.185 NA
BRANCH   8   7
ATOM      3  C   UNL     1      -4.235   3.658  25.314  0.00  0.00    +0.027 A 
ATOM      4  C   UNL     1      -4.973   3.891  25.600  0.00  0.00    +0.006 A 
ATOM      5  C   UNL     1      -5.622   3.390  25.522  0.00  0.00    +0.002 A 
ATOM      6  C   UNL     1      -5.535   2.654  25.158  0.00  0.00    +0.017 A 
ATOM      7  C   UNL     1      -4.798   2.421  24.872  0.00  0.00    +0.075 A 
ATOM     34  C   UNL     1      -4.147   2.923  24.950  0.00  0.00    +0.023 A 
BRANCH   3   2
ATOM      1  C   UNL     1      -3.181   4.204  26.109  0.00  0.00    +0.074 C 
ATOM      2  S   UNL     1      -3.585   4.161  25.391  0.00  0.00    -0.113 S 
ENDBRANCH   3   2
ENDBRANCH   8   7
ENDBRANCH  12  11
ENDBRANCH  13  12
BRANCH  20  21
ATOM     21  C   UNL     1      -1.585  -1.957  24.444  0.00  0.00    +0.074 C 
BRANCH  21  22
ATOM     22  N   UNL     1      -0.957  -1.486  24.194  0.00  0.00    -0.270 NA
ATOM     23  C   UNL     1      -0.434  -1.168  24.748  0.00  0.00    +0.094 C 
ATOM     24  C   UNL     1       0.194  -0.696  24.498  0.00  0.00    +0.108 C 
ATOM     25  N   UNL     1       0.300  -0.541  23.695  0.00  0.00    -0.305 N 
ATOM     26  C   UNL     1      -0.223  -0.858  23.140  0.00  0.00    +0.108 C 
ATOM     27  C   UNL     1      -0.851  -1.330  23.391  0.00  0.00    +0.094 C 
BRANCH  25  28
ATOM     28  C   UNL     1       0.929  -0.069  23.444  0.00  0.00    +0.048 A 
ATOM     29  C   UNL     1       1.474  -0.363  22.899  0.00  0.00    +0.015 A 
ATOM     30  C   UNL     1       2.102   0.110  22.649  0.00  0.00    +0.001 A 
ATOM     31  C   UNL     1       2.186   0.875  22.943  0.00  0.00    +0.000 A 
ATOM     32  C   UNL     1       1.641   1.169  23.489  0.00  0.00    +0.001 A 
ATOM     33  C   UNL     1       1.012   0.697  23.739  0.00  0.00    +0.015 A 
ENDBRANCH  25  28
ENDBRANCH  21  22
ENDBRANCH  20  21
TORSDOF 7
ENDMDL
MODEL 10
REMARK VINA RESULT:      -8.0     14.357     16.589
REMARK  Name = 
REMARK  7 active torsions:
REMARK  status: ('A' for Active; 'I' for Inactive)
REMARK    1  A    between atoms: S_2  and  C_3
REMARK    2  A    between atoms: C_7  and  N_8
REMARK    3  A    between atoms: N_11  and  C_12
REMARK    4  A    between atoms: C_12  and  C_13
REMARK    5  A    between atoms: C_20  and  C_21
REMARK    6  A    between atoms: C_21  and  N_22
REMARK    7  A    between atoms: N_25  and  C_28
REMARK                            x       y       z     vdW  Elec       q    Type
REMARK                         _______ _______ _______ _____ _____    ______ ____
ROOT
ATOM     13  C   UNL     1      -3.686 -10.692  16.201  0.00  0.00    +0.079 C 
ATOM     14  C   UNL     1      -2.908 -10.670  16.180  0.00  0.00    +0.018 C 
ATOM     15  C   UNL     1      -2.454 -10.698  15.510  0.00  0.00    +0.005 C 
ATOM     16  C   UNL     1      -1.578 -10.659  15.698  0.00  0.00    +0.017 C 
ATOM     17  C   UNL     1      -2.217 -10.670  15.836  0.00  0.00    +0.072 C 
ATOM     18  N   UNL     1      -3.216 -10.720  15.523  0.00  0.00    -0.272 NA
ATOM     19  C   UNL     1      -3.427 -10.781  14.637  0.00  0.00    +0.073 C 
ATOM     20  C   UNL     1      -2.664 -10.757  14.660  0.00  0.00    +0.032 C 
ENDROOT
BRANCH  13  12
ATOM     12  C   UNL     1      -4.411 -10.690  16.594  0.00  0.00    +0.133 C 
BRANCH  12  11
ATOM      8  N   UNL     1      -6.164  -9.404  16.787  0.00  0.00    -0.161 NA
ATOM      9  C   UNL     1      -5.678 -10.070  16.822  0.00  0.00    +0.344 C 
ATOM     10  O   UNL     1      -5.973 -10.780  17.119  0.00  0.00    -0.249 OA
ATOM     11  N   UNL     1      -4.897 -10.024  16.559  0.00  0.00    -0.185 NA
BRANCH   8   7
ATOM      3  C   UNL     1      -8.343  -9.295  16.803  0.00  0.00    +0.027 A 
ATOM      4  C   UNL     1      -8.506  -9.538  17.574  0.00  0.00    +0.006 A 
ATOM      5  C   UNL     1      -7.888  -9.736  18.083  0.00  0.00    +0.002 A 
ATOM      6  C   UNL     1      -7.107  -9.692  17.821  0.00  0.00    +0.017 A 
ATOM      7  C   UNL     1      -6.944  -9.449  17.050  0.00  0.00    +0.075 A 
ATOM     34  C   UNL     1      -7.563  -9.250  16.541  0.00  0.00    +0.023 A 
BRANCH   3   2
ATOM      1  C   UNL     1      -9.521  -9.665  16.082  0.00  0.00    +0.074 C 
ATOM      2  S   UNL     1      -8.962  -9.097  16.294  0.00  0.00    -0.113 S 
ENDBRANCH   3   2
ENDBRANCH   8   7
ENDBRANCH  12  11
ENDBRANCH  13  12
BRANCH  20  21
ATOM     21  C   UNL     1      -2.145 -10.781  14.018  0.00  0.00    +0.074 C 
BRANCH  21  22
ATOM     22  N   UNL     1      -2.414 -10.590  13.263  0.00  0.00    -0.270 NA
ATOM     23  C   UNL     1      -3.221 -10.482  13.128  0.00  0.00    +0.094 C 
ATOM     24  C   UNL     1      -3.491 -10.292  12.372  0.00  0.00    +0.108 C 
ATOM     25  N   UNL     1      -2.955 -10.208  11.751  0.00  0.00    -0.305 N 
ATOM     26  C   UNL     1      -2.148 -10.315  11.885  0.00  0.00    +0.108 C 
ATOM     27  C   UNL     1      -1.878 -10.506  12.641  0.00  0.00    +0.094 C 
BRANCH  25  28
ATOM     28  C   UNL     1      -3.224 -10.017  10.995  0.00  0.00    +0.048 A 
ATOM     29  C   UNL     1      -2.918  -9.359  10.602  0.00  0.00    +0.015 A 
ATOM     30  C   UNL     1      -3.188  -9.168   9.846  0.00  0.00    +0.001 A 
ATOM     31  C   UNL     1      -3.763  -9.634   9.483  0.00  0.00    +0.000 A 
ATOM     32  C   UNL     1      -4.069 -10.292   9.877  0.00  0.00    +0.001 A 
ATOM     33  C   UNL     1      -3.800 -10.483  10.633  0.00  0.00    +0.015 A 
ENDBRANCH  25  28
ENDBRANCH  21  22
ENDBRANCH  20  21
TORSDOF 7
ENDMDL
