REMARK  Name = 
REMARK  4 active torsions:
REMARK  status: ('A' for Active; 'I' for Inactive)
REMARK    1  A    between atoms: S_2  and  C_3
REMARK    2  A    between atoms: C_6  and  C_9
REMARK    3  A    between atoms: C_17  and  N_25
REMARK    4  A    between atoms: C_26  and  C_28
REMARK                            x       y       z     vdW  Elec       q    Type
REMARK                         _______ _______ _______ _____ _____    ______ ____
ROOT
ATOM      9  C   UNL     1       0.595  -1.673   0.000  0.00  0.00    +0.000 A 
ATOM     10  C   UNL     1       0.421  -0.867   0.000  0.00  0.00    +0.001 A 
ATOM     11  C   UNL     1       1.032  -0.313   0.000  0.00  0.00    +0.017 A 
ATOM     12  C   UNL     1       1.817  -0.565   0.000  0.00  0.00    +0.078 A 
ATOM     13  N   UNL     1       2.339   0.074   0.000  0.00  0.00    -0.178 NA
ATOM     14  C   UNL     1       3.164   0.065   0.000  0.00  0.00    +0.265 C 
ATOM     15  O   UNL     1       3.530   0.804   0.000  0.00  0.00    -0.271 OA
ATOM     16  C   UNL     1       3.671  -0.586   0.000  0.00  0.00    +0.174 C 
ATOM     17  C   UNL     1       4.493  -0.521   0.000  0.00  0.00    +0.124 C 
ATOM     18  C   UNL     1       4.809  -1.283   0.000  0.00  0.00    +0.045 C 
ATOM     19  C   UNL     1       4.182  -1.819   0.000  0.00  0.00    +0.096 C 
ATOM     20  N   UNL     1       3.478  -1.388   0.000  0.00  0.00    -0.268 N 
ATOM     21  C   UNL     1       2.731  -1.737   0.000  0.00  0.00    +0.251 C 
ATOM     22  O   UNL     1       2.722  -2.562   0.000  0.00  0.00    -0.270 OA
ATOM     23  C   UNL     1       1.992  -1.371   0.000  0.00  0.00    +0.069 A 
ATOM     24  C   UNL     1       1.381  -1.925   0.000  0.00  0.00    +0.006 A 
ENDROOT
BRANCH   9   6
ATOM      3  C   UNL     1      -1.238  -3.337   0.000  0.00  0.00    +0.025 A 
ATOM      4  C   UNL     1      -1.412  -2.530   0.000  0.00  0.00    +0.006 A 
ATOM      5  C   UNL     1      -0.801  -1.976   0.000  0.00  0.00    +0.001 A 
ATOM      6  C   UNL     1      -0.016  -2.228   0.000  0.00  0.00    +0.000 A 
ATOM      7  C   UNL     1       0.159  -3.034   0.000  0.00  0.00    +0.001 A 
ATOM      8  C   UNL     1      -0.452  -3.588   0.000  0.00  0.00    +0.006 A 
BRANCH   3   2
ATOM      1  C   UNL     1      -1.674  -4.697   0.000  0.00  0.00    +0.074 C 
ATOM      2  S   UNL     1      -1.849  -3.891   0.000  0.00  0.00    -0.113 S 
ENDBRANCH   3   2
ENDBRANCH   9   6
BRANCH  17  25
ATOM     25  N   UNL     1       4.924   0.183   0.000  0.00  0.00    -0.205 NA
ATOM     26  C   UNL     1       5.749   0.161   0.000  0.00  0.00    +0.241 C 
ATOM     27  O   UNL     1       6.143  -0.564   0.000  0.00  0.00    -0.273 OA
BRANCH  26  28
ATOM     28  C   UNL     1       6.180   0.865   0.000  0.00  0.00    +0.078 C 
ATOM     29  C   UNL     1       5.864   1.627   0.000  0.00  0.00    +0.009 C 
ATOM     30  C   UNL     1       6.492   2.163   0.000  0.00  0.00    +0.001 C 
ATOM     31  C   UNL     1       7.195   1.732   0.000  0.00  0.00    +0.001 C 
ATOM     32  C   UNL     1       7.003   0.929   0.000  0.00  0.00    +0.009 C 
ENDBRANCH  26  28
ENDBRANCH  17  25
TORSDOF 4
