REMARK  Name = 
REMARK  6 active torsions:
REMARK  status: ('A' for Active; 'I' for Inactive)
REMARK    1  A    between atoms: C_5  and  N_6
REMARK    2  A    between atoms: C_7  and  O_9
REMARK    3  A    between atoms: O_9  and  C_10
REMARK    4  A    between atoms: C_14  and  N_18
REMARK    5  A    between atoms: C_22  and  C_23
REMARK    6  A    between atoms: C_26  and  C_29
REMARK                            x       y       z     vdW  Elec       q    Type
REMARK                         _______ _______ _______ _____ _____    ______ ____
ROOT
ATOM     10  C   UNL     1       1.270  -0.922   0.000  0.00  0.00    +0.229 C 
ATOM     11  C   UNL     1       0.785  -0.255   0.000  0.00  0.00    +0.188 C 
ATOM     12  O   UNL     1       1.270   0.412   0.000  0.00  0.00    -0.348 OA
ATOM     13  C   UNL     1       2.054   0.158   0.000  0.00  0.00    +0.171 C 
ATOM     14  C   UNL     1       2.839   0.412   0.000  0.00  0.00    +0.167 C 
ATOM     15  C   UNL     1       3.324  -0.255   0.000  0.00  0.00    +0.169 C 
ATOM     16  O   UNL     1       2.839  -0.922   0.000  0.00  0.00    -0.348 OA
ATOM     17  C   UNL     1       2.054  -0.667   0.000  0.00  0.00    +0.187 C 
ENDROOT
BRANCH  14  18
ATOM     18  N   UNL     1       3.094   1.197   0.000  0.00  0.00    -0.210 N 
ATOM     19  N   UNL     1       2.609   1.865   0.000  0.00  0.00    -0.043 NA
ATOM     20  N   UNL     1       3.094   2.532   0.000  0.00  0.00    -0.023 NA
ATOM     21  N   UNL     1       3.878   2.277   0.000  0.00  0.00    -0.108 NA
ATOM     22  C   UNL     1       3.878   1.452   0.000  0.00  0.00    +0.184 A 
BRANCH  22  23
ATOM     23  C   UNL     1       4.546   0.967   0.000  0.00  0.00    +0.037 A 
ATOM     24  C   UNL     1       5.300   1.303   0.000  0.00  0.00    +0.003 A 
ATOM     25  C   UNL     1       5.967   0.818   0.000  0.00  0.00    +0.000 A 
ATOM     26  C   UNL     1       5.881  -0.003   0.000  0.00  0.00    +0.000 A 
ATOM     27  C   UNL     1       5.127  -0.338   0.000  0.00  0.00    +0.000 A 
ATOM     28  C   UNL     1       4.460   0.147   0.000  0.00  0.00    +0.003 A 
BRANCH  26  29
ATOM     29  C   UNL     1       6.548  -0.488   0.000  0.00  0.00    +0.000 A 
ATOM     30  C   UNL     1       7.302  -0.152   0.000  0.00  0.00    +0.000 A 
ATOM     31  C   UNL     1       7.969  -0.637   0.000  0.00  0.00    +0.000 A 
ATOM     32  C   UNL     1       7.883  -1.458   0.000  0.00  0.00    +0.000 A 
ATOM     33  C   UNL     1       7.129  -1.793   0.000  0.00  0.00    +0.000 A 
ATOM     34  C   UNL     1       6.462  -1.308   0.000  0.00  0.00    +0.000 A 
ENDBRANCH  26  29
ENDBRANCH  22  23
ENDBRANCH  14  18
BRANCH  10   9
ATOM      9  O   UNL     1       1.015  -1.707   0.000  0.00  0.00    -0.432 OA
BRANCH   9   7
ATOM      6  N   UNL     1      -0.047  -2.663   0.000  0.00  0.00    -0.142 NA
ATOM      7  C   UNL     1       0.208  -1.879   0.000  0.00  0.00    +0.425 C 
ATOM      8  O   UNL     1      -0.344  -1.265   0.000  0.00  0.00    -0.224 OA
BRANCH   6   5
ATOM      1  C   UNL     1      -3.275  -3.349   0.000  0.00  0.00    +0.031 C 
ATOM      2  C   UNL     1      -2.468  -3.178   0.000  0.00  0.00    -0.022 A 
ATOM      3  C   UNL     1      -2.213  -2.393   0.000  0.00  0.00    -0.003 A 
ATOM      4  C   UNL     1      -1.406  -2.222   0.000  0.00  0.00    +0.016 A 
ATOM      5  C   UNL     1      -0.854  -2.835   0.000  0.00  0.00    +0.077 A 
ATOM     35  C   UNL     1      -1.109  -3.619   0.000  0.00  0.00    +0.016 A 
ATOM     36  C   UNL     1      -1.916  -3.791   0.000  0.00  0.00    -0.003 A 
ENDBRANCH   6   5
ENDBRANCH   9   7
ENDBRANCH  10   9
TORSDOF 6
