REMARK  Name = 
REMARK  7 active torsions:
REMARK  status: ('A' for Active; 'I' for Inactive)
REMARK    1  A    between atoms: C_2  and  N_3
REMARK    2  A    between atoms: N_3  and  C_4
REMARK    3  A    between atoms: N_3  and  C_6
REMARK    4  A    between atoms: C_8  and  C_9
REMARK    5  A    between atoms: C_9  and  C_10
REMARK    6  A    between atoms: C_13  and  C_14
REMARK    7  A    between atoms: C_14  and  C_15
REMARK                            x       y       z     vdW  Elec       q    Type
REMARK                         _______ _______ _______ _____ _____    ______ ____
ROOT
ATOM      6  C   UNL     1       0.680  -2.086   0.000  0.00  0.00    +0.057 C 
ATOM      7  C   UNL     1       0.097  -2.670   0.000  0.00  0.00    +0.016 C 
ATOM      8  C   UNL     1      -0.486  -2.086   0.000  0.00  0.00    +0.009 C 
ATOM     18  C   UNL     1       0.097  -1.503   0.000  0.00  0.00    +0.014 C 
ATOM     19  C   UNL     1      -0.334  -0.799   0.000  0.00  0.00    +0.001 C 
ATOM     20  C   UNL     1       0.528  -0.799   0.000  0.00  0.00    +0.001 C 
ENDROOT
BRANCH   6   3
ATOM      3  N   UNL     1       1.506  -2.086   0.000  0.00  0.00    -0.274 NA
BRANCH   3   2
ATOM      1  C   UNL     1       2.743  -1.372   0.000  0.00  0.00    +0.019 C 
ATOM      2  C   UNL     1       1.918  -1.372   0.000  0.00  0.00    +0.072 C 
ENDBRANCH   3   2
BRANCH   3   4
ATOM      4  C   UNL     1       1.918  -2.801   0.000  0.00  0.00    +0.072 C 
ATOM      5  C   UNL     1       1.506  -3.515   0.000  0.00  0.00    +0.019 C 
ENDBRANCH   3   4
ENDBRANCH   6   3
BRANCH   8   9
ATOM      9  C   UNL     1      -1.311  -2.086   0.000  0.00  0.00    +0.049 C 
BRANCH   9  10
ATOM     10  C   UNL     1      -1.724  -2.801   0.000  0.00  0.00    +0.100 A 
ATOM     11  N   UNL     1      -1.388  -3.554   0.000  0.00  0.00    -0.082 NA
ATOM     12  O   UNL     1      -2.001  -4.106   0.000  0.00  0.00    -0.358 OA
ATOM     13  C   UNL     1      -2.716  -3.694   0.000  0.00  0.00    +0.157 A 
ATOM     17  C   UNL     1      -2.544  -2.887   0.000  0.00  0.00    +0.054 A 
BRANCH  13  14
ATOM     14  C   UNL     1      -3.469  -4.029   0.000  0.00  0.00    +0.103 C 
BRANCH  14  15
ATOM     15  C   UNL     1      -4.137  -3.545   0.000  0.00  0.00    +0.190 C 
ATOM     16  O   UNL     1      -4.891  -3.880   0.000  0.00  0.00    -0.220 OA
ENDBRANCH  14  15
ENDBRANCH  13  14
ENDBRANCH   9  10
ENDBRANCH   8   9
TORSDOF 7
