MODEL 1
REMARK VINA RESULT:     -11.7      0.000      0.000
REMARK  Name = 
REMARK  9 active torsions:
REMARK  status: ('A' for Active; 'I' for Inactive)
REMARK    1  A    between atoms: C_4  and  C_7
REMARK    2  A    between atoms: C_12  and  N_29
REMARK    3  A    between atoms: C_14  and  C_15
REMARK    4  A    between atoms: N_17  and  C_18
REMARK    5  A    between atoms: C_18  and  C_19
REMARK    6  A    between atoms: C_18  and  C_26
REMARK    7  A    between atoms: C_19  and  C_20
REMARK    8  A    between atoms: N_29  and  S_30
REMARK    9  A    between atoms: S_30  and  C_33
REMARK                            x       y       z     vdW  Elec       q    Type
REMARK                         _______ _______ _______ _____ _____    ______ ____
ROOT
ATOM      7  C   UNL     1      -1.860  -0.315  24.828  0.00  0.00    +0.268 C 
ATOM      8  O   UNL     1      -1.161   0.002  25.132  0.00  0.00    -0.268 OA
ATOM      9  N   UNL     1      -2.465   0.187  24.579  0.00  0.00    -0.268 N 
ATOM     10  C   UNL     1      -3.164  -0.129  24.276  0.00  0.00    +0.096 C 
ATOM     11  C   UNL     1      -3.770   0.373  24.027  0.00  0.00    +0.041 C 
ATOM     12  C   UNL     1      -3.677   1.191  24.081  0.00  0.00    +0.102 C 
ATOM     13  C   UNL     1      -2.978   1.507  24.385  0.00  0.00    +0.049 C 
ATOM     14  C   UNL     1      -2.372   1.004  24.634  0.00  0.00    +0.155 C 
ENDROOT
BRANCH   7   4
ATOM      1  C   UNL     1      -2.867  -3.011  25.214  0.00  0.00    +0.059 C 
ATOM      2  C   UNL     1      -2.416  -2.372  24.952  0.00  0.00    +0.089 A 
ATOM      3  N   UNL     1      -2.524  -1.583  25.164  0.00  0.00    -0.238 NA
ATOM      4  C   UNL     1      -1.953  -1.133  24.774  0.00  0.00    +0.141 A 
ATOM      5  C   UNL     1      -1.491  -1.645  24.321  0.00  0.00    +0.060 A 
ATOM      6  S   UNL     1      -1.777  -2.411  24.430  0.00  0.00    -0.070 S 
ENDBRANCH   7   4
BRANCH  14  15
ATOM     15  C   UNL     1      -1.673   1.321  24.937  0.00  0.00    +0.260 C 
ATOM     16  O   UNL     1      -1.296   0.955  25.573  0.00  0.00    -0.272 OA
ATOM     17  N   UNL     1      -1.351   2.004  24.604  0.00  0.00    -0.196 NA
BRANCH  17  18
ATOM     18  C   UNL     1      -0.652   2.321  24.907  0.00  0.00    +0.179 C 
BRANCH  18  26
ATOM     26  C   UNL     1       0.074   2.099  24.587  0.00  0.00    +0.281 C 
ATOM     27  N   UNL     1       0.705   1.913  25.084  0.00  0.00    -0.086 NA
ATOM     28  O   UNL     1       0.170   2.063  23.768  0.00  0.00    -0.270 OA
ENDBRANCH  18  26
BRANCH  18  19
ATOM     19  C   UNL     1      -0.682   2.860  25.532  0.00  0.00    +0.057 C 
BRANCH  19  20
ATOM     20  C   UNL     1      -0.931   3.634  25.396  0.00  0.00    -0.020 A 
ATOM     21  C   UNL     1      -0.511   4.118  24.878  0.00  0.00    -0.004 A 
ATOM     22  C   UNL     1      -0.761   4.893  24.742  0.00  0.00    -0.000 A 
ATOM     23  C   UNL     1      -1.431   5.183  25.126  0.00  0.00    -0.000 A 
ATOM     24  C   UNL     1      -1.852   4.699  25.644  0.00  0.00    -0.000 A 
ATOM     25  C   UNL     1      -1.602   3.924  25.780  0.00  0.00    -0.004 A 
ENDBRANCH  19  20
ENDBRANCH  18  19
ENDBRANCH  17  18
ENDBRANCH  14  15
BRANCH  12  29
ATOM     29  N   UNL     1      -4.282   1.692  23.832  0.00  0.00    -0.079 NA
BRANCH  29  30
ATOM     30  S   UNL     1      -4.732   2.104  24.389  0.00  0.00    +0.082 S 
ATOM     31  O   UNL     1      -5.075   1.396  24.635  0.00  0.00    -0.151 OA
ATOM     32  O   UNL     1      -4.389   2.812  24.141  0.00  0.00    -0.151 OA
BRANCH  30  33
ATOM     33  C   UNL     1      -5.181   2.515  24.944  0.00  0.00    +0.153 A 
ATOM     34  C   UNL     1      -5.079   3.305  25.162  0.00  0.00    +0.027 A 
ATOM     35  C   UNL     1      -5.647   3.487  25.733  0.00  0.00    +0.009 A 
ATOM     36  C   UNL     1      -6.099   2.811  25.867  0.00  0.00    +0.037 A 
ATOM     37  S   UNL     1      -5.812   2.210  25.380  0.00  0.00    -0.067 S 
ENDBRANCH  30  33
ENDBRANCH  29  30
ENDBRANCH  12  29
TORSDOF 9
ENDMDL
MODEL 2
REMARK VINA RESULT:     -11.6      1.793      3.842
REMARK  Name = 
REMARK  9 active torsions:
REMARK  status: ('A' for Active; 'I' for Inactive)
REMARK    1  A    between atoms: C_4  and  C_7
REMARK    2  A    between atoms: C_12  and  N_29
REMARK    3  A    between atoms: C_14  and  C_15
REMARK    4  A    between atoms: N_17  and  C_18
REMARK    5  A    between atoms: C_18  and  C_19
REMARK    6  A    between atoms: C_18  and  C_26
REMARK    7  A    between atoms: C_19  and  C_20
REMARK    8  A    between atoms: N_29  and  S_30
REMARK    9  A    between atoms: S_30  and  C_33
REMARK                            x       y       z     vdW  Elec       q    Type
REMARK                         _______ _______ _______ _____ _____    ______ ____
ROOT
ATOM      7  C   UNL     1      -0.470   1.279  24.015  0.00  0.00    +0.268 C 
ATOM      8  O   UNL     1      -0.722   2.056  23.893  0.00  0.00    -0.268 OA
ATOM      9  N   UNL     1      -0.960   0.746  24.412  0.00  0.00    -0.268 N 
ATOM     10  C   UNL     1      -0.708  -0.031  24.534  0.00  0.00    +0.096 C 
ATOM     11  C   UNL     1      -1.198  -0.564  24.931  0.00  0.00    +0.041 C 
ATOM     12  C   UNL     1      -1.937  -0.322  25.205  0.00  0.00    +0.102 C 
ATOM     13  C   UNL     1      -2.187   0.455  25.082  0.00  0.00    +0.049 C 
ATOM     14  C   UNL     1      -1.698   0.989  24.685  0.00  0.00    +0.155 C 
ENDROOT
BRANCH   7   4
ATOM      1  C   UNL     1       1.605  -0.051  22.480  0.00  0.00    +0.059 C 
ATOM      2  C   UNL     1       1.222   0.425  23.035  0.00  0.00    +0.089 A 
ATOM      3  N   UNL     1       0.407   0.509  23.121  0.00  0.00    -0.238 NA
ATOM      4  C   UNL     1       0.269   1.037  23.741  0.00  0.00    +0.141 A 
ATOM      5  C   UNL     1       0.999   1.279  24.037  0.00  0.00    +0.060 A 
ATOM      6  S   UNL     1       1.589   0.901  23.601  0.00  0.00    -0.070 S 
ENDBRANCH   7   4
BRANCH  14  15
ATOM     15  C   UNL     1      -1.949   1.765  24.563  0.00  0.00    +0.260 C 
ATOM     16  O   UNL     1      -1.690   2.184  23.902  0.00  0.00    -0.272 OA
ATOM     17  N   UNL     1      -2.460   2.123  25.104  0.00  0.00    -0.196 NA
BRANCH  17  18
ATOM     18  C   UNL     1      -2.711   2.899  24.982  0.00  0.00    +0.179 C 
BRANCH  18  26
ATOM     26  C   UNL     1      -2.315   3.523  25.348  0.00  0.00    +0.281 C 
ATOM     27  N   UNL     1      -2.145   4.209  24.923  0.00  0.00    -0.086 NA
ATOM     28  O   UNL     1      -2.089   3.461  26.139  0.00  0.00    -0.270 OA
ENDBRANCH  18  26
BRANCH  18  19
ATOM     19  C   UNL     1      -3.359   3.050  24.494  0.00  0.00    +0.057 C 
BRANCH  19  20
ATOM     20  C   UNL     1      -4.124   2.914  24.771  0.00  0.00    -0.020 A 
ATOM     21  C   UNL     1      -4.422   3.360  25.398  0.00  0.00    -0.004 A 
ATOM     22  C   UNL     1      -5.187   3.223  25.675  0.00  0.00    -0.000 A 
ATOM     23  C   UNL     1      -5.654   2.640  25.325  0.00  0.00    -0.000 A 
ATOM     24  C   UNL     1      -5.357   2.194  24.698  0.00  0.00    -0.000 A 
ATOM     25  C   UNL     1      -4.592   2.331  24.421  0.00  0.00    -0.004 A 
ENDBRANCH  19  20
ENDBRANCH  18  19
ENDBRANCH  17  18
ENDBRANCH  14  15
BRANCH  12  29
ATOM     29  N   UNL     1      -2.425  -0.855  25.601  0.00  0.00    -0.079 NA
BRANCH  29  30
ATOM     30  S   UNL     1      -2.919  -1.359  25.173  0.00  0.00    +0.082 S 
ATOM     31  O   UNL     1      -2.273  -1.836  24.989  0.00  0.00    -0.151 OA
ATOM     32  O   UNL     1      -3.566  -0.880  25.358  0.00  0.00    -0.151 OA
BRANCH  30  33
ATOM     33  C   UNL     1      -3.413  -1.861  24.746  0.00  0.00    +0.153 A 
ATOM     34  C   UNL     1      -4.032  -1.630  24.251  0.00  0.00    +0.027 A 
ATOM     35  C   UNL     1      -4.377  -2.310  23.937  0.00  0.00    +0.009 A 
ATOM     36  C   UNL     1      -3.971  -2.962  24.238  0.00  0.00    +0.037 A 
ATOM     37  S   UNL     1      -3.376  -2.686  24.737  0.00  0.00    -0.067 S 
ENDBRANCH  30  33
ENDBRANCH  29  30
ENDBRANCH  12  29
TORSDOF 9
ENDMDL
MODEL 3
REMARK VINA RESULT:     -11.1      1.827      3.949
REMARK  Name = 
REMARK  9 active torsions:
REMARK  status: ('A' for Active; 'I' for Inactive)
REMARK    1  A    between atoms: C_4  and  C_7
REMARK    2  A    between atoms: C_12  and  N_29
REMARK    3  A    between atoms: C_14  and  C_15
REMARK    4  A    between atoms: N_17  and  C_18
REMARK    5  A    between atoms: C_18  and  C_19
REMARK    6  A    between atoms: C_18  and  C_26
REMARK    7  A    between atoms: C_19  and  C_20
REMARK    8  A    between atoms: N_29  and  S_30
REMARK    9  A    between atoms: S_30  and  C_33
REMARK                            x       y       z     vdW  Elec       q    Type
REMARK                         _______ _______ _______ _____ _____    ______ ____
ROOT
ATOM      7  C   UNL     1      -0.973   0.221  24.033  0.00  0.00    +0.268 C 
ATOM      8  O   UNL     1      -1.673  -0.147  23.796  0.00  0.00    -0.268 OA
ATOM      9  N   UNL     1      -1.000   0.874  24.536  0.00  0.00    -0.268 N 
ATOM     10  C   UNL     1      -0.300   1.241  24.773  0.00  0.00    +0.096 C 
ATOM     11  C   UNL     1      -0.327   1.895  25.276  0.00  0.00    +0.041 C 
ATOM     12  C   UNL     1      -1.054   2.181  25.542  0.00  0.00    +0.102 C 
ATOM     13  C   UNL     1      -1.754   1.813  25.305  0.00  0.00    +0.049 C 
ATOM     14  C   UNL     1      -1.726   1.159  24.802  0.00  0.00    +0.155 C 
ENDROOT
BRANCH   7   4
ATOM      1  C   UNL     1       1.485  -0.090  22.518  0.00  0.00    +0.059 C 
ATOM      2  C   UNL     1       0.884  -0.208  23.070  0.00  0.00    +0.089 A 
ATOM      3  N   UNL     1       0.200   0.247  23.146  0.00  0.00    -0.238 NA
ATOM      4  C   UNL     1      -0.246  -0.065  23.766  0.00  0.00    +0.141 A 
ATOM      5  C   UNL     1       0.162  -0.714  24.073  0.00  0.00    +0.060 A 
ATOM      6  S   UNL     1       0.860  -0.802  23.642  0.00  0.00    -0.070 S 
ENDBRANCH   7   4
BRANCH  14  15
ATOM     15  C   UNL     1      -2.426   0.792  24.565  0.00  0.00    +0.260 C 
ATOM     16  O   UNL     1      -2.480   0.449  23.817  0.00  0.00    -0.272 OA
ATOM     17  N   UNL     1      -3.073   0.769  25.077  0.00  0.00    -0.196 NA
BRANCH  17  18
ATOM     18  C   UNL     1      -3.773   0.402  24.841  0.00  0.00    +0.179 C 
BRANCH  18  26
ATOM     26  C   UNL     1      -3.923  -0.380  25.057  0.00  0.00    +0.281 C 
ATOM     27  N   UNL     1      -4.219  -0.912  24.502  0.00  0.00    -0.086 NA
ATOM     28  O   UNL     1      -3.775  -0.629  25.831  0.00  0.00    -0.270 OA
ENDBRANCH  18  26
BRANCH  18  19
ATOM     19  C   UNL     1      -4.323   0.817  24.387  0.00  0.00    +0.057 C 
BRANCH  19  20
ATOM     20  C   UNL     1      -4.796   1.394  24.739  0.00  0.00    -0.020 A 
ATOM     21  C   UNL     1      -5.308   1.190  25.352  0.00  0.00    -0.004 A 
ATOM     22  C   UNL     1      -5.781   1.768  25.704  0.00  0.00    -0.000 A 
ATOM     23  C   UNL     1      -5.740   2.549  25.444  0.00  0.00    -0.000 A 
ATOM     24  C   UNL     1      -5.227   2.754  24.831  0.00  0.00    -0.000 A 
ATOM     25  C   UNL     1      -4.755   2.177  24.479  0.00  0.00    -0.004 A 
ENDBRANCH  19  20
ENDBRANCH  18  19
ENDBRANCH  17  18
ENDBRANCH  14  15
BRANCH  12  29
ATOM     29  N   UNL     1      -1.081   2.833  26.045  0.00  0.00    -0.079 NA
BRANCH  29  30
ATOM     30  S   UNL     1      -1.223   3.586  25.738  0.00  0.00    +0.082 S 
ATOM     31  O   UNL     1      -1.983   3.573  26.057  0.00  0.00    -0.151 OA
ATOM     32  O   UNL     1      -0.463   3.598  25.418  0.00  0.00    -0.151 OA
BRANCH  30  33
ATOM     33  C   UNL     1      -1.365   4.337  25.430  0.00  0.00    +0.153 A 
ATOM     34  C   UNL     1      -0.820   4.807  25.026  0.00  0.00    +0.027 A 
ATOM     35  C   UNL     1      -1.195   5.512  24.818  0.00  0.00    +0.009 A 
ATOM     36  C   UNL     1      -1.971   5.478  25.094  0.00  0.00    +0.037 A 
ATOM     37  S   UNL     1      -2.077   4.753  25.472  0.00  0.00    -0.067 S 
ENDBRANCH  30  33
ENDBRANCH  29  30
ENDBRANCH  12  29
TORSDOF 9
ENDMDL
MODEL 4
REMARK VINA RESULT:     -10.4      1.346      4.100
REMARK  Name = 
REMARK  9 active torsions:
REMARK  status: ('A' for Active; 'I' for Inactive)
REMARK    1  A    between atoms: C_4  and  C_7
REMARK    2  A    between atoms: C_12  and  N_29
REMARK    3  A    between atoms: C_14  and  C_15
REMARK    4  A    between atoms: N_17  and  C_18
REMARK    5  A    between atoms: C_18  and  C_19
REMARK    6  A    between atoms: C_18  and  C_26
REMARK    7  A    between atoms: C_19  and  C_20
REMARK    8  A    between atoms: N_29  and  S_30
REMARK    9  A    between atoms: S_30  and  C_33
REMARK                            x       y       z     vdW  Elec       q    Type
REMARK                         _______ _______ _______ _____ _____    ______ ____
ROOT
ATOM      7  C   UNL     1      -1.258   2.432  24.699  0.00  0.00    +0.268 C 
ATOM      8  O   UNL     1      -0.775   1.806  24.936  0.00  0.00    -0.268 OA
ATOM      9  N   UNL     1      -2.056   2.298  24.537  0.00  0.00    -0.268 N 
ATOM     10  C   UNL     1      -2.539   2.923  24.299  0.00  0.00    +0.096 C 
ATOM     11  C   UNL     1      -3.337   2.790  24.137  0.00  0.00    +0.041 C 
ATOM     12  C   UNL     1      -3.652   2.031  24.213  0.00  0.00    +0.102 C 
ATOM     13  C   UNL     1      -3.169   1.406  24.451  0.00  0.00    +0.049 C 
ATOM     14  C   UNL     1      -2.371   1.540  24.613  0.00  0.00    +0.155 C 
ENDROOT
BRANCH   7   4
ATOM      1  C   UNL     1      -0.736   5.259  25.107  0.00  0.00    +0.059 C 
ATOM      2  C   UNL     1      -0.703   4.490  24.811  0.00  0.00    +0.089 A 
ATOM      3  N   UNL     1      -1.154   3.850  25.070  0.00  0.00    -0.238 NA
ATOM      4  C   UNL     1      -0.943   3.190  24.622  0.00  0.00    +0.141 A 
ATOM      5  C   UNL     1      -0.361   3.422  24.085  0.00  0.00    +0.060 A 
ATOM      6  S   UNL     1      -0.212   4.225  24.201  0.00  0.00    -0.070 S 
ENDBRANCH   7   4
BRANCH  14  15
ATOM     15  C   UNL     1      -1.888   0.914  24.851  0.00  0.00    +0.260 C 
ATOM     16  O   UNL     1      -1.361   1.014  25.477  0.00  0.00    -0.272 OA
ATOM     17  N   UNL     1      -1.933   0.188  24.461  0.00  0.00    -0.196 NA
BRANCH  17  18
ATOM     18  C   UNL     1      -1.451  -0.438  24.699  0.00  0.00    +0.179 C 
BRANCH  18  26
ATOM     26  C   UNL     1      -0.729  -0.569  24.322  0.00  0.00    +0.281 C 
ATOM     27  N   UNL     1      -0.066  -0.782  24.763  0.00  0.00    -0.086 NA
ATOM     28  O   UNL     1      -0.671  -0.486  23.503  0.00  0.00    -0.270 OA
ENDBRANCH  18  26
BRANCH  18  19
ATOM     19  C   UNL     1      -1.691  -0.932  25.315  0.00  0.00    +0.057 C 
BRANCH  19  20
ATOM     20  C   UNL     1      -2.279  -1.497  25.184  0.00  0.00    -0.020 A 
ATOM     21  C   UNL     1      -2.170  -2.081  24.612  0.00  0.00    -0.004 A 
ATOM     22  C   UNL     1      -2.758  -2.646  24.482  0.00  0.00    -0.000 A 
ATOM     23  C   UNL     1      -3.455  -2.624  24.923  0.00  0.00    -0.000 A 
ATOM     24  C   UNL     1      -3.564  -2.040  25.494  0.00  0.00    -0.000 A 
ATOM     25  C   UNL     1      -2.976  -1.475  25.625  0.00  0.00    -0.004 A 
ENDBRANCH  19  20
ENDBRANCH  18  19
ENDBRANCH  17  18
ENDBRANCH  14  15
BRANCH  12  29
ATOM     29  N   UNL     1      -4.450   1.898  24.052  0.00  0.00    -0.079 NA
BRANCH  29  30
ATOM     30  S   UNL     1      -5.006   1.937  24.660  0.00  0.00    +0.082 S 
ATOM     31  O   UNL     1      -4.988   2.761  24.623  0.00  0.00    -0.151 OA
ATOM     32  O   UNL     1      -5.024   1.113  24.696  0.00  0.00    -0.151 OA
BRANCH  30  33
ATOM     33  C   UNL     1      -5.562   1.976  25.268  0.00  0.00    +0.153 A 
ATOM     34  C   UNL     1      -5.951   1.335  25.612  0.00  0.00    +0.027 A 
ATOM     35  C   UNL     1      -6.456   1.626  26.195  0.00  0.00    +0.009 A 
ATOM     36  C   UNL     1      -6.380   2.446  26.212  0.00  0.00    +0.037 A 
ATOM     37  S   UNL     1      -5.828   2.663  25.639  0.00  0.00    -0.067 S 
ENDBRANCH  30  33
ENDBRANCH  29  30
ENDBRANCH  12  29
TORSDOF 9
ENDMDL
MODEL 5
REMARK VINA RESULT:     -10.2      1.870      4.282
REMARK  Name = 
REMARK  9 active torsions:
REMARK  status: ('A' for Active; 'I' for Inactive)
REMARK    1  A    between atoms: C_4  and  C_7
REMARK    2  A    between atoms: C_12  and  N_29
REMARK    3  A    between atoms: C_14  and  C_15
REMARK    4  A    between atoms: N_17  and  C_18
REMARK    5  A    between atoms: C_18  and  C_19
REMARK    6  A    between atoms: C_18  and  C_26
REMARK    7  A    between atoms: C_19  and  C_20
REMARK    8  A    between atoms: N_29  and  S_30
REMARK    9  A    between atoms: S_30  and  C_33
REMARK                            x       y       z     vdW  Elec       q    Type
REMARK                         _______ _______ _______ _____ _____    ______ ____
ROOT
ATOM      7  C   UNL     1      -0.524   0.196  24.096  0.00  0.00    +0.268 C 
ATOM      8  O   UNL     1      -0.697  -0.485  24.529  0.00  0.00    -0.268 OA
ATOM      9  N   UNL     1      -1.081   0.802  24.040  0.00  0.00    -0.268 N 
ATOM     10  C   UNL     1      -0.908   1.482  23.606  0.00  0.00    +0.096 C 
ATOM     11  C   UNL     1      -1.465   2.088  23.550  0.00  0.00    +0.041 C 
ATOM     12  C   UNL     1      -2.195   2.014  23.927  0.00  0.00    +0.102 C 
ATOM     13  C   UNL     1      -2.368   1.334  24.361  0.00  0.00    +0.049 C 
ATOM     14  C   UNL     1      -1.810   0.727  24.417  0.00  0.00    +0.155 C 
ENDROOT
BRANCH   7   4
ATOM      1  C   UNL     1       1.675  -0.184  22.237  0.00  0.00    +0.059 C 
ATOM      2  C   UNL     1       1.216   0.094  22.864  0.00  0.00    +0.089 A 
ATOM      3  N   UNL     1       0.453  -0.153  23.054  0.00  0.00    -0.238 NA
ATOM      4  C   UNL     1       0.206   0.269  23.718  0.00  0.00    +0.141 A 
ATOM      5  C   UNL     1       0.816   0.778  23.939  0.00  0.00    +0.060 A 
ATOM      6  S   UNL     1       1.441   0.670  23.410  0.00  0.00    -0.070 S 
ENDBRANCH   7   4
BRANCH  14  15
ATOM     15  C   UNL     1      -1.984   0.047  24.851  0.00  0.00    +0.260 C 
ATOM     16  O   UNL     1      -1.414  -0.281  25.349  0.00  0.00    -0.272 OA
ATOM     17  N   UNL     1      -2.728  -0.304  24.785  0.00  0.00    -0.196 NA
BRANCH  17  18
ATOM     18  C   UNL     1      -2.901  -0.984  25.219  0.00  0.00    +0.179 C 
BRANCH  18  26
ATOM     26  C   UNL     1      -3.238  -0.921  25.969  0.00  0.00    +0.281 C 
ATOM     27  N   UNL     1      -2.894  -1.310  26.610  0.00  0.00    -0.086 NA
ATOM     28  O   UNL     1      -3.919  -0.467  26.078  0.00  0.00    -0.270 OA
ENDBRANCH  18  26
BRANCH  18  19
ATOM     19  C   UNL     1      -2.738  -1.729  24.901  0.00  0.00    +0.057 C 
BRANCH  19  20
ATOM     20  C   UNL     1      -3.319  -2.131  24.475  0.00  0.00    -0.020 A 
ATOM     21  C   UNL     1      -3.826  -1.715  23.975  0.00  0.00    -0.004 A 
ATOM     22  C   UNL     1      -4.407  -2.119  23.549  0.00  0.00    -0.000 A 
ATOM     23  C   UNL     1      -4.480  -2.937  23.624  0.00  0.00    -0.000 A 
ATOM     24  C   UNL     1      -3.972  -3.352  24.124  0.00  0.00    -0.000 A 
ATOM     25  C   UNL     1      -3.392  -2.950  24.550  0.00  0.00    -0.004 A 
ENDBRANCH  19  20
ENDBRANCH  18  19
ENDBRANCH  17  18
ENDBRANCH  14  15
BRANCH  12  29
ATOM     29  N   UNL     1      -2.751   2.620  23.871  0.00  0.00    -0.079 NA
BRANCH  29  30
ATOM     30  S   UNL     1      -2.908   3.099  24.526  0.00  0.00    +0.082 S 
ATOM     31  O   UNL     1      -2.177   3.468  24.430  0.00  0.00    -0.151 OA
ATOM     32  O   UNL     1      -3.639   2.728  24.620  0.00  0.00    -0.151 OA
BRANCH  30  33
ATOM     33  C   UNL     1      -3.065   3.576  25.179  0.00  0.00    +0.153 A 
ATOM     34  C   UNL     1      -2.533   4.092  25.542  0.00  0.00    +0.027 A 
ATOM     35  C   UNL     1      -2.921   4.457  26.172  0.00  0.00    +0.009 A 
ATOM     36  C   UNL     1      -3.692   4.166  26.198  0.00  0.00    +0.037 A 
ATOM     37  S   UNL     1      -3.782   3.623  25.585  0.00  0.00    -0.067 S 
ENDBRANCH  30  33
ENDBRANCH  29  30
ENDBRANCH  12  29
TORSDOF 9
ENDMDL
