MODEL 1
REMARK VINA RESULT:      -8.6      0.000      0.000
REMARK  Name = 
REMARK  6 active torsions:
REMARK  status: ('A' for Active; 'I' for Inactive)
REMARK    1  A    between atoms: C_2  and  C_3
REMARK    2  A    between atoms: C_3  and  N_4
REMARK    3  A    between atoms: C_5  and  O_7
REMARK    4  A    between atoms: O_7  and  C_8
REMARK    5  A    between atoms: C_8  and  C_9
REMARK    6  A    between atoms: C_16  and  C_17
REMARK                            x       y       z     vdW  Elec       q    Type
REMARK                         _______ _______ _______ _____ _____    ______ ____
ROOT
ATOM      9  C   UNL     1      -3.679   0.694  24.783  0.00  0.00    +0.102 C 
ATOM     10  C   UNL     1      -3.599   0.078  25.251  0.00  0.00    +0.021 C 
ATOM     11  C   UNL     1      -3.700  -0.696  25.035  0.00  0.00    +0.016 C 
ATOM     12  C   UNL     1      -3.561  -1.255  25.722  0.00  0.00    +0.018 C 
ATOM     13  C   UNL     1      -3.600  -0.674  25.427  0.00  0.00    +0.072 C 
ATOM     14  N   UNL     1      -3.780  -0.097  24.570  0.00  0.00    -0.270 NA
ATOM     15  C   UNL     1      -4.003  -0.493  23.778  0.00  0.00    +0.085 C 
ATOM     16  C   UNL     1      -3.914  -1.069  24.270  0.00  0.00    +0.081 C 
ENDROOT
BRANCH  16  17
ATOM     17  C   UNL     1      -4.002  -1.875  24.116  0.00  0.00    -0.078 C 
ATOM     18  C   UNL     1      -4.089  -2.680  23.961  0.00  0.00    -0.014 C 
ENDBRANCH  16  17
BRANCH   9   8
ATOM      8  C   UNL     1      -3.670   1.503  24.623  0.00  0.00    +0.226 C 
BRANCH   8   7
ATOM      7  O   UNL     1      -3.275   2.020  25.130  0.00  0.00    -0.432 OA
BRANCH   7   5
ATOM      4  N   UNL     1      -2.563   3.254  25.239  0.00  0.00    -0.169 NA
ATOM      5  C   UNL     1      -3.184   2.813  24.922  0.00  0.00    +0.421 C 
ATOM      6  O   UNL     1      -3.714   3.165  24.397  0.00  0.00    -0.225 OA
BRANCH   4   3
ATOM      3  C   UNL     1      -2.472   4.046  25.031  0.00  0.00    +0.119 C 
BRANCH   3   2
ATOM      1  C   UNL     1      -1.415   5.007  25.089  0.00  0.00    +0.002 C 
ATOM      2  C   UNL     1      -1.973   4.533  25.472  0.00  0.00    +0.024 C 
ENDBRANCH   3   2
ENDBRANCH   4   3
ENDBRANCH   7   5
ENDBRANCH   8   7
ENDBRANCH   9   8
TORSDOF 6
ENDMDL
MODEL 2
REMARK VINA RESULT:      -7.9      0.984      4.885
REMARK  Name = 
REMARK  6 active torsions:
REMARK  status: ('A' for Active; 'I' for Inactive)
REMARK    1  A    between atoms: C_2  and  C_3
REMARK    2  A    between atoms: C_3  and  N_4
REMARK    3  A    between atoms: C_5  and  O_7
REMARK    4  A    between atoms: O_7  and  C_8
REMARK    5  A    between atoms: C_8  and  C_9
REMARK    6  A    between atoms: C_16  and  C_17
REMARK                            x       y       z     vdW  Elec       q    Type
REMARK                         _______ _______ _______ _____ _____    ______ ____
ROOT
ATOM      9  C   UNL     1      -2.665   2.162  24.997  0.00  0.00    +0.102 C 
ATOM     10  C   UNL     1      -1.961   2.371  25.253  0.00  0.00    +0.021 C 
ATOM     11  C   UNL     1      -1.672   3.127  25.273  0.00  0.00    +0.016 C 
ATOM     12  C   UNL     1      -0.839   3.157  25.604  0.00  0.00    +0.018 C 
ATOM     13  C   UNL     1      -1.395   2.870  25.417  0.00  0.00    +0.072 C 
ATOM     14  N   UNL     1      -2.363   2.930  25.020  0.00  0.00    -0.270 NA
ATOM     15  C   UNL     1      -2.719   3.733  24.773  0.00  0.00    +0.085 C 
ATOM     16  C   UNL     1      -2.020   3.897  25.034  0.00  0.00    +0.081 C 
ENDROOT
BRANCH  16  17
ATOM     17  C   UNL     1      -1.666   4.641  25.081  0.00  0.00    -0.078 C 
ATOM     18  C   UNL     1      -1.313   5.384  25.127  0.00  0.00    -0.014 C 
ENDBRANCH  16  17
BRANCH   9   8
ATOM      8  C   UNL     1      -3.253   1.608  24.831  0.00  0.00    +0.226 C 
BRANCH   8   7
ATOM      7  O   UNL     1      -3.102   0.803  24.931  0.00  0.00    -0.432 OA
BRANCH   7   5
ATOM      4  N   UNL     1      -3.467  -0.528  24.563  0.00  0.00    -0.169 NA
ATOM      5  C   UNL     1      -3.682   0.248  24.742  0.00  0.00    +0.421 C 
ATOM      6  O   UNL     1      -4.477   0.469  24.731  0.00  0.00    -0.225 OA
BRANCH   4   3
ATOM      3  C   UNL     1      -4.047  -1.083  24.373  0.00  0.00    +0.119 C 
BRANCH   3   2
ATOM      1  C   UNL     1      -4.218  -2.386  23.813  0.00  0.00    +0.002 C 
ATOM      2  C   UNL     1      -3.861  -1.887  24.365  0.00  0.00    +0.024 C 
ENDBRANCH   3   2
ENDBRANCH   4   3
ENDBRANCH   7   5
ENDBRANCH   8   7
ENDBRANCH   9   8
TORSDOF 6
ENDMDL
MODEL 3
REMARK VINA RESULT:      -7.6      2.343      5.175
REMARK  Name = 
REMARK  6 active torsions:
REMARK  status: ('A' for Active; 'I' for Inactive)
REMARK    1  A    between atoms: C_2  and  C_3
REMARK    2  A    between atoms: C_3  and  N_4
REMARK    3  A    between atoms: C_5  and  O_7
REMARK    4  A    between atoms: O_7  and  C_8
REMARK    5  A    between atoms: C_8  and  C_9
REMARK    6  A    between atoms: C_16  and  C_17
REMARK                            x       y       z     vdW  Elec       q    Type
REMARK                         _______ _______ _______ _____ _____    ______ ____
ROOT
ATOM      9  C   UNL     1      -0.868   1.100  25.041  0.00  0.00    +0.102 C 
ATOM     10  C   UNL     1      -0.555   1.571  25.575  0.00  0.00    +0.021 C 
ATOM     11  C   UNL     1      -0.578   2.381  25.562  0.00  0.00    +0.016 C 
ATOM     12  C   UNL     1      -0.159   2.739  26.269  0.00  0.00    +0.018 C 
ATOM     13  C   UNL     1      -0.378   2.254  25.890  0.00  0.00    +0.072 C 
ATOM     14  N   UNL     1      -0.887   1.925  25.034  0.00  0.00    -0.270 NA
ATOM     15  C   UNL     1      -1.250   2.522  24.447  0.00  0.00    +0.085 C 
ATOM     16  C   UNL     1      -0.930   2.949  24.993  0.00  0.00    +0.081 C 
ENDROOT
BRANCH  16  17
ATOM     17  C   UNL     1      -0.917   3.774  25.039  0.00  0.00    -0.078 C 
ATOM     18  C   UNL     1      -0.904   4.596  25.085  0.00  0.00    -0.014 C 
ENDBRANCH  16  17
BRANCH   9   8
ATOM      8  C   UNL     1      -1.044   0.358  24.727  0.00  0.00    +0.226 C 
BRANCH   8   7
ATOM      7  O   UNL     1      -1.312  -0.246  25.221  0.00  0.00    -0.432 OA
BRANCH   7   5
ATOM      4  N   UNL     1      -2.303  -1.263  25.062  0.00  0.00    -0.169 NA
ATOM      5  C   UNL     1      -1.551  -0.967  24.898  0.00  0.00    +0.421 C 
ATOM      6  O   UNL     1      -1.038  -1.391  24.412  0.00  0.00    -0.225 OA
BRANCH   4   3
ATOM      3  C   UNL     1      -2.543  -1.983  24.740  0.00  0.00    +0.119 C 
BRANCH   3   2
ATOM      1  C   UNL     1      -3.700  -2.757  24.418  0.00  0.00    +0.002 C 
ATOM      2  C   UNL     1      -3.264  -2.315  24.962  0.00  0.00    +0.024 C 
ENDBRANCH   3   2
ENDBRANCH   4   3
ENDBRANCH   7   5
ENDBRANCH   8   7
ENDBRANCH   9   8
TORSDOF 6
ENDMDL
MODEL 4
REMARK VINA RESULT:      -7.5      2.016      2.218
REMARK  Name = 
REMARK  6 active torsions:
REMARK  status: ('A' for Active; 'I' for Inactive)
REMARK    1  A    between atoms: C_2  and  C_3
REMARK    2  A    between atoms: C_3  and  N_4
REMARK    3  A    between atoms: C_5  and  O_7
REMARK    4  A    between atoms: O_7  and  C_8
REMARK    5  A    between atoms: C_8  and  C_9
REMARK    6  A    between atoms: C_16  and  C_17
REMARK                            x       y       z     vdW  Elec       q    Type
REMARK                         _______ _______ _______ _____ _____    ______ ____
ROOT
ATOM      9  C   UNL     1      -1.381  -0.045  25.427  0.00  0.00    +0.102 C 
ATOM     10  C   UNL     1      -1.216  -0.729  25.095  0.00  0.00    +0.021 C 
ATOM     11  C   UNL     1      -1.747  -1.323  24.948  0.00  0.00    +0.016 C 
ATOM     12  C   UNL     1      -1.357  -2.030  24.558  0.00  0.00    +0.018 C 
ATOM     13  C   UNL     1      -1.378  -1.433  24.822  0.00  0.00    +0.072 C 
ATOM     14  N   UNL     1      -1.916  -0.655  25.274  0.00  0.00    -0.270 NA
ATOM     15  C   UNL     1      -2.812  -0.733  25.427  0.00  0.00    +0.085 C 
ATOM     16  C   UNL     1      -2.609  -1.391  25.098  0.00  0.00    +0.081 C 
ENDROOT
BRANCH  16  17
ATOM     17  C   UNL     1      -3.097  -2.032  24.921  0.00  0.00    -0.078 C 
ATOM     18  C   UNL     1      -3.585  -2.673  24.745  0.00  0.00    -0.014 C 
ENDBRANCH  16  17
BRANCH   9   8
ATOM      8  C   UNL     1      -1.179   0.703  25.710  0.00  0.00    +0.226 C 
BRANCH   8   7
ATOM      7  O   UNL     1      -0.814   1.248  25.211  0.00  0.00    -0.432 OA
BRANCH   7   5
ATOM      4  N   UNL     1      -0.986   2.661  25.084  0.00  0.00    -0.169 NA
ATOM      5  C   UNL     1      -0.661   2.014  25.479  0.00  0.00    +0.421 C 
ATOM      6  O   UNL     1      -0.184   2.132  26.141  0.00  0.00    -0.225 OA
BRANCH   4   3
ATOM      3  C   UNL     1      -0.834   3.426  25.351  0.00  0.00    +0.119 C 
BRANCH   3   2
ATOM      1  C   UNL     1      -0.956   4.811  25.020  0.00  0.00    +0.002 C 
ATOM      2  C   UNL     1      -1.288   4.057  25.076  0.00  0.00    +0.024 C 
ENDBRANCH   3   2
ENDBRANCH   4   3
ENDBRANCH   7   5
ENDBRANCH   8   7
ENDBRANCH   9   8
TORSDOF 6
ENDMDL
