MODEL 1
REMARK VINA RESULT:     -10.2      0.000      0.000
REMARK  Name = 
REMARK  7 active torsions:
REMARK  status: ('A' for Active; 'I' for Inactive)
REMARK    1  A    between atoms: C_2  and  C_4
REMARK    2  A    between atoms: C_4  and  C_5
REMARK    3  A    between atoms: C_4  and  N_15
REMARK    4  A    between atoms: C_5  and  C_6
REMARK    5  A    between atoms: C_16  and  C_18
REMARK    6  A    between atoms: C_24  and  C_26
REMARK    7  A    between atoms: C_32  and  C_34
REMARK                            x       y       z     vdW  Elec       q    Type
REMARK                         _______ _______ _______ _____ _____    ______ ____
ROOT
ATOM     18  C   UNL     1      -1.767   0.993  24.454  0.00  0.00    +0.174 C 
ATOM     19  C   UNL     1      -2.473   0.653  24.712  0.00  0.00    +0.123 C 
ATOM     20  N   UNL     1      -2.591  -0.160  24.638  0.00  0.00    -0.276 N 
ATOM     21  C   UNL     1      -2.004  -0.634  24.306  0.00  0.00    +0.115 C 
ATOM     22  C   UNL     1      -1.297  -0.294  24.048  0.00  0.00    +0.115 C 
ATOM     23  N   UNL     1      -1.179   0.519  24.121  0.00  0.00    -0.270 N 
ATOM     24  C   UNL     1      -0.473   0.859  23.863  0.00  0.00    +0.226 C 
ATOM     25  O   UNL     1      -0.355   1.672  23.937  0.00  0.00    -0.275 OA
ATOM     32  C   UNL     1      -3.298  -0.499  24.897  0.00  0.00    +0.225 C 
ATOM     33  O   UNL     1      -3.886  -0.026  25.229  0.00  0.00    -0.275 OA
ENDROOT
BRANCH  24  26
ATOM     26  C   UNL     1       0.115   0.385  23.531  0.00  0.00    +0.080 C 
ATOM     27  C   UNL     1       0.148   0.281  22.712  0.00  0.00    +0.028 C 
ATOM     28  C   UNL     1       0.736  -0.193  22.380  0.00  0.00    +0.089 C 
ATOM     29  N   UNL     1       1.291  -0.562  22.866  0.00  0.00    -0.218 NA
ATOM     30  C   UNL     1       1.258  -0.459  23.683  0.00  0.00    +0.089 C 
ATOM     31  C   UNL     1       0.670   0.015  24.015  0.00  0.00    +0.028 C 
ENDBRANCH  24  26
BRANCH  32  34
ATOM     34  C   UNL     1      -3.416  -1.313  24.823  0.00  0.00    +0.080 C 
ATOM     35  C   UNL     1      -3.173  -1.821  25.426  0.00  0.00    +0.028 C 
ATOM     36  C   UNL     1      -3.291  -2.634  25.352  0.00  0.00    +0.089 C 
ATOM     37  N   UNL     1      -3.652  -2.939  24.675  0.00  0.00    -0.218 NA
ATOM     38  C   UNL     1      -3.894  -2.430  24.073  0.00  0.00    +0.089 C 
ATOM     39  C   UNL     1      -3.777  -1.617  24.147  0.00  0.00    +0.028 C 
ENDBRANCH  32  34
BRANCH  18  16
ATOM     15  N   UNL     1      -1.809   2.183  25.244  0.00  0.00    -0.196 NA
ATOM     16  C   UNL     1      -1.649   1.806  24.528  0.00  0.00    +0.262 C 
ATOM     17  O   UNL     1      -1.371   2.242  23.885  0.00  0.00    -0.271 OA
BRANCH  15   4
ATOM      4  C   UNL     1      -1.691   2.996  25.318  0.00  0.00    +0.179 C 
BRANCH   4   2
ATOM      1  N   UNL     1      -0.595   3.912  25.283  0.00  0.00    -0.086 NA
ATOM      2  C   UNL     1      -0.987   3.282  25.641  0.00  0.00    +0.281 C 
ATOM      3  O   UNL     1      -0.676   2.935  26.323  0.00  0.00    -0.270 OA
ENDBRANCH   4   2
BRANCH   4   5
ATOM      5  C   UNL     1      -2.275   3.523  25.069  0.00  0.00    +0.059 C 
BRANCH   5   6
ATOM      6  C   UNL     1      -2.920   3.683  25.556  0.00  0.00    +0.001 A 
ATOM      7  C   UNL     1      -2.889   3.850  26.364  0.00  0.00    +0.095 A 
ATOM      8  N   UNL     1      -3.660   3.975  26.629  0.00  0.00    -0.244 NA
ATOM      9  C   UNL     1      -4.168   3.886  25.985  0.00  0.00    +0.081 A 
ATOM     10  C   UNL     1      -3.711   3.706  25.322  0.00  0.00    +0.015 A 
ATOM     11  C   UNL     1      -4.074   3.585  24.592  0.00  0.00    +0.001 A 
ATOM     12  C   UNL     1      -4.894   3.645  24.523  0.00  0.00    +0.000 A 
ATOM     13  C   UNL     1      -5.351   3.826  25.186  0.00  0.00    +0.002 A 
ATOM     14  C   UNL     1      -4.988   3.946  25.917  0.00  0.00    +0.019 A 
ENDBRANCH   5   6
ENDBRANCH   4   5
ENDBRANCH  15   4
ENDBRANCH  18  16
TORSDOF 7
ENDMDL
MODEL 2
REMARK VINA RESULT:     -10.0      1.639      4.721
REMARK  Name = 
REMARK  7 active torsions:
REMARK  status: ('A' for Active; 'I' for Inactive)
REMARK    1  A    between atoms: C_2  and  C_4
REMARK    2  A    between atoms: C_4  and  C_5
REMARK    3  A    between atoms: C_4  and  N_15
REMARK    4  A    between atoms: C_5  and  C_6
REMARK    5  A    between atoms: C_16  and  C_18
REMARK    6  A    between atoms: C_24  and  C_26
REMARK    7  A    between atoms: C_32  and  C_34
REMARK                            x       y       z     vdW  Elec       q    Type
REMARK                         _______ _______ _______ _____ _____    ______ ____
ROOT
ATOM     18  C   UNL     1      -1.398   0.959  24.466  0.00  0.00    +0.174 C 
ATOM     19  C   UNL     1      -1.006   0.326  24.110  0.00  0.00    +0.123 C 
ATOM     20  N   UNL     1      -0.251   0.434  23.793  0.00  0.00    -0.276 N 
ATOM     21  C   UNL     1       0.111   1.174  23.832  0.00  0.00    +0.115 C 
ATOM     22  C   UNL     1      -0.281   1.806  24.188  0.00  0.00    +0.115 C 
ATOM     23  N   UNL     1      -1.035   1.699  24.505  0.00  0.00    -0.270 N 
ATOM     24  C   UNL     1      -1.427   2.332  24.861  0.00  0.00    +0.226 C 
ATOM     25  O   UNL     1      -2.181   2.225  25.177  0.00  0.00    -0.275 OA
ATOM     32  C   UNL     1       0.140  -0.200  23.437  0.00  0.00    +0.225 C 
ATOM     33  O   UNL     1      -0.222  -0.940  23.398  0.00  0.00    -0.275 OA
ENDROOT
BRANCH  24  26
ATOM     26  C   UNL     1      -1.064   3.072  24.900  0.00  0.00    +0.080 C 
ATOM     27  C   UNL     1      -0.562   3.253  25.529  0.00  0.00    +0.028 C 
ATOM     28  C   UNL     1      -0.199   3.993  25.569  0.00  0.00    +0.089 C 
ATOM     29  N   UNL     1      -0.339   4.552  24.978  0.00  0.00    -0.218 NA
ATOM     30  C   UNL     1      -0.841   4.372  24.350  0.00  0.00    +0.089 C 
ATOM     31  C   UNL     1      -1.204   3.632  24.310  0.00  0.00    +0.028 C 
ENDBRANCH  24  26
BRANCH  32  34
ATOM     34  C   UNL     1       0.895  -0.092  23.120  0.00  0.00    +0.080 C 
ATOM     35  C   UNL     1       0.999  -0.069  22.302  0.00  0.00    +0.028 C 
ATOM     36  C   UNL     1       1.753   0.038  21.986  0.00  0.00    +0.089 C 
ATOM     37  N   UNL     1       2.403   0.122  22.487  0.00  0.00    -0.218 NA
ATOM     38  C   UNL     1       2.298   0.099  23.305  0.00  0.00    +0.089 C 
ATOM     39  C   UNL     1       1.544  -0.008  23.622  0.00  0.00    +0.028 C 
ENDBRANCH  32  34
BRANCH  18  16
ATOM     15  N   UNL     1      -2.768   0.590  24.301  0.00  0.00    -0.196 NA
ATOM     16  C   UNL     1      -2.152   0.852  24.782  0.00  0.00    +0.262 C 
ATOM     17  O   UNL     1      -2.289   1.008  25.580  0.00  0.00    -0.271 OA
BRANCH  15   4
ATOM      4  C   UNL     1      -3.522   0.483  24.617  0.00  0.00    +0.179 C 
BRANCH   4   2
ATOM      1  N   UNL     1      -4.551   1.286  25.200  0.00  0.00    -0.086 NA
ATOM      2  C   UNL     1      -4.086   1.083  24.551  0.00  0.00    +0.281 C 
ATOM      3  O   UNL     1      -4.182   1.479  23.832  0.00  0.00    -0.270 OA
ENDBRANCH   4   2
BRANCH   4   5
ATOM      5  C   UNL     1      -3.713  -0.222  25.000  0.00  0.00    +0.059 C 
BRANCH   5   6
ATOM      6  C   UNL     1      -3.886  -0.898  24.559  0.00  0.00    +0.001 A 
ATOM      7  C   UNL     1      -4.268  -0.915  23.827  0.00  0.00    +0.095 A 
ATOM      8  N   UNL     1      -4.325  -1.702  23.589  0.00  0.00    -0.244 NA
ATOM      9  C   UNL     1      -3.979  -2.171  24.172  0.00  0.00    +0.081 A 
ATOM     10  C   UNL     1      -3.708  -1.674  24.772  0.00  0.00    +0.015 A 
ATOM     11  C   UNL     1      -3.334  -1.994  25.434  0.00  0.00    +0.001 A 
ATOM     12  C   UNL     1      -3.231  -2.809  25.497  0.00  0.00    +0.000 A 
ATOM     13  C   UNL     1      -3.502  -3.306  24.897  0.00  0.00    +0.002 A 
ATOM     14  C   UNL     1      -3.876  -2.988  24.234  0.00  0.00    +0.019 A 
ENDBRANCH   5   6
ENDBRANCH   4   5
ENDBRANCH  15   4
ENDBRANCH  18  16
TORSDOF 7
ENDMDL
MODEL 3
REMARK VINA RESULT:      -9.9      1.695      3.844
REMARK  Name = 
REMARK  7 active torsions:
REMARK  status: ('A' for Active; 'I' for Inactive)
REMARK    1  A    between atoms: C_2  and  C_4
REMARK    2  A    between atoms: C_4  and  C_5
REMARK    3  A    between atoms: C_4  and  N_15
REMARK    4  A    between atoms: C_5  and  C_6
REMARK    5  A    between atoms: C_16  and  C_18
REMARK    6  A    between atoms: C_24  and  C_26
REMARK    7  A    between atoms: C_32  and  C_34
REMARK                            x       y       z     vdW  Elec       q    Type
REMARK                         _______ _______ _______ _____ _____    ______ ____
ROOT
ATOM     18  C   UNL     1      -2.973   0.616  24.557  0.00  0.00    +0.174 C 
ATOM     19  C   UNL     1      -3.374   1.307  24.760  0.00  0.00    +0.123 C 
ATOM     20  N   UNL     1      -4.179   1.279  24.944  0.00  0.00    -0.276 N 
ATOM     21  C   UNL     1      -4.581   0.560  24.923  0.00  0.00    +0.115 C 
ATOM     22  C   UNL     1      -4.180  -0.132  24.720  0.00  0.00    +0.115 C 
ATOM     23  N   UNL     1      -3.377  -0.104  24.537  0.00  0.00    -0.270 N 
ATOM     24  C   UNL     1      -2.975  -0.796  24.333  0.00  0.00    +0.226 C 
ATOM     25  O   UNL     1      -2.171  -0.768  24.150  0.00  0.00    -0.275 OA
ATOM     32  C   UNL     1      -4.579   1.971  25.147  0.00  0.00    +0.225 C 
ATOM     33  O   UNL     1      -4.176   2.691  25.167  0.00  0.00    -0.275 OA
ENDROOT
BRANCH  24  26
ATOM     26  C   UNL     1      -3.378  -1.515  24.313  0.00  0.00    +0.080 C 
ATOM     27  C   UNL     1      -3.256  -2.074  24.908  0.00  0.00    +0.028 C 
ATOM     28  C   UNL     1      -3.659  -2.793  24.888  0.00  0.00    +0.089 C 
ATOM     29  N   UNL     1      -4.184  -2.955  24.272  0.00  0.00    -0.218 NA
ATOM     30  C   UNL     1      -4.306  -2.397  23.677  0.00  0.00    +0.089 C 
ATOM     31  C   UNL     1      -3.903  -1.678  23.697  0.00  0.00    +0.028 C 
ENDBRANCH  24  26
BRANCH  32  34
ATOM     34  C   UNL     1      -5.383   1.943  25.330  0.00  0.00    +0.080 C 
ATOM     35  C   UNL     1      -5.944   1.934  24.725  0.00  0.00    +0.028 C 
ATOM     36  C   UNL     1      -6.748   1.906  24.908  0.00  0.00    +0.089 C 
ATOM     37  N   UNL     1      -6.991   1.887  25.696  0.00  0.00    -0.218 NA
ATOM     38  C   UNL     1      -6.430   1.896  26.301  0.00  0.00    +0.089 C 
ATOM     39  C   UNL     1      -5.626   1.924  26.118  0.00  0.00    +0.028 C 
ENDBRANCH  32  34
BRANCH  18  16
ATOM     15  N   UNL     1      -1.625   0.897  24.940  0.00  0.00    -0.196 NA
ATOM     16  C   UNL     1      -2.169   0.643  24.374  0.00  0.00    +0.262 C 
ATOM     17  O   UNL     1      -1.909   0.417  23.624  0.00  0.00    -0.271 OA
BRANCH  15   4
ATOM      4  C   UNL     1      -0.822   0.924  24.756  0.00  0.00    +0.179 C 
BRANCH   4   2
ATOM      1  N   UNL     1       0.135  -0.001  24.237  0.00  0.00    -0.086 NA
ATOM      2  C   UNL     1      -0.355   0.250  24.850  0.00  0.00    +0.281 C 
ATOM      3  O   UNL     1      -0.379  -0.172  25.559  0.00  0.00    -0.270 OA
ENDBRANCH   4   2
BRANCH   4   5
ATOM      5  C   UNL     1      -0.485   1.625  24.480  0.00  0.00    +0.059 C 
BRANCH   5   6
ATOM      6  C   UNL     1      -0.396   2.269  24.987  0.00  0.00    +0.001 A 
ATOM      7  C   UNL     1      -0.197   2.232  25.787  0.00  0.00    +0.095 A 
ATOM      8  N   UNL     1      -0.169   3.003  26.078  0.00  0.00    -0.244 NA
ATOM      9  C   UNL     1      -0.351   3.516  25.459  0.00  0.00    +0.081 A 
ATOM     10  C   UNL     1      -0.491   3.062  24.785  0.00  0.00    +0.015 A 
ATOM     11  C   UNL     1      -0.688   3.432  24.073  0.00  0.00    +0.001 A 
ATOM     12  C   UNL     1      -0.744   4.253  24.036  0.00  0.00    +0.000 A 
ATOM     13  C   UNL     1      -0.603   4.707  24.710  0.00  0.00    +0.002 A 
ATOM     14  C   UNL     1      -0.407   4.339  25.422  0.00  0.00    +0.019 A 
ENDBRANCH   5   6
ENDBRANCH   4   5
ENDBRANCH  15   4
ENDBRANCH  18  16
TORSDOF 7
ENDMDL
MODEL 4
REMARK VINA RESULT:      -9.7      1.288      2.149
REMARK  Name = 
REMARK  7 active torsions:
REMARK  status: ('A' for Active; 'I' for Inactive)
REMARK    1  A    between atoms: C_2  and  C_4
REMARK    2  A    between atoms: C_4  and  C_5
REMARK    3  A    between atoms: C_4  and  N_15
REMARK    4  A    between atoms: C_5  and  C_6
REMARK    5  A    between atoms: C_16  and  C_18
REMARK    6  A    between atoms: C_24  and  C_26
REMARK    7  A    between atoms: C_32  and  C_34
REMARK                            x       y       z     vdW  Elec       q    Type
REMARK                         _______ _______ _______ _____ _____    ______ ____
ROOT
ATOM     18  C   UNL     1      -2.818   0.740  23.842  0.00  0.00    +0.174 C 
ATOM     19  C   UNL     1      -3.420   0.224  24.070  0.00  0.00    +0.123 C 
ATOM     20  N   UNL     1      -3.237  -0.548  24.299  0.00  0.00    -0.276 N 
ATOM     21  C   UNL     1      -2.453  -0.803  24.299  0.00  0.00    +0.115 C 
ATOM     22  C   UNL     1      -1.851  -0.287  24.070  0.00  0.00    +0.115 C 
ATOM     23  N   UNL     1      -2.033   0.484  23.842  0.00  0.00    -0.270 N 
ATOM     24  C   UNL     1      -1.432   1.000  23.614  0.00  0.00    +0.226 C 
ATOM     25  O   UNL     1      -1.615   1.772  23.385  0.00  0.00    -0.275 OA
ATOM     32  C   UNL     1      -3.839  -1.064  24.527  0.00  0.00    +0.225 C 
ATOM     33  O   UNL     1      -4.624  -0.808  24.527  0.00  0.00    -0.275 OA
ENDROOT
BRANCH  24  26
ATOM     26  C   UNL     1      -0.647   0.745  23.614  0.00  0.00    +0.080 C 
ATOM     27  C   UNL     1      -0.139   0.974  24.222  0.00  0.00    +0.028 C 
ATOM     28  C   UNL     1       0.646   0.719  24.222  0.00  0.00    +0.089 C 
ATOM     29  N   UNL     1       0.921   0.235  23.614  0.00  0.00    -0.218 NA
ATOM     30  C   UNL     1       0.414   0.005  23.006  0.00  0.00    +0.089 C 
ATOM     31  C   UNL     1      -0.371   0.261  23.006  0.00  0.00    +0.028 C 
ENDBRANCH  24  26
BRANCH  32  34
ATOM     34  C   UNL     1      -3.656  -1.835  24.756  0.00  0.00    +0.080 C 
ATOM     35  C   UNL     1      -3.712  -2.451  24.209  0.00  0.00    +0.028 C 
ATOM     36  C   UNL     1      -3.529  -3.223  24.438  0.00  0.00    +0.089 C 
ATOM     37  N   UNL     1      -3.291  -3.378  25.212  0.00  0.00    -0.218 NA
ATOM     38  C   UNL     1      -3.236  -2.762  25.758  0.00  0.00    +0.089 C 
ATOM     39  C   UNL     1      -3.418  -1.991  25.530  0.00  0.00    +0.028 C 
ENDBRANCH  32  34
BRANCH  18  16
ATOM     15  N   UNL     1      -3.347   2.031  24.152  0.00  0.00    -0.196 NA
ATOM     16  C   UNL     1      -3.001   1.511  23.613  0.00  0.00    +0.262 C 
ATOM     17  O   UNL     1      -2.836   1.763  22.845  0.00  0.00    -0.271 OA
BRANCH  15   4
ATOM      4  C   UNL     1      -3.530   2.802  23.924  0.00  0.00    +0.179 C 
BRANCH   4   2
ATOM      1  N   UNL     1      -4.946   2.744  24.106  0.00  0.00    -0.086 NA
ATOM      2  C   UNL     1      -4.292   2.985  23.667  0.00  0.00    +0.281 C 
ATOM      3  O   UNL     1      -4.399   3.412  22.968  0.00  0.00    -0.270 OA
ENDBRANCH   4   2
BRANCH   4   5
ATOM      5  C   UNL     1      -2.951   3.389  23.952  0.00  0.00    +0.059 C 
BRANCH   5   6
ATOM      6  C   UNL     1      -2.802   3.789  24.658  0.00  0.00    +0.001 A 
ATOM      7  C   UNL     1      -3.257   3.744  25.346  0.00  0.00    +0.095 A 
ATOM      8  N   UNL     1      -2.910   4.231  25.913  0.00  0.00    -0.244 NA
ATOM      9  C   UNL     1      -2.240   4.576  25.577  0.00  0.00    +0.081 A 
ATOM     10  C   UNL     1      -2.174   4.303  24.802  0.00  0.00    +0.015 A 
ATOM     11  C   UNL     1      -1.549   4.558  24.327  0.00  0.00    +0.001 A 
ATOM     12  C   UNL     1      -0.992   5.085  24.626  0.00  0.00    +0.000 A 
ATOM     13  C   UNL     1      -1.058   5.359  25.402  0.00  0.00    +0.002 A 
ATOM     14  C   UNL     1      -1.682   5.105  25.877  0.00  0.00    +0.019 A 
ENDBRANCH   5   6
ENDBRANCH   4   5
ENDBRANCH  15   4
ENDBRANCH  18  16
TORSDOF 7
ENDMDL
MODEL 5
REMARK VINA RESULT:      -9.7      1.399      3.505
REMARK  Name = 
REMARK  7 active torsions:
REMARK  status: ('A' for Active; 'I' for Inactive)
REMARK    1  A    between atoms: C_2  and  C_4
REMARK    2  A    between atoms: C_4  and  C_5
REMARK    3  A    between atoms: C_4  and  N_15
REMARK    4  A    between atoms: C_5  and  C_6
REMARK    5  A    between atoms: C_16  and  C_18
REMARK    6  A    between atoms: C_24  and  C_26
REMARK    7  A    between atoms: C_32  and  C_34
REMARK                            x       y       z     vdW  Elec       q    Type
REMARK                         _______ _______ _______ _____ _____    ______ ____
ROOT
ATOM     18  C   UNL     1      -0.500   0.895  24.707  0.00  0.00    +0.174 C 
ATOM     19  C   UNL     1       0.151   1.217  24.314  0.00  0.00    +0.123 C 
ATOM     20  N   UNL     1       0.621   0.738  23.833  0.00  0.00    -0.276 N 
ATOM     21  C   UNL     1       0.440  -0.062  23.746  0.00  0.00    +0.115 C 
ATOM     22  C   UNL     1      -0.210  -0.384  24.138  0.00  0.00    +0.115 C 
ATOM     23  N   UNL     1      -0.680   0.095  24.618  0.00  0.00    -0.270 N 
ATOM     24  C   UNL     1      -1.331  -0.226  25.011  0.00  0.00    +0.226 C 
ATOM     25  O   UNL     1      -1.801   0.253  25.491  0.00  0.00    -0.275 OA
ATOM     32  C   UNL     1       1.272   1.059  23.441  0.00  0.00    +0.225 C 
ATOM     33  O   UNL     1       1.453   1.859  23.529  0.00  0.00    -0.275 OA
ENDROOT
BRANCH  24  26
ATOM     26  C   UNL     1      -1.512  -1.026  24.923  0.00  0.00    +0.080 C 
ATOM     27  C   UNL     1      -2.145  -1.256  24.446  0.00  0.00    +0.028 C 
ATOM     28  C   UNL     1      -2.326  -2.056  24.358  0.00  0.00    +0.089 C 
ATOM     29  N   UNL     1      -1.874  -2.626  24.747  0.00  0.00    -0.218 NA
ATOM     30  C   UNL     1      -1.241  -2.397  25.223  0.00  0.00    +0.089 C 
ATOM     31  C   UNL     1      -1.060  -1.597  25.311  0.00  0.00    +0.028 C 
ENDBRANCH  24  26
BRANCH  32  34
ATOM     34  C   UNL     1       1.742   0.580  22.961  0.00  0.00    +0.080 C 
ATOM     35  C   UNL     1       2.543   0.486  23.131  0.00  0.00    +0.028 C 
ATOM     36  C   UNL     1       3.013   0.007  22.651  0.00  0.00    +0.089 C 
ATOM     37  N   UNL     1       2.681  -0.377  22.000  0.00  0.00    -0.218 NA
ATOM     38  C   UNL     1       1.880  -0.282  21.830  0.00  0.00    +0.089 C 
ATOM     39  C   UNL     1       1.410   0.197  22.310  0.00  0.00    +0.028 C 
ENDBRANCH  32  34
BRANCH  18  16
ATOM     15  N   UNL     1      -1.361   2.025  24.865  0.00  0.00    -0.196 NA
ATOM     16  C   UNL     1      -0.969   1.374  25.187  0.00  0.00    +0.262 C 
ATOM     17  O   UNL     1      -1.048   1.201  25.989  0.00  0.00    -0.271 OA
BRANCH  15   4
ATOM      4  C   UNL     1      -1.830   2.503  25.345  0.00  0.00    +0.179 C 
BRANCH   4   2
ATOM      1  N   UNL     1      -1.054   3.700  25.259  0.00  0.00    -0.086 NA
ATOM      2  C   UNL     1      -1.506   3.173  25.702  0.00  0.00    +0.281 C 
ATOM      3  O   UNL     1      -1.635   3.313  26.506  0.00  0.00    -0.270 OA
ENDBRANCH   4   2
BRANCH   4   5
ATOM      5  C   UNL     1      -2.624   2.313  25.468  0.00  0.00    +0.059 C 
BRANCH   5   6
ATOM      6  C   UNL     1      -3.198   2.574  24.938  0.00  0.00    +0.001 A 
ATOM      7  C   UNL     1      -3.074   3.084  24.300  0.00  0.00    +0.095 A 
ATOM      8  N   UNL     1      -3.797   3.198  23.920  0.00  0.00    -0.244 NA
ATOM      9  C   UNL     1      -4.368   2.758  24.321  0.00  0.00    +0.081 A 
ATOM     10  C   UNL     1      -3.998   2.373  24.950  0.00  0.00    +0.015 A 
ATOM     11  C   UNL     1      -4.438   1.889  25.453  0.00  0.00    +0.001 A 
ATOM     12  C   UNL     1      -5.246   1.790  25.328  0.00  0.00    +0.000 A 
ATOM     13  C   UNL     1      -5.616   2.175  24.699  0.00  0.00    +0.002 A 
ATOM     14  C   UNL     1      -5.178   2.659  24.195  0.00  0.00    +0.019 A 
ENDBRANCH   5   6
ENDBRANCH   4   5
ENDBRANCH  15   4
ENDBRANCH  18  16
TORSDOF 7
ENDMDL
MODEL 6
REMARK VINA RESULT:      -9.6      1.094      3.700
REMARK  Name = 
REMARK  7 active torsions:
REMARK  status: ('A' for Active; 'I' for Inactive)
REMARK    1  A    between atoms: C_2  and  C_4
REMARK    2  A    between atoms: C_4  and  C_5
REMARK    3  A    between atoms: C_4  and  N_15
REMARK    4  A    between atoms: C_5  and  C_6
REMARK    5  A    between atoms: C_16  and  C_18
REMARK    6  A    between atoms: C_24  and  C_26
REMARK    7  A    between atoms: C_32  and  C_34
REMARK                            x       y       z     vdW  Elec       q    Type
REMARK                         _______ _______ _______ _____ _____    ______ ____
ROOT
ATOM     18  C   UNL     1      -2.821   0.489  24.684  0.00  0.00    +0.174 C 
ATOM     19  C   UNL     1      -2.106   0.856  24.496  0.00  0.00    +0.123 C 
ATOM     20  N   UNL     1      -1.482   0.413  24.190  0.00  0.00    -0.276 N 
ATOM     21  C   UNL     1      -1.571  -0.399  24.070  0.00  0.00    +0.115 C 
ATOM     22  C   UNL     1      -2.286  -0.766  24.258  0.00  0.00    +0.115 C 
ATOM     23  N   UNL     1      -2.910  -0.323  24.564  0.00  0.00    -0.270 N 
ATOM     24  C   UNL     1      -3.625  -0.691  24.751  0.00  0.00    +0.226 C 
ATOM     25  O   UNL     1      -4.249  -0.248  25.058  0.00  0.00    -0.275 OA
ATOM     32  C   UNL     1      -0.768   0.781  24.003  0.00  0.00    +0.225 C 
ATOM     33  O   UNL     1      -0.678   1.593  24.122  0.00  0.00    -0.275 OA
ENDROOT
BRANCH  24  26
ATOM     26  C   UNL     1      -3.714  -1.503  24.632  0.00  0.00    +0.080 C 
ATOM     27  C   UNL     1      -4.099  -1.780  23.957  0.00  0.00    +0.028 C 
ATOM     28  C   UNL     1      -4.188  -2.592  23.837  0.00  0.00    +0.089 C 
ATOM     29  N   UNL     1      -3.893  -3.125  24.394  0.00  0.00    -0.218 NA
ATOM     30  C   UNL     1      -3.509  -2.848  25.068  0.00  0.00    +0.089 C 
ATOM     31  C   UNL     1      -3.420  -2.037  25.188  0.00  0.00    +0.028 C 
ENDBRANCH  24  26
BRANCH  32  34
ATOM     34  C   UNL     1      -0.143   0.338  23.696  0.00  0.00    +0.080 C 
ATOM     35  C   UNL     1       0.072   0.422  22.904  0.00  0.00    +0.028 C 
ATOM     36  C   UNL     1       0.697  -0.022  22.597  0.00  0.00    +0.089 C 
ATOM     37  N   UNL     1       1.106  -0.549  23.083  0.00  0.00    -0.218 NA
ATOM     38  C   UNL     1       0.890  -0.632  23.875  0.00  0.00    +0.089 C 
ATOM     39  C   UNL     1       0.266  -0.189  24.181  0.00  0.00    +0.028 C 
ENDBRANCH  32  34
BRANCH  18  16
ATOM     15  N   UNL     1      -3.711   1.602  24.590  0.00  0.00    -0.196 NA
ATOM     16  C   UNL     1      -3.445   0.931  24.990  0.00  0.00    +0.262 C 
ATOM     17  O   UNL     1      -3.804   0.704  25.697  0.00  0.00    -0.271 OA
BRANCH  15   4
ATOM      4  C   UNL     1      -4.336   2.045  24.896  0.00  0.00    +0.179 C 
BRANCH   4   2
ATOM      1  N   UNL     1      -5.660   1.747  25.341  0.00  0.00    -0.086 NA
ATOM      2  C   UNL     1      -5.115   1.829  24.729  0.00  0.00    +0.281 C 
ATOM      3  O   UNL     1      -5.346   1.695  23.948  0.00  0.00    -0.270 OA
ENDBRANCH   4   2
BRANCH   4   5
ATOM      5  C   UNL     1      -4.182   2.704  25.369  0.00  0.00    +0.059 C 
BRANCH   5   6
ATOM      6  C   UNL     1      -3.849   3.381  25.038  0.00  0.00    +0.001 A 
ATOM      7  C   UNL     1      -4.065   3.727  24.320  0.00  0.00    +0.095 A 
ATOM      8  N   UNL     1      -3.590   4.391  24.204  0.00  0.00    -0.244 NA
ATOM      9  C   UNL     1      -3.081   4.456  24.849  0.00  0.00    +0.081 A 
ATOM     10  C   UNL     1      -3.240   3.832  25.364  0.00  0.00    +0.015 A 
ATOM     11  C   UNL     1      -2.811   3.755  26.065  0.00  0.00    +0.001 A 
ATOM     12  C   UNL     1      -2.222   4.301  26.250  0.00  0.00    +0.000 A 
ATOM     13  C   UNL     1      -2.062   4.926  25.735  0.00  0.00    +0.002 A 
ATOM     14  C   UNL     1      -2.491   5.004  25.035  0.00  0.00    +0.019 A 
ENDBRANCH   5   6
ENDBRANCH   4   5
ENDBRANCH  15   4
ENDBRANCH  18  16
TORSDOF 7
ENDMDL
MODEL 7
REMARK VINA RESULT:      -9.5      1.511      4.643
REMARK  Name = 
REMARK  7 active torsions:
REMARK  status: ('A' for Active; 'I' for Inactive)
REMARK    1  A    between atoms: C_2  and  C_4
REMARK    2  A    between atoms: C_4  and  C_5
REMARK    3  A    between atoms: C_4  and  N_15
REMARK    4  A    between atoms: C_5  and  C_6
REMARK    5  A    between atoms: C_16  and  C_18
REMARK    6  A    between atoms: C_24  and  C_26
REMARK    7  A    between atoms: C_32  and  C_34
REMARK                            x       y       z     vdW  Elec       q    Type
REMARK                         _______ _______ _______ _____ _____    ______ ____
ROOT
ATOM     18  C   UNL     1      -2.513   1.344  24.793  0.00  0.00    +0.174 C 
ATOM     19  C   UNL     1      -3.328   1.279  24.904  0.00  0.00    +0.123 C 
ATOM     20  N   UNL     1      -3.776   1.950  25.076  0.00  0.00    -0.276 N 
ATOM     21  C   UNL     1      -3.410   2.686  25.138  0.00  0.00    +0.115 C 
ATOM     22  C   UNL     1      -2.595   2.752  25.027  0.00  0.00    +0.115 C 
ATOM     23  N   UNL     1      -2.147   2.082  24.855  0.00  0.00    -0.270 N 
ATOM     24  C   UNL     1      -1.332   2.147  24.744  0.00  0.00    +0.226 C 
ATOM     25  O   UNL     1      -0.883   1.476  24.571  0.00  0.00    -0.275 OA
ATOM     32  C   UNL     1      -4.591   1.883  25.187  0.00  0.00    +0.225 C 
ATOM     33  O   UNL     1      -4.957   1.147  25.126  0.00  0.00    -0.275 OA
ENDROOT
BRANCH  24  26
ATOM     26  C   UNL     1      -0.965   2.884  24.805  0.00  0.00    +0.080 C 
ATOM     27  C   UNL     1      -0.866   3.353  24.133  0.00  0.00    +0.028 C 
ATOM     28  C   UNL     1      -0.499   4.089  24.194  0.00  0.00    +0.089 C 
ATOM     29  N   UNL     1      -0.233   4.357  24.928  0.00  0.00    -0.218 NA
ATOM     30  C   UNL     1      -0.332   3.889  25.599  0.00  0.00    +0.089 C 
ATOM     31  C   UNL     1      -0.698   3.153  25.538  0.00  0.00    +0.028 C 
ENDBRANCH  24  26
BRANCH  32  34
ATOM     34  C   UNL     1      -5.040   2.554  25.359  0.00  0.00    +0.080 C 
ATOM     35  C   UNL     1      -5.140   3.141  24.788  0.00  0.00    +0.028 C 
ATOM     36  C   UNL     1      -5.589   3.812  24.960  0.00  0.00    +0.089 C 
ATOM     37  N   UNL     1      -5.937   3.896  25.704  0.00  0.00    -0.218 NA
ATOM     38  C   UNL     1      -5.836   3.308  26.274  0.00  0.00    +0.089 C 
ATOM     39  C   UNL     1      -5.388   2.638  26.103  0.00  0.00    +0.028 C 
ENDBRANCH  32  34
BRANCH  18  16
ATOM     15  N   UNL     1      -2.106   0.012  25.111  0.00  0.00    -0.196 NA
ATOM     16  C   UNL     1      -2.064   0.674  24.621  0.00  0.00    +0.262 C 
ATOM     17  O   UNL     1      -1.573   0.666  23.958  0.00  0.00    -0.271 OA
BRANCH  15   4
ATOM      4  C   UNL     1      -1.657  -0.658  24.939  0.00  0.00    +0.179 C 
BRANCH   4   2
ATOM      1  N   UNL     1      -0.265  -0.972  24.859  0.00  0.00    -0.086 NA
ATOM      2  C   UNL     1      -0.927  -0.770  25.307  0.00  0.00    +0.281 C 
ATOM      3  O   UNL     1      -0.860  -0.681  26.125  0.00  0.00    -0.270 OA
ENDBRANCH   4   2
BRANCH   4   5
ATOM      5  C   UNL     1      -1.938  -1.216  24.400  0.00  0.00    +0.059 C 
BRANCH   5   6
ATOM      6  C   UNL     1      -2.437  -1.821  24.654  0.00  0.00    +0.001 A 
ATOM      7  C   UNL     1      -2.330  -2.287  25.327  0.00  0.00    +0.095 A 
ATOM      8  N   UNL     1      -2.957  -2.821  25.369  0.00  0.00    -0.244 NA
ATOM      9  C   UNL     1      -3.451  -2.686  24.723  0.00  0.00    +0.081 A 
ATOM     10  C   UNL     1      -3.129  -2.068  24.281  0.00  0.00    +0.015 A 
ATOM     11  C   UNL     1      -3.510  -1.810  23.596  0.00  0.00    +0.001 A 
ATOM     12  C   UNL     1      -4.211  -2.169  23.352  0.00  0.00    +0.000 A 
ATOM     13  C   UNL     1      -4.532  -2.787  23.794  0.00  0.00    +0.002 A 
ATOM     14  C   UNL     1      -4.153  -3.046  24.479  0.00  0.00    +0.019 A 
ENDBRANCH   5   6
ENDBRANCH   4   5
ENDBRANCH  15   4
ENDBRANCH  18  16
TORSDOF 7
ENDMDL
MODEL 8
REMARK VINA RESULT:      -9.2      1.555      4.045
REMARK  Name = 
REMARK  7 active torsions:
REMARK  status: ('A' for Active; 'I' for Inactive)
REMARK    1  A    between atoms: C_2  and  C_4
REMARK    2  A    between atoms: C_4  and  C_5
REMARK    3  A    between atoms: C_4  and  N_15
REMARK    4  A    between atoms: C_5  and  C_6
REMARK    5  A    between atoms: C_16  and  C_18
REMARK    6  A    between atoms: C_24  and  C_26
REMARK    7  A    between atoms: C_32  and  C_34
REMARK                            x       y       z     vdW  Elec       q    Type
REMARK                         _______ _______ _______ _____ _____    ______ ____
ROOT
ATOM     18  C   UNL     1      -1.007   0.437  24.780  0.00  0.00    +0.174 C 
ATOM     19  C   UNL     1      -0.601  -0.141  24.355  0.00  0.00    +0.123 C 
ATOM     20  N   UNL     1       0.042   0.069  23.881  0.00  0.00    -0.276 N 
ATOM     21  C   UNL     1       0.277   0.858  23.833  0.00  0.00    +0.115 C 
ATOM     22  C   UNL     1      -0.129   1.437  24.258  0.00  0.00    +0.115 C 
ATOM     23  N   UNL     1      -0.771   1.227  24.731  0.00  0.00    -0.270 N 
ATOM     24  C   UNL     1      -1.178   1.805  25.156  0.00  0.00    +0.226 C 
ATOM     25  O   UNL     1      -1.820   1.595  25.629  0.00  0.00    -0.275 OA
ATOM     32  C   UNL     1       0.448  -0.510  23.457  0.00  0.00    +0.225 C 
ATOM     33  O   UNL     1       0.212  -1.299  23.505  0.00  0.00    -0.275 OA
ENDROOT
BRANCH  24  26
ATOM     26  C   UNL     1      -0.942   2.594  25.107  0.00  0.00    +0.080 C 
ATOM     27  C   UNL     1      -1.280   3.092  24.542  0.00  0.00    +0.028 C 
ATOM     28  C   UNL     1      -1.044   3.881  24.493  0.00  0.00    +0.089 C 
ATOM     29  N   UNL     1      -0.471   4.172  25.010  0.00  0.00    -0.218 NA
ATOM     30  C   UNL     1      -0.133   3.676  25.575  0.00  0.00    +0.089 C 
ATOM     31  C   UNL     1      -0.369   2.887  25.624  0.00  0.00    +0.028 C 
ENDBRANCH  24  26
BRANCH  32  34
ATOM     34  C   UNL     1       1.090  -0.300  22.983  0.00  0.00    +0.080 C 
ATOM     35  C   UNL     1       1.013  -0.298  22.162  0.00  0.00    +0.028 C 
ATOM     36  C   UNL     1       1.656  -0.088  21.688  0.00  0.00    +0.089 C 
ATOM     37  N   UNL     1       2.374   0.121  22.036  0.00  0.00    -0.218 NA
ATOM     38  C   UNL     1       2.450   0.119  22.858  0.00  0.00    +0.089 C 
ATOM     39  C   UNL     1       1.808  -0.091  23.331  0.00  0.00    +0.028 C 
ENDBRANCH  32  34
BRANCH  18  16
ATOM     15  N   UNL     1      -2.337  -0.071  24.908  0.00  0.00    -0.196 NA
ATOM     16  C   UNL     1      -1.649   0.227  25.253  0.00  0.00    +0.262 C 
ATOM     17  O   UNL     1      -1.604   0.315  26.072  0.00  0.00    -0.271 OA
BRANCH  15   4
ATOM      4  C   UNL     1      -2.978  -0.281  25.381  0.00  0.00    +0.179 C 
BRANCH   4   2
ATOM      1  N   UNL     1      -2.973  -1.686  25.119  0.00  0.00    -0.086 NA
ATOM      2  C   UNL     1      -3.057  -1.059  25.647  0.00  0.00    +0.281 C 
ATOM      3  O   UNL     1      -3.221  -1.207  26.442  0.00  0.00    -0.270 OA
ENDBRANCH   4   2
BRANCH   4   5
ATOM      5  C   UNL     1      -3.541   0.285  25.589  0.00  0.00    +0.059 C 
BRANCH   5   6
ATOM      6  C   UNL     1      -4.190   0.423  25.099  0.00  0.00    +0.001 A 
ATOM      7  C   UNL     1      -4.421  -0.044  24.458  0.00  0.00    +0.095 A 
ATOM      8  N   UNL     1      -5.095   0.296  24.127  0.00  0.00    -0.244 NA
ATOM      9  C   UNL     1      -5.281   0.971  24.562  0.00  0.00    +0.081 A 
ATOM     10  C   UNL     1      -4.721   1.049  25.163  0.00  0.00    +0.015 A 
ATOM     11  C   UNL     1      -4.769   1.682  25.690  0.00  0.00    +0.001 A 
ATOM     12  C   UNL     1      -5.376   2.236  25.617  0.00  0.00    +0.000 A 
ATOM     13  C   UNL     1      -5.935   2.157  25.016  0.00  0.00    +0.002 A 
ATOM     14  C   UNL     1      -5.889   1.525  24.488  0.00  0.00    +0.019 A 
ENDBRANCH   5   6
ENDBRANCH   4   5
ENDBRANCH  15   4
ENDBRANCH  18  16
TORSDOF 7
ENDMDL
MODEL 9
REMARK VINA RESULT:      -9.1      1.675      4.880
REMARK  Name = 
REMARK  7 active torsions:
REMARK  status: ('A' for Active; 'I' for Inactive)
REMARK    1  A    between atoms: C_2  and  C_4
REMARK    2  A    between atoms: C_4  and  C_5
REMARK    3  A    between atoms: C_4  and  N_15
REMARK    4  A    between atoms: C_5  and  C_6
REMARK    5  A    between atoms: C_16  and  C_18
REMARK    6  A    between atoms: C_24  and  C_26
REMARK    7  A    between atoms: C_32  and  C_34
REMARK                            x       y       z     vdW  Elec       q    Type
REMARK                         _______ _______ _______ _____ _____    ______ ____
ROOT
ATOM     18  C   UNL     1      -2.024   1.056  25.088  0.00  0.00    +0.174 C 
ATOM     19  C   UNL     1      -2.774   0.713  25.084  0.00  0.00    +0.123 C 
ATOM     20  N   UNL     1      -3.447   1.191  25.073  0.00  0.00    -0.276 N 
ATOM     21  C   UNL     1      -3.369   2.012  25.066  0.00  0.00    +0.115 C 
ATOM     22  C   UNL     1      -2.619   2.355  25.070  0.00  0.00    +0.115 C 
ATOM     23  N   UNL     1      -1.947   1.878  25.081  0.00  0.00    -0.270 N 
ATOM     24  C   UNL     1      -1.196   2.221  25.085  0.00  0.00    +0.226 C 
ATOM     25  O   UNL     1      -0.524   1.742  25.096  0.00  0.00    -0.275 OA
ATOM     32  C   UNL     1      -4.197   0.847  25.070  0.00  0.00    +0.225 C 
ATOM     33  O   UNL     1      -4.275   0.026  25.077  0.00  0.00    -0.275 OA
ENDROOT
BRANCH  24  26
ATOM     26  C   UNL     1      -1.118   3.042  25.077  0.00  0.00    +0.080 C 
ATOM     27  C   UNL     1      -0.885   3.428  24.386  0.00  0.00    +0.028 C 
ATOM     28  C   UNL     1      -0.807   4.249  24.379  0.00  0.00    +0.089 C 
ATOM     29  N   UNL     1      -0.963   4.684  25.063  0.00  0.00    -0.218 NA
ATOM     30  C   UNL     1      -1.195   4.298  25.753  0.00  0.00    +0.089 C 
ATOM     31  C   UNL     1      -1.273   3.477  25.761  0.00  0.00    +0.028 C 
ENDBRANCH  24  26
BRANCH  32  34
ATOM     34  C   UNL     1      -4.870   1.326  25.059  0.00  0.00    +0.080 C 
ATOM     35  C   UNL     1      -5.251   1.517  25.765  0.00  0.00    +0.028 C 
ATOM     36  C   UNL     1      -5.923   1.995  25.754  0.00  0.00    +0.089 C 
ATOM     37  N   UNL     1      -6.214   2.282  25.037  0.00  0.00    -0.218 NA
ATOM     38  C   UNL     1      -5.832   2.090  24.331  0.00  0.00    +0.089 C 
ATOM     39  C   UNL     1      -5.160   1.612  24.342  0.00  0.00    +0.028 C 
ENDBRANCH  32  34
BRANCH  18  16
ATOM     15  N   UNL     1      -1.206   0.057  24.477  0.00  0.00    -0.196 NA
ATOM     16  C   UNL     1      -1.352   0.578  25.099  0.00  0.00    +0.262 C 
ATOM     17  O   UNL     1      -0.826   0.622  25.733  0.00  0.00    -0.271 OA
BRANCH  15   4
ATOM      4  C   UNL     1      -0.534  -0.421  24.488  0.00  0.00    +0.179 C 
BRANCH   4   2
ATOM      1  N   UNL     1      -1.157  -1.707  24.475  0.00  0.00    -0.086 NA
ATOM      2  C   UNL     1      -0.583  -1.195  24.771  0.00  0.00    +0.281 C 
ATOM      3  O   UNL     1      -0.056  -1.456  25.350  0.00  0.00    -0.270 OA
ENDBRANCH   4   2
BRANCH   4   5
ATOM      5  C   UNL     1       0.188  -0.126  24.216  0.00  0.00    +0.059 C 
BRANCH   5   6
ATOM      6  C   UNL     1       0.413  -0.243  23.432  0.00  0.00    +0.001 A 
ATOM      7  C   UNL     1      -0.063  -0.549  22.831  0.00  0.00    +0.095 A 
ATOM      8  N   UNL     1       0.383  -0.570  22.138  0.00  0.00    -0.244 NA
ATOM      9  C   UNL     1       1.134  -0.276  22.310  0.00  0.00    +0.081 A 
ATOM     10  C   UNL     1       1.152  -0.074  23.109  0.00  0.00    +0.015 A 
ATOM     11  C   UNL     1       1.841   0.238  23.440  0.00  0.00    +0.001 A 
ATOM     12  C   UNL     1       2.511   0.347  22.972  0.00  0.00    +0.000 A 
ATOM     13  C   UNL     1       2.493   0.145  22.172  0.00  0.00    +0.002 A 
ATOM     14  C   UNL     1       1.805  -0.167  21.841  0.00  0.00    +0.019 A 
ENDBRANCH   5   6
ENDBRANCH   4   5
ENDBRANCH  15   4
ENDBRANCH  18  16
TORSDOF 7
ENDMDL
MODEL 10
REMARK VINA RESULT:      -8.7      1.614      4.107
REMARK  Name = 
REMARK  7 active torsions:
REMARK  status: ('A' for Active; 'I' for Inactive)
REMARK    1  A    between atoms: C_2  and  C_4
REMARK    2  A    between atoms: C_4  and  C_5
REMARK    3  A    between atoms: C_4  and  N_15
REMARK    4  A    between atoms: C_5  and  C_6
REMARK    5  A    between atoms: C_16  and  C_18
REMARK    6  A    between atoms: C_24  and  C_26
REMARK    7  A    between atoms: C_32  and  C_34
REMARK                            x       y       z     vdW  Elec       q    Type
REMARK                         _______ _______ _______ _____ _____    ______ ____
ROOT
ATOM     18  C   UNL     1      -3.353   1.437  24.832  0.00  0.00    +0.174 C 
ATOM     19  C   UNL     1      -2.915   0.750  24.701  0.00  0.00    +0.123 C 
ATOM     20  N   UNL     1      -3.287   0.014  24.714  0.00  0.00    -0.276 N 
ATOM     21  C   UNL     1      -4.097  -0.037  24.858  0.00  0.00    +0.115 C 
ATOM     22  C   UNL     1      -4.536   0.650  24.989  0.00  0.00    +0.115 C 
ATOM     23  N   UNL     1      -4.165   1.386  24.977  0.00  0.00    -0.270 N 
ATOM     24  C   UNL     1      -4.603   2.072  25.108  0.00  0.00    +0.226 C 
ATOM     25  O   UNL     1      -4.231   2.809  25.095  0.00  0.00    -0.275 OA
ATOM     32  C   UNL     1      -2.847  -0.672  24.582  0.00  0.00    +0.225 C 
ATOM     33  O   UNL     1      -2.037  -0.622  24.438  0.00  0.00    -0.275 OA
ENDROOT
BRANCH  24  26
ATOM     26  C   UNL     1      -5.414   2.022  25.252  0.00  0.00    +0.080 C 
ATOM     27  C   UNL     1      -5.942   1.953  24.621  0.00  0.00    +0.028 C 
ATOM     28  C   UNL     1      -6.752   1.902  24.765  0.00  0.00    +0.089 C 
ATOM     29  N   UNL     1      -7.035   1.921  25.540  0.00  0.00    -0.218 NA
ATOM     30  C   UNL     1      -6.508   1.991  26.170  0.00  0.00    +0.089 C 
ATOM     31  C   UNL     1      -5.698   2.041  26.026  0.00  0.00    +0.028 C 
ENDBRANCH  24  26
BRANCH  32  34
ATOM     34  C   UNL     1      -3.219  -1.409  24.595  0.00  0.00    +0.080 C 
ATOM     35  C   UNL     1      -3.161  -1.888  25.264  0.00  0.00    +0.028 C 
ATOM     36  C   UNL     1      -3.533  -2.625  25.276  0.00  0.00    +0.089 C 
ATOM     37  N   UNL     1      -3.963  -2.881  24.621  0.00  0.00    -0.218 NA
ATOM     38  C   UNL     1      -4.021  -2.401  23.953  0.00  0.00    +0.089 C 
ATOM     39  C   UNL     1      -3.650  -1.665  23.940  0.00  0.00    +0.028 C 
ENDBRANCH  32  34
BRANCH  18  16
ATOM     15  N   UNL     1      -2.383   2.343  25.361  0.00  0.00    -0.196 NA
ATOM     16  C   UNL     1      -2.982   2.173  24.820  0.00  0.00    +0.262 C 
ATOM     17  O   UNL     1      -3.210   2.740  24.266  0.00  0.00    -0.271 OA
BRANCH  15   4
ATOM      4  C   UNL     1      -2.011   3.078  25.349  0.00  0.00    +0.179 C 
BRANCH   4   2
ATOM      1  N   UNL     1      -2.433   4.439  25.464  0.00  0.00    -0.086 NA
ATOM      2  C   UNL     1      -2.311   3.699  25.804  0.00  0.00    +0.281 C 
ATOM      3  O   UNL     1      -2.487   3.576  26.601  0.00  0.00    -0.270 OA
ENDBRANCH   4   2
BRANCH   4   5
ATOM      5  C   UNL     1      -1.342   3.195  24.881  0.00  0.00    +0.059 C 
BRANCH   5   6
ATOM      6  C   UNL     1      -0.628   2.836  25.085  0.00  0.00    +0.001 A 
ATOM      7  C   UNL     1      -0.286   2.827  25.836  0.00  0.00    +0.095 A 
ATOM      8  N   UNL     1       0.422   2.407  25.789  0.00  0.00    -0.244 NA
ATOM      9  C   UNL     1       0.518   2.157  25.009  0.00  0.00    +0.081 A 
ATOM     10  C   UNL     1      -0.131   2.422  24.574  0.00  0.00    +0.015 A 
ATOM     11  C   UNL     1      -0.184   2.251  23.768  0.00  0.00    +0.001 A 
ATOM     12  C   UNL     1       0.410   1.816  23.398  0.00  0.00    +0.000 A 
ATOM     13  C   UNL     1       1.059   1.551  23.833  0.00  0.00    +0.002 A 
ATOM     14  C   UNL     1       1.114   1.721  24.638  0.00  0.00    +0.019 A 
ENDBRANCH   5   6
ENDBRANCH   4   5
ENDBRANCH  15   4
ENDBRANCH  18  16
TORSDOF 7
ENDMDL
