REMARK  Name = 
REMARK  7 active torsions:
REMARK  status: ('A' for Active; 'I' for Inactive)
REMARK    1  A    between atoms: C_2  and  C_5
REMARK    2  A    between atoms: C_9  and  N_10
REMARK    3  A    between atoms: N_13  and  C_14
REMARK    4  A    between atoms: C_21  and  N_22
REMARK    5  A    between atoms: C_26  and  C_27
REMARK    6  A    between atoms: C_31  and  C_32
REMARK    7  A    between atoms: C_32  and  N_33
REMARK                            x       y       z     vdW  Elec       q    Type
REMARK                         _______ _______ _______ _____ _____    ______ ____
ROOT
ATOM     14  C   UNL     1       0.000   0.000   0.000  0.00  0.00    +0.156 C 
ATOM     15  C   UNL     1      -0.485  -0.667   0.000  0.00  0.00    +0.166 C 
ATOM     16  O   UNL     1       0.000  -1.335   0.000  0.00  0.00    -0.350 OA
ATOM     17  C   UNL     1       0.785  -1.080   0.000  0.00  0.00    +0.169 C 
ATOM     18  C   UNL     1       0.785  -0.255   0.000  0.00  0.00    +0.167 C 
ATOM     19  O   UNL     1       1.569   0.000   0.000  0.00  0.00    -0.350 OA
ATOM     20  C   UNL     1       2.054  -0.667   0.000  0.00  0.00    +0.169 C 
ATOM     21  C   UNL     1       1.569  -1.335   0.000  0.00  0.00    +0.167 C 
ENDROOT
BRANCH  21  22
ATOM     22  N   UNL     1       1.824  -2.119   0.000  0.00  0.00    -0.210 N 
ATOM     23  N   UNL     1       2.609  -2.374   0.000  0.00  0.00    -0.043 NA
ATOM     24  N   UNL     1       2.609  -3.199   0.000  0.00  0.00    -0.023 NA
ATOM     25  N   UNL     1       1.824  -3.454   0.000  0.00  0.00    -0.108 NA
ATOM     26  C   UNL     1       1.339  -2.787   0.000  0.00  0.00    +0.184 A 
BRANCH  26  27
ATOM     27  C   UNL     1       0.514  -2.787   0.000  0.00  0.00    +0.037 A 
ATOM     28  C   UNL     1       0.102  -3.501   0.000  0.00  0.00    +0.003 A 
ATOM     29  C   UNL     1      -0.723  -3.501   0.000  0.00  0.00    -0.000 A 
ATOM     30  C   UNL     1      -1.136  -2.787   0.000  0.00  0.00    -0.003 A 
ATOM     31  C   UNL     1      -0.723  -2.072   0.000  0.00  0.00    -0.006 A 
ATOM     38  C   UNL     1       0.102  -2.072   0.000  0.00  0.00    +0.000 A 
BRANCH  31  32
ATOM     32  C   UNL     1      -1.136  -1.358   0.000  0.00  0.00    +0.099 C 
BRANCH  32  33
ATOM     33  N   UNL     1      -1.961  -1.358   0.000  0.00  0.00    -0.269 NA
ATOM     34  C   UNL     1      -2.446  -2.025   0.000  0.00  0.00    +0.072 C 
ATOM     35  C   UNL     1      -3.230  -1.770   0.000  0.00  0.00    +0.019 C 
ATOM     36  C   UNL     1      -3.230  -0.946   0.000  0.00  0.00    +0.019 C 
ATOM     37  C   UNL     1      -2.446  -0.691   0.000  0.00  0.00    +0.072 C 
ENDBRANCH  32  33
ENDBRANCH  31  32
ENDBRANCH  26  27
ENDBRANCH  21  22
BRANCH  14  13
ATOM     10  N   UNL     1      -1.317   1.741   0.000  0.00  0.00    -0.161 NA
ATOM     11  C   UNL     1      -1.062   0.956   0.000  0.00  0.00    +0.344 C 
ATOM     12  O   UNL     1      -1.614   0.343   0.000  0.00  0.00    -0.249 OA
ATOM     13  N   UNL     1      -0.255   0.785   0.000  0.00  0.00    -0.184 NA
BRANCH  10   9
ATOM      5  C   UNL     1      -3.483   1.471   0.000  0.00  0.00    +0.073 A 
ATOM      6  C   UNL     1      -3.738   2.255   0.000  0.00  0.00    +0.004 A 
ATOM      7  C   UNL     1      -3.186   2.868   0.000  0.00  0.00    +0.001 A 
ATOM      8  C   UNL     1      -2.379   2.697   0.000  0.00  0.00    +0.017 A 
ATOM      9  C   UNL     1      -2.124   1.912   0.000  0.00  0.00    +0.075 A 
ATOM     39  C   UNL     1      -2.676   1.299   0.000  0.00  0.00    +0.021 A 
BRANCH   5   2
ATOM      1  F   UNL     1      -4.587   0.244   0.000  0.00  0.00    -0.166 F 
ATOM      2  C   UNL     1      -4.035   0.858   0.000  0.00  0.00    +0.419 C 
ATOM      3  F   UNL     1      -3.422   0.306   0.000  0.00  0.00    -0.166 F 
ATOM      4  F   UNL     1      -4.648   1.410   0.000  0.00  0.00    -0.166 F 
ENDBRANCH   5   2
ENDBRANCH  10   9
ENDBRANCH  14  13
TORSDOF 7
