MODEL 1
REMARK VINA RESULT:     -15.8      0.000      0.000
REMARK  Name = 
REMARK  4 active torsions:
REMARK  status: ('A' for Active; 'I' for Inactive)
REMARK    1  A    between atoms: S_2  and  C_3
REMARK    2  A    between atoms: C_6  and  C_9
REMARK    3  A    between atoms: C_19  and  C_21
REMARK    4  A    between atoms: C_24  and  C_27
REMARK                            x       y       z     vdW  Elec       q    Type
REMARK                         _______ _______ _______ _____ _____    ______ ____
ROOT
ATOM      9  C   UNL     1      -3.857   0.049  24.552  0.00  0.00    +0.056 A 
ATOM     10  C   UNL     1      -4.575  -0.283  24.127  0.00  0.00    +0.006 A 
ATOM     11  C   UNL     1      -4.546  -1.098  24.006  0.00  0.00    +0.013 A 
ATOM     12  C   UNL     1      -3.895  -1.531  24.270  0.00  0.00    +0.041 A 
ATOM     13  C   UNL     1      -3.572  -2.391  24.293  0.00  0.00    +0.058 C 
ATOM     14  C   UNL     1      -3.735  -3.046  24.100  0.00  0.00    +0.011 C 
ATOM     15  C   UNL     1      -3.123  -2.665  24.478  0.00  0.00    +0.043 C 
ATOM     16  C   UNL     1      -2.298  -2.391  24.949  0.00  0.00    +0.096 C 
ATOM     17  N   UNL     1      -2.439  -1.570  25.013  0.00  0.00    -0.276 N 
ATOM     18  C   UNL     1      -2.770  -2.142  24.747  0.00  0.00    +0.099 C 
ATOM     19  C   UNL     1      -2.184  -0.811  25.271  0.00  0.00    +0.249 C 
ATOM     20  O   UNL     1      -1.402  -0.868  25.664  0.00  0.00    -0.270 OA
ATOM     29  C   UNL     1      -3.452  -1.763  24.459  0.00  0.00    +0.110 C 
ATOM     30  N   UNL     1      -3.273  -1.148  24.654  0.00  0.00    -0.299 N 
ATOM     31  C   UNL     1      -3.302  -0.333  24.775  0.00  0.00    +0.261 A 
ATOM     32  O   UNL     1      -2.421  -0.119  25.264  0.00  0.00    -0.267 OA
ENDROOT
BRANCH   9   6
ATOM      3  C   UNL     1      -3.244   2.494  24.415  0.00  0.00    +0.025 A 
ATOM      4  C   UNL     1      -3.303   2.075  23.706  0.00  0.00    +0.006 A 
ATOM      5  C   UNL     1      -3.525   1.170  23.671  0.00  0.00    +0.001 A 
ATOM      6  C   UNL     1      -3.693   0.764  24.756  0.00  0.00    +0.005 A 
ATOM      7  C   UNL     1      -3.547   1.399  24.929  0.00  0.00    +0.001 A 
ATOM      8  C   UNL     1      -3.384   2.113  25.133  0.00  0.00    +0.006 A 
BRANCH   3   2
ATOM      1  C   UNL     1      -2.414   3.777  24.811  0.00  0.00    +0.074 C 
ATOM      2  S   UNL     1      -3.031   3.356  24.395  0.00  0.00    -0.113 S 
ENDBRANCH   3   2
ENDBRANCH   9   6
BRANCH  19  21
ATOM     21  C   UNL     1      -2.870  -0.207  25.018  0.00  0.00    +0.054 A 
ATOM     22  C   UNL     1      -3.429  -0.042  25.601  0.00  0.00    +0.005 A 
ATOM     23  C   UNL     1      -4.051   0.477  25.441  0.00  0.00    +0.010 A 
ATOM     24  C   UNL     1      -4.113   0.829  24.698  0.00  0.00    +0.068 A 
ATOM     25  C   UNL     1      -3.553   0.663  24.114  0.00  0.00    +0.010 A 
ATOM     26  C   UNL     1      -2.931   0.145  24.275  0.00  0.00    +0.005 A 
BRANCH  24  27
ATOM     27  C   UNL     1      -4.835   1.379  24.636  0.00  0.00    +0.100 C 
ATOM     28  N   UNL     1      -5.711   1.497  24.939  0.00  0.00    -0.191 NA
ENDBRANCH  24  27
ENDBRANCH  19  21
TORSDOF 4
ENDMDL
MODEL 2
REMARK VINA RESULT:     -15.3      1.528      3.602
REMARK  Name = 
REMARK  4 active torsions:
REMARK  status: ('A' for Active; 'I' for Inactive)
REMARK    1  A    between atoms: S_2  and  C_3
REMARK    2  A    between atoms: C_6  and  C_9
REMARK    3  A    between atoms: C_19  and  C_21
REMARK    4  A    between atoms: C_24  and  C_27
REMARK                            x       y       z     vdW  Elec       q    Type
REMARK                         _______ _______ _______ _____ _____    ______ ____
ROOT
ATOM      9  C   UNL     1      -3.925   0.463  24.747  0.00  0.00    +0.056 A 
ATOM     10  C   UNL     1      -4.755   0.240  25.008  0.00  0.00    +0.006 A 
ATOM     11  C   UNL     1      -5.239   0.887  25.174  0.00  0.00    +0.013 A 
ATOM     12  C   UNL     1      -4.945   1.653  25.094  0.00  0.00    +0.041 A 
ATOM     13  C   UNL     1      -5.202   2.530  25.192  0.00  0.00    +0.058 C 
ATOM     14  C   UNL     1      -5.753   2.925  25.374  0.00  0.00    +0.011 C 
ATOM     15  C   UNL     1      -4.984   3.040  25.131  0.00  0.00    +0.043 C 
ATOM     16  C   UNL     1      -4.098   3.378  24.854  0.00  0.00    +0.096 C 
ATOM     17  N   UNL     1      -3.707   2.653  24.717  0.00  0.00    -0.276 N 
ATOM     18  C   UNL     1      -4.351   2.873  24.926  0.00  0.00    +0.099 C 
ATOM     19  C   UNL     1      -3.011   2.238  24.487  0.00  0.00    +0.249 C 
ATOM     20  O   UNL     1      -2.369   2.803  24.292  0.00  0.00    -0.270 OA
ATOM     29  C   UNL     1      -4.706   2.127  25.026  0.00  0.00    +0.110 C 
ATOM     30  N   UNL     1      -4.167   1.773  24.848  0.00  0.00    -0.299 N 
ATOM     31  C   UNL     1      -3.683   1.126  24.681  0.00  0.00    +0.261 A 
ATOM     32  O   UNL     1      -2.785   1.548  24.402  0.00  0.00    -0.267 OA
ENDROOT
BRANCH   9   6
ATOM      3  C   UNL     1      -2.011  -1.176  24.897  0.00  0.00    +0.025 A 
ATOM      4  C   UNL     1      -2.425  -1.010  25.590  0.00  0.00    +0.006 A 
ATOM      5  C   UNL     1      -3.144  -0.416  25.620  0.00  0.00    +0.001 A 
ATOM      6  C   UNL     1      -3.336   0.022  24.551  0.00  0.00    +0.005 A 
ATOM      7  C   UNL     1      -2.815  -0.371  24.385  0.00  0.00    +0.001 A 
ATOM      8  C   UNL     1      -2.226  -0.812  24.189  0.00  0.00    +0.006 A 
BRANCH   3   2
ATOM      1  C   UNL     1      -0.516  -1.622  25.140  0.00  0.00    +0.074 C 
ATOM      2  S   UNL     1      -1.333  -1.749  24.921  0.00  0.00    -0.113 S 
ENDBRANCH   3   2
ENDBRANCH   9   6
BRANCH  19  21
ATOM     21  C   UNL     1      -3.229   1.317  24.540  0.00  0.00    +0.054 A 
ATOM     22  C   UNL     1      -3.461   0.966  23.831  0.00  0.00    +0.005 A 
ATOM     23  C   UNL     1      -3.663   0.166  23.814  0.00  0.00    +0.010 A 
ATOM     24  C   UNL     1      -3.634  -0.282  24.505  0.00  0.00    +0.068 A 
ATOM     25  C   UNL     1      -3.402   0.069  25.215  0.00  0.00    +0.010 A 
ATOM     26  C   UNL     1      -3.200   0.870  25.232  0.00  0.00    +0.005 A 
BRANCH  24  27
ATOM     27  C   UNL     1      -3.877  -1.147  24.366  0.00  0.00    +0.100 C 
ATOM     28  N   UNL     1      -4.455  -1.690  23.870  0.00  0.00    -0.191 NA
ENDBRANCH  24  27
ENDBRANCH  19  21
TORSDOF 4
ENDMDL
MODEL 3
REMARK VINA RESULT:     -14.7      1.714      4.130
REMARK  Name = 
REMARK  4 active torsions:
REMARK  status: ('A' for Active; 'I' for Inactive)
REMARK    1  A    between atoms: S_2  and  C_3
REMARK    2  A    between atoms: C_6  and  C_9
REMARK    3  A    between atoms: C_19  and  C_21
REMARK    4  A    between atoms: C_24  and  C_27
REMARK                            x       y       z     vdW  Elec       q    Type
REMARK                         _______ _______ _______ _____ _____    ______ ____
ROOT
ATOM      9  C   UNL     1      -3.299   1.279  24.719  0.00  0.00    +0.056 A 
ATOM     10  C   UNL     1      -2.515   1.649  24.956  0.00  0.00    +0.006 A 
ATOM     11  C   UNL     1      -2.584   2.412  25.261  0.00  0.00    +0.013 A 
ATOM     12  C   UNL     1      -3.327   2.765  25.325  0.00  0.00    +0.041 A 
ATOM     13  C   UNL     1      -3.725   3.546  25.601  0.00  0.00    +0.058 C 
ATOM     14  C   UNL     1      -3.573   4.174  25.875  0.00  0.00    +0.011 C 
ATOM     15  C   UNL     1      -4.236   3.766  25.635  0.00  0.00    +0.043 C 
ATOM     16  C   UNL     1      -5.140   3.442  25.403  0.00  0.00    +0.096 C 
ATOM     17  N   UNL     1      -4.947   2.683  25.114  0.00  0.00    -0.276 N 
ATOM     18  C   UNL     1      -4.605   3.247  25.382  0.00  0.00    +0.099 C 
ATOM     19  C   UNL     1      -5.196   1.948  24.786  0.00  0.00    +0.249 C 
ATOM     20  O   UNL     1      -6.068   1.939  24.686  0.00  0.00    -0.270 OA
ATOM     29  C   UNL     1      -3.830   2.947  25.344  0.00  0.00    +0.110 C 
ATOM     30  N   UNL     1      -4.001   2.355  25.083  0.00  0.00    -0.299 N 
ATOM     31  C   UNL     1      -3.932   1.591  24.778  0.00  0.00    +0.261 A 
ATOM     32  O   UNL     1      -4.901   1.318  24.560  0.00  0.00    -0.267 OA
ENDROOT
BRANCH   9   6
ATOM      3  C   UNL     1      -3.560  -1.221  24.485  0.00  0.00    +0.025 A 
ATOM      4  C   UNL     1      -3.296  -0.932  25.211  0.00  0.00    +0.006 A 
ATOM      5  C   UNL     1      -3.173  -0.023  25.378  0.00  0.00    +0.001 A 
ATOM      6  C   UNL     1      -3.448   0.594  24.422  0.00  0.00    +0.005 A 
ATOM      7  C   UNL     1      -3.579  -0.016  24.166  0.00  0.00    +0.001 A 
ATOM      8  C   UNL     1      -3.729  -0.700  23.869  0.00  0.00    +0.006 A 
BRANCH   3   2
ATOM      1  C   UNL     1      -4.246  -2.529  23.925  0.00  0.00    +0.074 C 
ATOM      2  S   UNL     1      -3.661  -2.097  24.375  0.00  0.00    -0.113 S 
ENDBRANCH   3   2
ENDBRANCH   9   6
BRANCH  19  21
ATOM     21  C   UNL     1      -4.406   1.438  24.663  0.00  0.00    +0.054 A 
ATOM     22  C   UNL     1      -4.062   1.492  23.916  0.00  0.00    +0.005 A 
ATOM     23  C   UNL     1      -3.372   1.070  23.748  0.00  0.00    +0.010 A 
ATOM     24  C   UNL     1      -3.028   0.595  24.328  0.00  0.00    +0.068 A 
ATOM     25  C   UNL     1      -3.373   0.542  25.076  0.00  0.00    +0.010 A 
ATOM     26  C   UNL     1      -4.063   0.964  25.243  0.00  0.00    +0.005 A 
BRANCH  24  27
ATOM     27  C   UNL     1      -2.276   0.180  24.031  0.00  0.00    +0.100 C 
ATOM     28  N   UNL     1      -1.472   0.328  23.576  0.00  0.00    -0.191 NA
ENDBRANCH  24  27
ENDBRANCH  19  21
TORSDOF 4
ENDMDL
MODEL 4
REMARK VINA RESULT:     -14.4      1.674      3.961
REMARK  Name = 
REMARK  4 active torsions:
REMARK  status: ('A' for Active; 'I' for Inactive)
REMARK    1  A    between atoms: S_2  and  C_3
REMARK    2  A    between atoms: C_6  and  C_9
REMARK    3  A    between atoms: C_19  and  C_21
REMARK    4  A    between atoms: C_24  and  C_27
REMARK                            x       y       z     vdW  Elec       q    Type
REMARK                         _______ _______ _______ _____ _____    ______ ____
ROOT
ATOM      9  C   UNL     1      -3.363   2.036  24.721  0.00  0.00    +0.056 A 
ATOM     10  C   UNL     1      -3.809   2.571  25.289  0.00  0.00    +0.006 A 
ATOM     11  C   UNL     1      -3.390   3.245  25.513  0.00  0.00    +0.013 A 
ATOM     12  C   UNL     1      -2.631   3.377  25.217  0.00  0.00    +0.041 A 
ATOM     13  C   UNL     1      -1.943   3.984  25.263  0.00  0.00    +0.058 C 
ATOM     14  C   UNL     1      -1.764   4.592  25.565  0.00  0.00    +0.011 C 
ATOM     15  C   UNL     1      -1.432   4.054  25.052  0.00  0.00    +0.043 C 
ATOM     16  C   UNL     1      -0.868   3.530  24.432  0.00  0.00    +0.096 C 
ATOM     17  N   UNL     1      -1.384   2.891  24.279  0.00  0.00    -0.276 N 
ATOM     18  C   UNL     1      -1.386   3.489  24.665  0.00  0.00    +0.099 C 
ATOM     19  C   UNL     1      -1.535   2.162  23.886  0.00  0.00    +0.249 C 
ATOM     20  O   UNL     1      -0.847   1.932  23.392  0.00  0.00    -0.270 OA
ATOM     29  C   UNL     1      -2.146   3.414  24.998  0.00  0.00    +0.110 C 
ATOM     30  N   UNL     1      -2.291   2.834  24.697  0.00  0.00    -0.299 N 
ATOM     31  C   UNL     1      -2.710   2.159  24.473  0.00  0.00    +0.261 A 
ATOM     32  O   UNL     1      -2.070   1.666  23.834  0.00  0.00    -0.267 OA
ENDROOT
BRANCH   9   6
ATOM      3  C   UNL     1      -3.958  -0.400  24.433  0.00  0.00    +0.025 A 
ATOM      4  C   UNL     1      -3.756  -0.144  25.190  0.00  0.00    +0.006 A 
ATOM      5  C   UNL     1      -3.524   0.739  25.381  0.00  0.00    +0.001 A 
ATOM      6  C   UNL     1      -3.570   1.378  24.401  0.00  0.00    +0.005 A 
ATOM      7  C   UNL     1      -3.753   0.791  24.124  0.00  0.00    +0.001 A 
ATOM      8  C   UNL     1      -3.960   0.133  23.803  0.00  0.00    +0.006 A 
BRANCH   3   2
ATOM      1  C   UNL     1      -3.673  -1.948  24.301  0.00  0.00    +0.074 C 
ATOM      2  S   UNL     1      -4.171  -1.252  24.303  0.00  0.00    -0.113 S 
ENDBRANCH   3   2
ENDBRANCH   9   6
BRANCH  19  21
ATOM     21  C   UNL     1      -2.406   1.900  24.153  0.00  0.00    +0.054 A 
ATOM     22  C   UNL     1      -3.014   2.111  23.638  0.00  0.00    +0.005 A 
ATOM     23  C   UNL     1      -3.795   1.910  23.816  0.00  0.00    +0.010 A 
ATOM     24  C   UNL     1      -3.966   1.499  24.510  0.00  0.00    +0.068 A 
ATOM     25  C   UNL     1      -3.357   1.288  25.026  0.00  0.00    +0.010 A 
ATOM     26  C   UNL     1      -2.577   1.489  24.847  0.00  0.00    +0.005 A 
BRANCH  24  27
ATOM     27  C   UNL     1      -4.855   1.333  24.602  0.00  0.00    +0.100 C 
ATOM     28  N   UNL     1      -5.696   1.741  24.589  0.00  0.00    -0.191 NA
ENDBRANCH  24  27
ENDBRANCH  19  21
TORSDOF 4
ENDMDL
MODEL 5
REMARK VINA RESULT:     -14.4      1.594      2.416
REMARK  Name = 
REMARK  4 active torsions:
REMARK  status: ('A' for Active; 'I' for Inactive)
REMARK    1  A    between atoms: S_2  and  C_3
REMARK    2  A    between atoms: C_6  and  C_9
REMARK    3  A    between atoms: C_19  and  C_21
REMARK    4  A    between atoms: C_24  and  C_27
REMARK                            x       y       z     vdW  Elec       q    Type
REMARK                         _______ _______ _______ _____ _____    ______ ____
ROOT
ATOM      9  C   UNL     1      -3.872   2.174  24.793  0.00  0.00    +0.056 A 
ATOM     10  C   UNL     1      -4.547   1.917  25.326  0.00  0.00    +0.006 A 
ATOM     11  C   UNL     1      -4.736   1.116  25.264  0.00  0.00    +0.013 A 
ATOM     12  C   UNL     1      -4.315   0.632  24.746  0.00  0.00    +0.041 A 
ATOM     13  C   UNL     1      -4.274  -0.239  24.458  0.00  0.00    +0.058 C 
ATOM     14  C   UNL     1      -4.579  -0.865  24.551  0.00  0.00    +0.011 C 
ATOM     15  C   UNL     1      -3.977  -0.549  24.102  0.00  0.00    +0.043 C 
ATOM     16  C   UNL     1      -3.229  -0.358  23.485  0.00  0.00    +0.096 C 
ATOM     17  N   UNL     1      -3.131   0.458  23.632  0.00  0.00    -0.276 N 
ATOM     18  C   UNL     1      -3.551  -0.071  23.857  0.00  0.00    +0.099 C 
ATOM     19  C   UNL     1      -2.723   1.177  23.474  0.00  0.00    +0.249 C 
ATOM     20  O   UNL     1      -2.097   1.048  22.873  0.00  0.00    -0.270 OA
ATOM     29  C   UNL     1      -4.012   0.364  24.397  0.00  0.00    +0.110 C 
ATOM     30  N   UNL     1      -3.705   0.949  24.290  0.00  0.00    -0.299 N 
ATOM     31  C   UNL     1      -3.516   1.749  24.351  0.00  0.00    +0.261 A 
ATOM     32  O   UNL     1      -2.737   1.876  23.688  0.00  0.00    -0.267 OA
ENDROOT
BRANCH   9   6
ATOM      3  C   UNL     1      -2.514   4.257  25.234  0.00  0.00    +0.025 A 
ATOM      4  C   UNL     1      -2.518   3.674  25.817  0.00  0.00    +0.006 A 
ATOM      5  C   UNL     1      -2.994   2.876  25.732  0.00  0.00    +0.001 A 
ATOM      6  C   UNL     1      -3.550   2.859  24.702  0.00  0.00    +0.005 A 
ATOM      7  C   UNL     1      -3.263   3.464  24.629  0.00  0.00    +0.001 A 
ATOM      8  C   UNL     1      -2.943   4.148  24.538  0.00  0.00    +0.006 A 
BRANCH   3   2
ATOM      1  C   UNL     1      -1.285   5.230  25.045  0.00  0.00    +0.074 C 
ATOM      2  S   UNL     1      -2.044   4.999  25.363  0.00  0.00    -0.113 S 
ENDBRANCH   3   2
ENDBRANCH   9   6
BRANCH  19  21
ATOM     21  C   UNL     1      -3.129   1.832  24.027  0.00  0.00    +0.054 A 
ATOM     22  C   UNL     1      -3.711   2.290  23.665  0.00  0.00    +0.005 A 
ATOM     23  C   UNL     1      -4.100   2.877  24.096  0.00  0.00    +0.010 A 
ATOM     24  C   UNL     1      -3.907   3.005  24.888  0.00  0.00    +0.068 A 
ATOM     25  C   UNL     1      -3.324   2.546  25.249  0.00  0.00    +0.010 A 
ATOM     26  C   UNL     1      -2.935   1.959  24.818  0.00  0.00    +0.005 A 
BRANCH  24  27
ATOM     27  C   UNL     1      -4.399   3.674  25.259  0.00  0.00    +0.100 C 
ATOM     28  N   UNL     1      -5.269   4.005  25.337  0.00  0.00    -0.191 NA
ENDBRANCH  24  27
ENDBRANCH  19  21
TORSDOF 4
ENDMDL
MODEL 6
REMARK VINA RESULT:     -14.2      2.756      4.103
REMARK  Name = 
REMARK  4 active torsions:
REMARK  status: ('A' for Active; 'I' for Inactive)
REMARK    1  A    between atoms: S_2  and  C_3
REMARK    2  A    between atoms: C_6  and  C_9
REMARK    3  A    between atoms: C_19  and  C_21
REMARK    4  A    between atoms: C_24  and  C_27
REMARK                            x       y       z     vdW  Elec       q    Type
REMARK                         _______ _______ _______ _____ _____    ______ ____
ROOT
ATOM      9  C   UNL     1      -2.877   3.258  25.158  0.00  0.00    +0.056 A 
ATOM     10  C   UNL     1      -3.125   3.879  25.757  0.00  0.00    +0.006 A 
ATOM     11  C   UNL     1      -3.921   3.840  25.971  0.00  0.00    +0.013 A 
ATOM     12  C   UNL     1      -4.409   3.265  25.637  0.00  0.00    +0.041 A 
ATOM     13  C   UNL     1      -5.279   2.968  25.656  0.00  0.00    +0.058 C 
ATOM     14  C   UNL     1      -5.898   3.100  25.959  0.00  0.00    +0.011 C 
ATOM     15  C   UNL     1      -5.591   2.572  25.419  0.00  0.00    +0.043 C 
ATOM     16  C   UNL     1      -5.411   1.857  24.761  0.00  0.00    +0.096 C 
ATOM     17  N   UNL     1      -4.598   1.994  24.625  0.00  0.00    -0.276 N 
ATOM     18  C   UNL     1      -5.120   2.273  25.021  0.00  0.00    +0.099 C 
ATOM     19  C   UNL     1      -3.886   1.785  24.228  0.00  0.00    +0.249 C 
ATOM     20  O   UNL     1      -4.023   1.101  23.695  0.00  0.00    -0.270 OA
ATOM     29  C   UNL     1      -4.680   2.875  25.392  0.00  0.00    +0.110 C 
ATOM     30  N   UNL     1      -4.101   2.729  25.090  0.00  0.00    -0.299 N 
ATOM     31  C   UNL     1      -3.305   2.768  24.877  0.00  0.00    +0.261 A 
ATOM     32  O   UNL     1      -3.188   2.003  24.197  0.00  0.00    -0.267 OA
ENDROOT
BRANCH   9   6
ATOM      3  C   UNL     1      -0.467   2.569  24.858  0.00  0.00    +0.025 A 
ATOM      4  C   UNL     1      -0.800   2.475  25.607  0.00  0.00    +0.006 A 
ATOM      5  C   UNL     1      -1.683   2.705  25.800  0.00  0.00    +0.001 A 
ATOM      6  C   UNL     1      -2.198   3.127  24.838  0.00  0.00    +0.005 A 
ATOM      7  C   UNL     1      -1.595   3.009  24.561  0.00  0.00    +0.001 A 
ATOM      8  C   UNL     1      -0.918   2.879  24.241  0.00  0.00    +0.006 A 
BRANCH   3   2
ATOM      1  C   UNL     1       0.704   1.689  24.267  0.00  0.00    +0.074 C 
ATOM      2  S   UNL     1       0.379   2.334  24.725  0.00  0.00    -0.113 S 
ENDBRANCH   3   2
ENDBRANCH   9   6
BRANCH  19  21
ATOM     21  C   UNL     1      -3.228   2.393  24.537  0.00  0.00    +0.054 A 
ATOM     22  C   UNL     1      -3.102   3.053  24.058  0.00  0.00    +0.005 A 
ATOM     23  C   UNL     1      -2.541   3.619  24.275  0.00  0.00    +0.010 A 
ATOM     24  C   UNL     1      -2.107   3.525  24.970  0.00  0.00    +0.068 A 
ATOM     25  C   UNL     1      -2.234   2.865  25.449  0.00  0.00    +0.010 A 
ATOM     26  C   UNL     1      -2.795   2.299  25.233  0.00  0.00    +0.005 A 
BRANCH  24  27
ATOM     27  C   UNL     1      -1.522   4.207  25.106  0.00  0.00    +0.100 C 
ATOM     28  N   UNL     1      -1.437   5.137  25.066  0.00  0.00    -0.191 NA
ENDBRANCH  24  27
ENDBRANCH  19  21
TORSDOF 4
ENDMDL
MODEL 7
REMARK VINA RESULT:     -14.0      1.743      2.827
REMARK  Name = 
REMARK  4 active torsions:
REMARK  status: ('A' for Active; 'I' for Inactive)
REMARK    1  A    between atoms: S_2  and  C_3
REMARK    2  A    between atoms: C_6  and  C_9
REMARK    3  A    between atoms: C_19  and  C_21
REMARK    4  A    between atoms: C_24  and  C_27
REMARK                            x       y       z     vdW  Elec       q    Type
REMARK                         _______ _______ _______ _____ _____    ______ ____
ROOT
ATOM      9  C   UNL     1      -1.778   1.152  24.841  0.00  0.00    +0.056 A 
ATOM     10  C   UNL     1      -1.256   0.488  25.148  0.00  0.00    +0.006 A 
ATOM     11  C   UNL     1      -1.663  -0.210  25.312  0.00  0.00    +0.013 A 
ATOM     12  C   UNL     1      -2.478  -0.249  25.192  0.00  0.00    +0.041 A 
ATOM     13  C   UNL     1      -3.184  -0.833  25.270  0.00  0.00    +0.058 C 
ATOM     14  C   UNL     1      -3.335  -1.491  25.463  0.00  0.00    +0.011 C 
ATOM     15  C   UNL     1      -3.734  -0.839  25.181  0.00  0.00    +0.043 C 
ATOM     16  C   UNL     1      -4.383  -0.171  24.852  0.00  0.00    +0.096 C 
ATOM     17  N   UNL     1      -3.868   0.474  24.723  0.00  0.00    -0.276 N 
ATOM     18  C   UNL     1      -3.823  -0.199  24.953  0.00  0.00    +0.099 C 
ATOM     19  C   UNL     1      -3.754   1.271  24.476  0.00  0.00    +0.249 C 
ATOM     20  O   UNL     1      -4.518   1.627  24.232  0.00  0.00    -0.270 OA
ATOM     29  C   UNL     1      -3.003  -0.222  25.096  0.00  0.00    +0.110 C 
ATOM     30  N   UNL     1      -2.886   0.409  24.906  0.00  0.00    -0.299 N 
ATOM     31  C   UNL     1      -2.478   1.107  24.741  0.00  0.00    +0.261 A 
ATOM     32  O   UNL     1      -3.208   1.752  24.406  0.00  0.00    -0.267 OA
ENDROOT
BRANCH   9   6
ATOM      3  C   UNL     1      -1.063   3.570  24.963  0.00  0.00    +0.025 A 
ATOM      4  C   UNL     1      -1.096   3.146  25.670  0.00  0.00    +0.006 A 
ATOM      5  C   UNL     1      -1.350   2.250  25.711  0.00  0.00    +0.001 A 
ATOM      6  C   UNL     1      -1.599   1.863  24.634  0.00  0.00    +0.005 A 
ATOM      7  C   UNL     1      -1.439   2.493  24.458  0.00  0.00    +0.001 A 
ATOM      8  C   UNL     1      -1.260   3.203  24.251  0.00  0.00    +0.006 A 
BRANCH   3   2
ATOM      1  C   UNL     1      -1.290   5.131  25.049  0.00  0.00    +0.074 C 
ATOM      2  S   UNL     1      -0.815   4.423  24.978  0.00  0.00    -0.113 S 
ENDBRANCH   3   2
ENDBRANCH   9   6
BRANCH  19  21
ATOM     21  C   UNL     1      -2.826   1.442  24.572  0.00  0.00    +0.054 A 
ATOM     22  C   UNL     1      -2.376   1.350  23.887  0.00  0.00    +0.005 A 
ATOM     23  C   UNL     1      -1.562   1.485  23.908  0.00  0.00    +0.010 A 
ATOM     24  C   UNL     1      -1.199   1.711  24.613  0.00  0.00    +0.068 A 
ATOM     25  C   UNL     1      -1.650   1.802  25.298  0.00  0.00    +0.010 A 
ATOM     26  C   UNL     1      -2.464   1.668  25.278  0.00  0.00    +0.005 A 
BRANCH  24  27
ATOM     27  C   UNL     1      -0.303   1.831  24.516  0.00  0.00    +0.100 C 
ATOM     28  N   UNL     1       0.455   1.482  24.095  0.00  0.00    -0.191 NA
ENDBRANCH  24  27
ENDBRANCH  19  21
TORSDOF 4
ENDMDL
MODEL 8
REMARK VINA RESULT:     -13.7      2.183      4.726
REMARK  Name = 
REMARK  4 active torsions:
REMARK  status: ('A' for Active; 'I' for Inactive)
REMARK    1  A    between atoms: S_2  and  C_3
REMARK    2  A    between atoms: C_6  and  C_9
REMARK    3  A    between atoms: C_19  and  C_21
REMARK    4  A    between atoms: C_24  and  C_27
REMARK                            x       y       z     vdW  Elec       q    Type
REMARK                         _______ _______ _______ _____ _____    ______ ____
ROOT
ATOM      9  C   UNL     1      -1.235   1.940  24.657  0.00  0.00    +0.056 A 
ATOM     10  C   UNL     1      -0.383   2.225  24.652  0.00  0.00    +0.006 A 
ATOM     11  C   UNL     1      -0.299   3.034  24.790  0.00  0.00    +0.013 A 
ATOM     12  C   UNL     1      -0.967   3.501  24.916  0.00  0.00    +0.041 A 
ATOM     13  C   UNL     1      -1.206   4.372  25.087  0.00  0.00    +0.058 C 
ATOM     14  C   UNL     1      -0.931   5.010  25.182  0.00  0.00    +0.011 C 
ATOM     15  C   UNL     1      -1.671   4.670  25.170  0.00  0.00    +0.043 C 
ATOM     16  C   UNL     1      -2.633   4.449  25.193  0.00  0.00    +0.096 C 
ATOM     17  N   UNL     1      -2.592   3.628  25.045  0.00  0.00    -0.276 N 
ATOM     18  C   UNL     1      -2.140   4.174  25.113  0.00  0.00    +0.099 C 
ATOM     19  C   UNL     1      -2.986   2.891  24.940  0.00  0.00    +0.249 C 
ATOM     20  O   UNL     1      -3.854   2.995  25.015  0.00  0.00    -0.270 OA
ATOM     29  C   UNL     1      -1.430   3.758  24.992  0.00  0.00    +0.110 C 
ATOM     30  N   UNL     1      -1.718   3.160  24.905  0.00  0.00    -0.299 N 
ATOM     31  C   UNL     1      -1.801   2.351  24.767  0.00  0.00    +0.261 A 
ATOM     32  O   UNL     1      -2.819   2.192  24.805  0.00  0.00    -0.267 OA
ENDROOT
BRANCH   9   6
ATOM      3  C   UNL     1      -1.813  -0.489  25.031  0.00  0.00    +0.025 A 
ATOM      4  C   UNL     1      -1.365  -0.110  25.611  0.00  0.00    +0.006 A 
ATOM      5  C   UNL     1      -1.110   0.785  25.548  0.00  0.00    +0.001 A 
ATOM      6  C   UNL     1      -1.520   1.242  24.552  0.00  0.00    +0.005 A 
ATOM      7  C   UNL     1      -1.769   0.622  24.465  0.00  0.00    +0.001 A 
ATOM      8  C   UNL     1      -2.055  -0.075  24.359  0.00  0.00    +0.006 A 
BRANCH   3   2
ATOM      1  C   UNL     1      -2.800  -1.706  25.233  0.00  0.00    +0.074 C 
ATOM      2  S   UNL     1      -2.030  -1.343  25.137  0.00  0.00    -0.113 S 
ENDBRANCH   3   2
ENDBRANCH   9   6
BRANCH  19  21
ATOM     21  C   UNL     1      -2.303   2.252  24.782  0.00  0.00    +0.054 A 
ATOM     22  C   UNL     1      -2.153   2.083  23.989  0.00  0.00    +0.005 A 
ATOM     23  C   UNL     1      -1.570   1.534  23.788  0.00  0.00    +0.010 A 
ATOM     24  C   UNL     1      -1.137   1.157  24.380  0.00  0.00    +0.068 A 
ATOM     25  C   UNL     1      -1.288   1.327  25.174  0.00  0.00    +0.010 A 
ATOM     26  C   UNL     1      -1.871   1.875  25.375  0.00  0.00    +0.005 A 
BRANCH  24  27
ATOM     27  C   UNL     1      -0.525   0.576  24.042  0.00  0.00    +0.100 C 
ATOM     28  N   UNL     1       0.115   0.475  23.368  0.00  0.00    -0.191 NA
ENDBRANCH  24  27
ENDBRANCH  19  21
TORSDOF 4
ENDMDL
