MODEL 1
REMARK VINA RESULT:     -10.2      0.000      0.000
REMARK  Name = 
REMARK  8 active torsions:
REMARK  status: ('A' for Active; 'I' for Inactive)
REMARK    1  A    between atoms: N_4  and  C_22
REMARK    2  A    between atoms: C_7  and  C_8
REMARK    3  A    between atoms: C_10  and  N_11
REMARK    4  A    between atoms: C_12  and  C_14
REMARK    5  A    between atoms: C_14  and  O_15
REMARK    6  A    between atoms: O_15  and  C_16
REMARK    7  A    between atoms: C_16  and  C_17
REMARK    8  A    between atoms: C_25  and  C_28
REMARK                            x       y       z     vdW  Elec       q    Type
REMARK                         _______ _______ _______ _____ _____    ______ ____
ROOT
ATOM      1  C   UNL     1      -3.380  -0.991  24.220  0.00  0.00    +0.054 C 
ATOM      2  C   UNL     1      -3.357  -0.201  24.455  0.00  0.00    +0.077 A 
ATOM      3  N   UNL     1      -4.010   0.296  24.547  0.00  0.00    -0.170 NA
ATOM      4  N   UNL     1      -3.735   1.035  24.789  0.00  0.00    -0.234 N 
ATOM      5  C   UNL     1      -2.913   0.995  24.846  0.00  0.00    +0.058 A 
ATOM      6  C   UNL     1      -2.412   1.611  25.071  0.00  0.00    +0.052 C 
ATOM      7  C   UNL     1      -2.679   0.231  24.640  0.00  0.00    +0.010 A 
ENDROOT
BRANCH   4  22
ATOM     22  C   UNL     1      -4.200   1.698  24.946  0.00  0.00    +0.082 A 
ATOM     23  C   UNL     1      -4.742   1.684  25.568  0.00  0.00    +0.019 A 
ATOM     24  C   UNL     1      -5.207   2.347  25.724  0.00  0.00    +0.005 A 
ATOM     25  C   UNL     1      -5.131   3.024  25.259  0.00  0.00    +0.072 A 
ATOM     26  C   UNL     1      -4.589   3.038  24.637  0.00  0.00    +0.005 A 
ATOM     27  C   UNL     1      -4.124   2.375  24.480  0.00  0.00    +0.019 A 
BRANCH  25  28
ATOM     28  C   UNL     1      -5.597   3.687  25.416  0.00  0.00    +0.419 C 
ATOM     29  F   UNL     1      -6.062   4.350  25.573  0.00  0.00    -0.166 F 
ATOM     30  F   UNL     1      -4.917   4.150  25.475  0.00  0.00    -0.166 F 
ATOM     31  F   UNL     1      -6.276   3.223  25.357  0.00  0.00    -0.166 F 
ENDBRANCH  25  28
ENDBRANCH   4  22
BRANCH   7   8
ATOM      8  C   UNL     1      -1.905  -0.051  24.622  0.00  0.00    +0.048 C 
ATOM      9  C   UNL     1      -1.434  -0.131  23.949  0.00  0.00    +0.035 C 
ATOM     10  C   UNL     1      -0.703  -0.433  24.183  0.00  0.00    +0.118 C 
ATOM     20  C   UNL     1      -0.722  -0.540  25.001  0.00  0.00    -0.009 C 
ATOM     21  C   UNL     1      -1.464  -0.305  25.272  0.00  0.00    -0.025 C 
BRANCH  10  11
ATOM     11  N   UNL     1      -0.065  -0.599  23.688  0.00  0.00    -0.201 NA
ATOM     12  C   UNL     1       0.459   0.002  23.473  0.00  0.00    +0.272 C 
ATOM     13  O   UNL     1       0.344   0.768  23.755  0.00  0.00    -0.271 OA
BRANCH  12  14
ATOM     14  C   UNL     1       1.096  -0.164  22.978  0.00  0.00    +0.229 C 
BRANCH  14  15
ATOM     15  O   UNL     1       1.803   0.253  23.061  0.00  0.00    -0.333 OA
BRANCH  15  16
ATOM     16  C   UNL     1       2.428   0.114  22.541  0.00  0.00    +0.257 C 
BRANCH  16  17
ATOM     17  C   UNL     1       3.188   0.373  22.730  0.00  0.00    +0.394 C 
ATOM     18  O   UNL     1       3.366   1.178  22.717  0.00  0.00    -0.243 OA
ATOM     19  O   UNL     1       3.771  -0.175  22.933  0.00  0.00    -0.243 OA
ENDBRANCH  16  17
ENDBRANCH  15  16
ENDBRANCH  14  15
ENDBRANCH  12  14
ENDBRANCH  10  11
ENDBRANCH   7   8
TORSDOF 8
ENDMDL
MODEL 2
REMARK VINA RESULT:      -9.9      3.405      4.408
REMARK  Name = 
REMARK  8 active torsions:
REMARK  status: ('A' for Active; 'I' for Inactive)
REMARK    1  A    between atoms: N_4  and  C_22
REMARK    2  A    between atoms: C_7  and  C_8
REMARK    3  A    between atoms: C_10  and  N_11
REMARK    4  A    between atoms: C_12  and  C_14
REMARK    5  A    between atoms: C_14  and  O_15
REMARK    6  A    between atoms: O_15  and  C_16
REMARK    7  A    between atoms: C_16  and  C_17
REMARK    8  A    between atoms: C_25  and  C_28
REMARK                            x       y       z     vdW  Elec       q    Type
REMARK                         _______ _______ _______ _____ _____    ______ ____
ROOT
ATOM      1  C   UNL     1      -5.463   2.756  25.826  0.00  0.00    +0.054 C 
ATOM      2  C   UNL     1      -4.688   2.822  25.550  0.00  0.00    +0.077 A 
ATOM      3  N   UNL     1      -4.215   3.496  25.594  0.00  0.00    -0.170 NA
ATOM      4  N   UNL     1      -3.485   3.317  25.253  0.00  0.00    -0.234 N 
ATOM      5  C   UNL     1      -3.508   2.532  24.999  0.00  0.00    +0.058 A 
ATOM      6  C   UNL     1      -2.895   2.125  24.626  0.00  0.00    +0.052 C 
ATOM      7  C   UNL     1      -4.252   2.226  25.183  0.00  0.00    +0.010 A 
ENDROOT
BRANCH   4  22
ATOM     22  C   UNL     1      -2.844   3.832  25.179  0.00  0.00    +0.082 A 
ATOM     23  C   UNL     1      -2.771   4.305  24.508  0.00  0.00    +0.019 A 
ATOM     24  C   UNL     1      -2.131   4.819  24.434  0.00  0.00    +0.005 A 
ATOM     25  C   UNL     1      -1.564   4.862  25.032  0.00  0.00    +0.072 A 
ATOM     26  C   UNL     1      -1.638   4.388  25.704  0.00  0.00    +0.005 A 
ATOM     27  C   UNL     1      -2.278   3.874  25.778  0.00  0.00    +0.019 A 
BRANCH  25  28
ATOM     28  C   UNL     1      -0.924   5.377  24.958  0.00  0.00    +0.419 C 
ATOM     29  F   UNL     1      -0.283   5.892  24.884  0.00  0.00    -0.166 F 
ATOM     30  F   UNL     1      -1.373   5.983  25.293  0.00  0.00    -0.166 F 
ATOM     31  F   UNL     1      -0.475   4.771  24.624  0.00  0.00    -0.166 F 
ENDBRANCH  25  28
ENDBRANCH   4  22
BRANCH   7   8
ATOM      8  C   UNL     1      -4.514   1.460  25.026  0.00  0.00    +0.048 C 
ATOM      9  C   UNL     1      -4.094   0.765  25.174  0.00  0.00    +0.035 C 
ATOM     10  C   UNL     1      -4.561   0.129  24.935  0.00  0.00    +0.118 C 
ATOM     20  C   UNL     1      -5.269   0.430  24.639  0.00  0.00    -0.009 C 
ATOM     21  C   UNL     1      -5.240   1.253  24.695  0.00  0.00    -0.025 C 
BRANCH  10  11
ATOM     11  N   UNL     1      -4.357  -0.668  24.982  0.00  0.00    -0.201 NA
ATOM     12  C   UNL     1      -4.117  -1.075  24.306  0.00  0.00    +0.272 C 
ATOM     13  O   UNL     1      -4.082  -0.683  23.580  0.00  0.00    -0.271 OA
BRANCH  12  14
ATOM     14  C   UNL     1      -3.912  -1.872  24.353  0.00  0.00    +0.229 C 
BRANCH  14  15
ATOM     15  O   UNL     1      -3.165  -2.122  24.109  0.00  0.00    -0.333 OA
BRANCH  15  16
ATOM     16  C   UNL     1      -2.747  -2.673  24.558  0.00  0.00    +0.257 C 
BRANCH  16  17
ATOM     17  C   UNL     1      -1.931  -2.752  24.460  0.00  0.00    +0.394 C 
ATOM     18  O   UNL     1      -1.628  -3.074  23.765  0.00  0.00    -0.243 OA
ATOM     19  O   UNL     1      -1.419  -2.509  25.059  0.00  0.00    -0.243 OA
ENDBRANCH  16  17
ENDBRANCH  15  16
ENDBRANCH  14  15
ENDBRANCH  12  14
ENDBRANCH  10  11
ENDBRANCH   7   8
TORSDOF 8
ENDMDL
MODEL 3
REMARK VINA RESULT:      -9.8      3.808      5.086
REMARK  Name = 
REMARK  8 active torsions:
REMARK  status: ('A' for Active; 'I' for Inactive)
REMARK    1  A    between atoms: N_4  and  C_22
REMARK    2  A    between atoms: C_7  and  C_8
REMARK    3  A    between atoms: C_10  and  N_11
REMARK    4  A    between atoms: C_12  and  C_14
REMARK    5  A    between atoms: C_14  and  O_15
REMARK    6  A    between atoms: O_15  and  C_16
REMARK    7  A    between atoms: C_16  and  C_17
REMARK    8  A    between atoms: C_25  and  C_28
REMARK                            x       y       z     vdW  Elec       q    Type
REMARK                         _______ _______ _______ _____ _____    ______ ____
ROOT
ATOM      1  C   UNL     1      -5.767   1.449  25.739  0.00  0.00    +0.054 C 
ATOM      2  C   UNL     1      -5.182   1.020  25.346  0.00  0.00    +0.077 A 
ATOM      3  N   UNL     1      -5.101   0.199  25.346  0.00  0.00    -0.170 NA
ATOM      4  N   UNL     1      -4.444   0.007  24.884  0.00  0.00    -0.234 N 
ATOM      5  C   UNL     1      -4.121   0.711  24.599  0.00  0.00    +0.058 A 
ATOM      6  C   UNL     1      -3.457   0.777  24.112  0.00  0.00    +0.052 C 
ATOM      7  C   UNL     1      -4.576   1.336  24.884  0.00  0.00    +0.010 A 
ENDROOT
BRANCH   4  22
ATOM     22  C   UNL     1      -4.162  -0.753  24.734  0.00  0.00    +0.082 A 
ATOM     23  C   UNL     1      -4.373  -1.141  24.037  0.00  0.00    +0.019 A 
ATOM     24  C   UNL     1      -4.090  -1.901  23.887  0.00  0.00    +0.005 A 
ATOM     25  C   UNL     1      -3.597  -2.274  24.433  0.00  0.00    +0.072 A 
ATOM     26  C   UNL     1      -3.385  -1.885  25.130  0.00  0.00    +0.005 A 
ATOM     27  C   UNL     1      -3.668  -1.125  25.280  0.00  0.00    +0.019 A 
BRANCH  25  28
ATOM     28  C   UNL     1      -3.314  -3.034  24.283  0.00  0.00    +0.419 C 
ATOM     29  F   UNL     1      -3.032  -3.794  24.133  0.00  0.00    -0.166 F 
ATOM     30  F   UNL     1      -2.543  -2.742  24.257  0.00  0.00    -0.166 F 
ATOM     31  F   UNL     1      -4.085  -3.326  24.309  0.00  0.00    -0.166 F 
ENDBRANCH  25  28
ENDBRANCH   4  22
BRANCH   7   8
ATOM      8  C   UNL     1      -4.449   2.137  24.734  0.00  0.00    +0.048 C 
ATOM      9  C   UNL     1      -3.737   2.542  24.834  0.00  0.00    +0.035 C 
ATOM     10  C   UNL     1      -3.859   3.329  24.621  0.00  0.00    +0.118 C 
ATOM     20  C   UNL     1      -4.646   3.412  24.389  0.00  0.00    -0.009 C 
ATOM     21  C   UNL     1      -5.011   2.675  24.459  0.00  0.00    -0.025 C 
BRANCH  10  11
ATOM     11  N   UNL     1      -3.293   3.929  24.636  0.00  0.00    -0.201 NA
ATOM     12  C   UNL     1      -3.043   4.243  25.357  0.00  0.00    +0.272 C 
ATOM     13  O   UNL     1      -3.360   3.957  26.063  0.00  0.00    -0.271 OA
BRANCH  12  14
ATOM     14  C   UNL     1      -2.478   4.843  25.372  0.00  0.00    +0.229 C 
BRANCH  14  15
ATOM     15  O   UNL     1      -1.676   4.653  25.412  0.00  0.00    -0.333 OA
BRANCH  15  16
ATOM     16  C   UNL     1      -1.116   5.155  25.074  0.00  0.00    +0.257 C 
BRANCH  16  17
ATOM     17  C   UNL     1      -0.412   4.846  24.773  0.00  0.00    +0.394 C 
ATOM     18  O   UNL     1      -0.086   5.160  24.084  0.00  0.00    -0.243 OA
ATOM     19  O   UNL     1      -0.036   4.223  25.161  0.00  0.00    -0.243 OA
ENDBRANCH  16  17
ENDBRANCH  15  16
ENDBRANCH  14  15
ENDBRANCH  12  14
ENDBRANCH  10  11
ENDBRANCH   7   8
TORSDOF 8
ENDMDL
MODEL 4
REMARK VINA RESULT:      -9.5      1.182      1.932
REMARK  Name = 
REMARK  8 active torsions:
REMARK  status: ('A' for Active; 'I' for Inactive)
REMARK    1  A    between atoms: N_4  and  C_22
REMARK    2  A    between atoms: C_7  and  C_8
REMARK    3  A    between atoms: C_10  and  N_11
REMARK    4  A    between atoms: C_12  and  C_14
REMARK    5  A    between atoms: C_14  and  O_15
REMARK    6  A    between atoms: O_15  and  C_16
REMARK    7  A    between atoms: C_16  and  C_17
REMARK    8  A    between atoms: C_25  and  C_28
REMARK                            x       y       z     vdW  Elec       q    Type
REMARK                         _______ _______ _______ _____ _____    ______ ____
ROOT
ATOM      1  C   UNL     1      -0.777  -0.649  25.541  0.00  0.00    +0.054 C 
ATOM      2  C   UNL     1      -1.295  -0.155  25.130  0.00  0.00    +0.077 A 
ATOM      3  N   UNL     1      -2.056   0.055  25.369  0.00  0.00    -0.170 NA
ATOM      4  N   UNL     1      -2.374   0.555  24.794  0.00  0.00    -0.234 N 
ATOM      5  C   UNL     1      -1.809   0.654  24.202  0.00  0.00    +0.058 A 
ATOM      6  C   UNL     1      -1.896   1.112  23.520  0.00  0.00    +0.052 C 
ATOM      7  C   UNL     1      -1.142   0.215  24.408  0.00  0.00    +0.010 A 
ENDROOT
BRANCH   4  22
ATOM     22  C   UNL     1      -3.125   0.896  24.811  0.00  0.00    +0.082 A 
ATOM     23  C   UNL     1      -3.209   1.701  24.969  0.00  0.00    +0.019 A 
ATOM     24  C   UNL     1      -3.960   2.042  24.985  0.00  0.00    +0.005 A 
ATOM     25  C   UNL     1      -4.627   1.578  24.843  0.00  0.00    +0.072 A 
ATOM     26  C   UNL     1      -4.543   0.773  24.684  0.00  0.00    +0.005 A 
ATOM     27  C   UNL     1      -3.792   0.432  24.668  0.00  0.00    +0.019 A 
BRANCH  25  28
ATOM     28  C   UNL     1      -5.378   1.919  24.859  0.00  0.00    +0.419 C 
ATOM     29  F   UNL     1      -6.129   2.260  24.876  0.00  0.00    -0.166 F 
ATOM     30  F   UNL     1      -5.200   2.344  24.175  0.00  0.00    -0.166 F 
ATOM     31  F   UNL     1      -5.556   1.495  25.544  0.00  0.00    -0.166 F 
ENDBRANCH  25  28
ENDBRANCH   4  22
BRANCH   7   8
ATOM      8  C   UNL     1      -0.445   0.157  23.972  0.00  0.00    +0.048 C 
ATOM      9  C   UNL     1       0.179   0.696  23.981  0.00  0.00    +0.035 C 
ATOM     10  C   UNL     1       0.762   0.423  23.465  0.00  0.00    +0.118 C 
ATOM     20  C   UNL     1       0.498  -0.286  23.137  0.00  0.00    -0.009 C 
ATOM     21  C   UNL     1      -0.248  -0.451  23.450  0.00  0.00    -0.025 C 
BRANCH  10  11
ATOM     11  N   UNL     1       1.481   0.792  23.305  0.00  0.00    -0.201 NA
ATOM     12  C   UNL     1       2.104   0.360  22.980  0.00  0.00    +0.272 C 
ATOM     13  O   UNL     1       2.007  -0.442  22.814  0.00  0.00    -0.271 OA
BRANCH  12  14
ATOM     14  C   UNL     1       2.823   0.730  22.820  0.00  0.00    +0.229 C 
BRANCH  14  15
ATOM     15  O   UNL     1       3.533   0.357  23.018  0.00  0.00    -0.333 OA
BRANCH  15  16
ATOM     16  C   UNL     1       4.250   0.747  22.903  0.00  0.00    +0.257 C 
BRANCH  16  17
ATOM     17  C   UNL     1       4.933   0.473  23.276  0.00  0.00    +0.394 C 
ATOM     18  O   UNL     1       5.156   0.781  24.008  0.00  0.00    -0.243 OA
ATOM     19  O   UNL     1       5.394  -0.108  22.916  0.00  0.00    -0.243 OA
ENDBRANCH  16  17
ENDBRANCH  15  16
ENDBRANCH  14  15
ENDBRANCH  12  14
ENDBRANCH  10  11
ENDBRANCH   7   8
TORSDOF 8
ENDMDL
MODEL 5
REMARK VINA RESULT:      -9.4      0.957      1.513
REMARK  Name = 
REMARK  8 active torsions:
REMARK  status: ('A' for Active; 'I' for Inactive)
REMARK    1  A    between atoms: N_4  and  C_22
REMARK    2  A    between atoms: C_7  and  C_8
REMARK    3  A    between atoms: C_10  and  N_11
REMARK    4  A    between atoms: C_12  and  C_14
REMARK    5  A    between atoms: C_14  and  O_15
REMARK    6  A    between atoms: O_15  and  C_16
REMARK    7  A    between atoms: C_16  and  C_17
REMARK    8  A    between atoms: C_25  and  C_28
REMARK                            x       y       z     vdW  Elec       q    Type
REMARK                         _______ _______ _______ _____ _____    ______ ____
ROOT
ATOM      1  C   UNL     1      -0.995   1.997  25.506  0.00  0.00    +0.054 C 
ATOM      2  C   UNL     1      -1.698   1.672  25.221  0.00  0.00    +0.077 A 
ATOM      3  N   UNL     1      -2.453   1.991  25.320  0.00  0.00    -0.170 NA
ATOM      4  N   UNL     1      -2.992   1.488  24.948  0.00  0.00    -0.234 N 
ATOM      5  C   UNL     1      -2.569   0.860  24.620  0.00  0.00    +0.058 A 
ATOM      6  C   UNL     1      -2.890   0.229  24.197  0.00  0.00    +0.052 C 
ATOM      7  C   UNL     1      -1.770   0.974  24.789  0.00  0.00    +0.010 A 
ENDROOT
BRANCH   4  22
ATOM     22  C   UNL     1      -3.809   1.595  24.911  0.00  0.00    +0.082 A 
ATOM     23  C   UNL     1      -4.310   1.087  25.325  0.00  0.00    +0.019 A 
ATOM     24  C   UNL     1      -5.127   1.194  25.288  0.00  0.00    +0.005 A 
ATOM     25  C   UNL     1      -5.443   1.809  24.837  0.00  0.00    +0.072 A 
ATOM     26  C   UNL     1      -4.942   2.317  24.424  0.00  0.00    +0.005 A 
ATOM     27  C   UNL     1      -4.124   2.210  24.461  0.00  0.00    +0.019 A 
BRANCH  25  28
ATOM     28  C   UNL     1      -6.260   1.916  24.801  0.00  0.00    +0.419 C 
ATOM     29  F   UNL     1      -7.078   2.023  24.764  0.00  0.00    -0.166 F 
ATOM     30  F   UNL     1      -6.339   1.188  24.420  0.00  0.00    -0.166 F 
ATOM     31  F   UNL     1      -6.182   2.644  25.181  0.00  0.00    -0.166 F 
ENDBRANCH  25  28
ENDBRANCH   4  22
BRANCH   7   8
ATOM      8  C   UNL     1      -1.151   0.477  24.564  0.00  0.00    +0.048 C 
ATOM      9  C   UNL     1      -0.685   0.559  23.889  0.00  0.00    +0.035 C 
ATOM     10  C   UNL     1      -0.134  -0.055  23.882  0.00  0.00    +0.118 C 
ATOM     20  C   UNL     1      -0.260  -0.517  24.553  0.00  0.00    -0.009 C 
ATOM     21  C   UNL     1      -0.888  -0.188  24.975  0.00  0.00    -0.025 C 
BRANCH  10  11
ATOM     11  N   UNL     1       0.440  -0.185  23.306  0.00  0.00    -0.201 NA
ATOM     12  C   UNL     1       1.126   0.274  23.294  0.00  0.00    +0.272 C 
ATOM     13  O   UNL     1       1.236   0.864  23.860  0.00  0.00    -0.271 OA
BRANCH  12  14
ATOM     14  C   UNL     1       1.701   0.144  22.718  0.00  0.00    +0.229 C 
BRANCH  14  15
ATOM     15  O   UNL     1       2.465   0.438  22.822  0.00  0.00    -0.333 OA
BRANCH  15  16
ATOM     16  C   UNL     1       3.079   0.173  22.340  0.00  0.00    +0.257 C 
BRANCH  16  17
ATOM     17  C   UNL     1       3.852   0.425  22.479  0.00  0.00    +0.394 C 
ATOM     18  O   UNL     1       4.137   1.105  22.110  0.00  0.00    -0.243 OA
ATOM     19  O   UNL     1       4.340  -0.003  22.988  0.00  0.00    -0.243 OA
ENDBRANCH  16  17
ENDBRANCH  15  16
ENDBRANCH  14  15
ENDBRANCH  12  14
ENDBRANCH  10  11
ENDBRANCH   7   8
TORSDOF 8
ENDMDL
