REMARK  Name = 
REMARK  8 active torsions:
REMARK  status: ('A' for Active; 'I' for Inactive)
REMARK    1  A    between atoms: O_2  and  C_3
REMARK    2  A    between atoms: C_3  and  C_4
REMARK    3  A    between atoms: N_6  and  C_7
REMARK    4  A    between atoms: C_14  and  C_15
REMARK    5  A    between atoms: C_15  and  C_17
REMARK    6  A    between atoms: N_19  and  C_21
REMARK    7  A    between atoms: C_21  and  C_22
REMARK    8  A    between atoms: C_22  and  C_23
REMARK                            x       y       z     vdW  Elec       q    Type
REMARK                         _______ _______ _______ _____ _____    ______ ____
ROOT
ATOM      7  C   UNL     1      -4.287   2.475   0.000  0.00  0.00    +0.095 C 
ATOM      8  C   UNL     1      -4.287   3.300   0.000  0.00  0.00    +0.022 C 
ATOM      9  C   UNL     1      -3.572   3.712   0.000  0.00  0.00    +0.002 C 
ATOM     10  C   UNL     1      -2.858   3.300   0.000  0.00  0.00    +0.002 C 
ATOM     11  C   UNL     1      -2.858   4.125   0.000  0.00  0.00    +0.000 C 
ATOM     12  C   UNL     1      -2.143   3.712   0.000  0.00  0.00    +0.000 C 
ATOM     13  C   UNL     1      -1.429   3.300   0.000  0.00  0.00    +0.003 C 
ATOM     14  C   UNL     1      -1.429   2.475   0.000  0.00  0.00    +0.039 C 
ATOM     25  C   UNL     1      -2.143   2.062   0.000  0.00  0.00    +0.152 C 
ATOM     26  O   UNL     1      -2.143   1.238   0.000  0.00  0.00    -0.223 OA
ATOM     27  C   UNL     1      -2.858   2.475   0.000  0.00  0.00    +0.032 C 
ATOM     28  C   UNL     1      -3.572   2.062   0.000  0.00  0.00    +0.022 C 
ATOM     29  C   UNL     1      -3.572   1.238   0.000  0.00  0.00    +0.002 C 
ENDROOT
BRANCH   7   6
ATOM      4  C   UNL     1      -5.716   2.475   0.000  0.00  0.00    +0.272 C 
ATOM      5  O   UNL     1      -5.716   3.300   0.000  0.00  0.00    -0.271 OA
ATOM      6  N   UNL     1      -5.001   2.062   0.000  0.00  0.00    -0.205 NA
BRANCH   4   3
ATOM      3  C   UNL     1      -6.430   2.062   0.000  0.00  0.00    +0.229 C 
BRANCH   3   2
ATOM      1  C   UNL     1      -7.859   2.062   0.000  0.00  0.00    +0.175 C 
ATOM      2  O   UNL     1      -7.145   2.475   0.000  0.00  0.00    -0.342 OA
ENDBRANCH   3   2
ENDBRANCH   4   3
ENDBRANCH   7   6
BRANCH  14  15
ATOM     15  C   UNL     1      -0.715   2.062   0.000  0.00  0.00    +0.079 C 
ATOM     16  C   UNL     1      -0.715   1.238   0.000  0.00  0.00    +0.010 C 
BRANCH  15  17
ATOM     17  C   UNL     1       0.000   2.475   0.000  0.00  0.00    +0.225 C 
ATOM     18  O   UNL     1       0.000   3.300   0.000  0.00  0.00    -0.275 OA
ATOM     19  N   UNL     1       0.715   2.062   0.000  0.00  0.00    -0.277 N 
ATOM     20  C   UNL     1       0.715   1.238   0.000  0.00  0.00    +0.115 C 
BRANCH  19  21
ATOM     21  C   UNL     1       1.429   2.475   0.000  0.00  0.00    +0.110 C 
BRANCH  21  22
ATOM     22  C   UNL     1       2.143   2.062   0.000  0.00  0.00    +0.127 C 
BRANCH  22  23
ATOM     23  C   UNL     1       2.858   2.475   0.000  0.00  0.00    +0.075 C 
ATOM     24  N   UNL     1       3.572   2.888   0.000  0.00  0.00    -0.196 NA
ENDBRANCH  22  23
ENDBRANCH  21  22
ENDBRANCH  19  21
ENDBRANCH  15  17
ENDBRANCH  14  15
TORSDOF 8
