MODEL 1
REMARK VINA RESULT:     -11.6      0.000      0.000
REMARK  Name = 
REMARK  5 active torsions:
REMARK  status: ('A' for Active; 'I' for Inactive)
REMARK    1  A    between atoms: C_2  and  N_3
REMARK    2  A    between atoms: N_6  and  C_7
REMARK    3  A    between atoms: C_9  and  C_12
REMARK    4  A    between atoms: N_15  and  C_19
REMARK    5  A    between atoms: C_22  and  O_23
REMARK                            x       y       z     vdW  Elec       q    Type
REMARK                         _______ _______ _______ _____ _____    ______ ____
ROOT
ATOM     12  C   UNL     1      -4.294   1.483  24.737  0.00  0.00    +0.010 A 
ATOM     13  C   UNL     1      -3.874   0.794  24.566  0.00  0.00    +0.058 A 
ATOM     14  C   UNL     1      -3.133   0.755  24.207  0.00  0.00    +0.052 C 
ATOM     15  N   UNL     1      -4.326   0.151  24.817  0.00  0.00    -0.234 N 
ATOM     16  N   UNL     1      -5.025   0.442  25.144  0.00  0.00    -0.170 NA
ATOM     17  C   UNL     1      -5.006   1.266  25.094  0.00  0.00    +0.077 A 
ATOM     18  C   UNL     1      -5.594   1.782  25.356  0.00  0.00    +0.054 C 
ENDROOT
BRANCH  15  19
ATOM     19  C   UNL     1      -4.116  -0.644  24.753  0.00  0.00    +0.083 A 
ATOM     20  C   UNL     1      -3.713  -1.015  25.371  0.00  0.00    +0.022 A 
ATOM     21  C   UNL     1      -3.503  -1.810  25.308  0.00  0.00    +0.038 A 
ATOM     22  C   UNL     1      -3.696  -2.235  24.627  0.00  0.00    +0.139 A 
ATOM     25  C   UNL     1      -4.099  -1.864  24.010  0.00  0.00    +0.038 A 
ATOM     26  C   UNL     1      -4.309  -1.069  24.073  0.00  0.00    +0.022 A 
BRANCH  22  23
ATOM     23  O   UNL     1      -3.486  -3.030  24.564  0.00  0.00    -0.471 OA
ATOM     24  C   UNL     1      -2.701  -3.239  24.419  0.00  0.00    +0.252 C 
ENDBRANCH  22  23
ENDBRANCH  15  19
BRANCH  12   9
ATOM      7  C   UNL     1      -3.477   3.455  24.701  0.00  0.00    +0.119 C 
ATOM      8  C   UNL     1      -3.596   2.731  25.079  0.00  0.00    +0.035 C 
ATOM      9  C   UNL     1      -4.046   2.253  24.579  0.00  0.00    +0.048 C 
ATOM     10  C   UNL     1      -4.205   2.683  23.892  0.00  0.00    -0.025 C 
ATOM     11  C   UNL     1      -3.853   3.425  23.968  0.00  0.00    -0.009 C 
BRANCH   7   6
ATOM      3  N   UNL     1      -1.827   4.814  25.146  0.00  0.00    -0.187 NA
ATOM      4  C   UNL     1      -2.249   4.173  24.842  0.00  0.00    +0.339 C 
ATOM      5  O   UNL     1      -1.867   3.610  24.378  0.00  0.00    -0.249 OA
ATOM      6  N   UNL     1      -3.055   4.096  25.005  0.00  0.00    -0.184 NA
BRANCH   3   2
ATOM      1  C   UNL     1      -0.681   5.642  24.937  0.00  0.00    +0.025 C 
ATOM      2  C   UNL     1      -1.022   4.891  24.983  0.00  0.00    +0.117 C 
ENDBRANCH   3   2
ENDBRANCH   7   6
ENDBRANCH  12   9
TORSDOF 5
ENDMDL
MODEL 2
REMARK VINA RESULT:      -9.7      2.667      4.443
REMARK  Name = 
REMARK  5 active torsions:
REMARK  status: ('A' for Active; 'I' for Inactive)
REMARK    1  A    between atoms: C_2  and  N_3
REMARK    2  A    between atoms: N_6  and  C_7
REMARK    3  A    between atoms: C_9  and  C_12
REMARK    4  A    between atoms: N_15  and  C_19
REMARK    5  A    between atoms: C_22  and  O_23
REMARK                            x       y       z     vdW  Elec       q    Type
REMARK                         _______ _______ _______ _____ _____    ______ ____
ROOT
ATOM     12  C   UNL     1      -2.895  -0.166  24.738  0.00  0.00    +0.010 A 
ATOM     13  C   UNL     1      -3.166   0.596  24.902  0.00  0.00    +0.058 A 
ATOM     14  C   UNL     1      -2.700   1.241  25.115  0.00  0.00    +0.052 C 
ATOM     15  N   UNL     1      -3.986   0.598  24.815  0.00  0.00    -0.234 N 
ATOM     16  N   UNL     1      -4.223  -0.162  24.598  0.00  0.00    -0.170 NA
ATOM     17  C   UNL     1      -3.548  -0.634  24.551  0.00  0.00    +0.077 A 
ATOM     18  C   UNL     1      -3.529  -1.435  24.350  0.00  0.00    +0.054 C 
ENDROOT
BRANCH  15  19
ATOM     19  C   UNL     1      -4.485   1.247  24.926  0.00  0.00    +0.083 A 
ATOM     20  C   UNL     1      -5.045   1.237  25.532  0.00  0.00    +0.022 A 
ATOM     21  C   UNL     1      -5.543   1.885  25.643  0.00  0.00    +0.038 A 
ATOM     22  C   UNL     1      -5.481   2.543  25.149  0.00  0.00    +0.139 A 
ATOM     25  C   UNL     1      -4.921   2.552  24.543  0.00  0.00    +0.038 A 
ATOM     26  C   UNL     1      -4.422   1.904  24.432  0.00  0.00    +0.022 A 
BRANCH  22  23
ATOM     23  O   UNL     1      -5.979   3.191  25.260  0.00  0.00    -0.471 OA
ATOM     24  C   UNL     1      -5.679   3.893  25.573  0.00  0.00    +0.252 C 
ENDBRANCH  22  23
ENDBRANCH  15  19
BRANCH  12   9
ATOM      7  C   UNL     1      -0.878  -0.765  24.381  0.00  0.00    +0.119 C 
ATOM      8  C   UNL     1      -1.611  -0.506  24.107  0.00  0.00    +0.035 C 
ATOM      9  C   UNL     1      -2.109  -0.415  24.759  0.00  0.00    +0.048 C 
ATOM     10  C   UNL     1      -1.682  -0.619  25.436  0.00  0.00    -0.025 C 
ATOM     11  C   UNL     1      -0.921  -0.834  25.202  0.00  0.00    -0.009 C 
BRANCH   7   6
ATOM      3  N   UNL     1       0.932  -0.469  23.196  0.00  0.00    -0.187 NA
ATOM      4  C   UNL     1       0.270  -0.308  23.662  0.00  0.00    +0.339 C 
ATOM      5  O   UNL     1       0.094   0.468  23.874  0.00  0.00    -0.249 OA
ATOM      6  N   UNL     1      -0.215  -0.926  23.915  0.00  0.00    -0.184 NA
BRANCH   3   2
ATOM      1  C   UNL     1       2.085  -0.014  22.485  0.00  0.00    +0.025 C 
ATOM      2  C   UNL     1       1.417   0.148  22.943  0.00  0.00    +0.117 C 
ENDBRANCH   3   2
ENDBRANCH   7   6
ENDBRANCH  12   9
TORSDOF 5
ENDMDL
MODEL 3
REMARK VINA RESULT:      -9.4      1.102      5.368
REMARK  Name = 
REMARK  5 active torsions:
REMARK  status: ('A' for Active; 'I' for Inactive)
REMARK    1  A    between atoms: C_2  and  N_3
REMARK    2  A    between atoms: N_6  and  C_7
REMARK    3  A    between atoms: C_9  and  C_12
REMARK    4  A    between atoms: N_15  and  C_19
REMARK    5  A    between atoms: C_22  and  O_23
REMARK                            x       y       z     vdW  Elec       q    Type
REMARK                         _______ _______ _______ _____ _____    ______ ____
ROOT
ATOM     12  C   UNL     1      -4.169   1.915  24.895  0.00  0.00    +0.010 A 
ATOM     13  C   UNL     1      -3.429   2.262  25.003  0.00  0.00    +0.058 A 
ATOM     14  C   UNL     1      -2.720   1.862  25.135  0.00  0.00    +0.052 C 
ATOM     15  N   UNL     1      -3.523   3.081  24.956  0.00  0.00    -0.234 N 
ATOM     16  N   UNL     1      -4.320   3.239  24.818  0.00  0.00    -0.170 NA
ATOM     17  C   UNL     1      -4.720   2.518  24.780  0.00  0.00    +0.077 A 
ATOM     18  C   UNL     1      -5.529   2.418  24.651  0.00  0.00    +0.054 C 
ENDROOT
BRANCH  15  19
ATOM     19  C   UNL     1      -2.923   3.643  25.033  0.00  0.00    +0.083 A 
ATOM     20  C   UNL     1      -2.426   3.805  24.394  0.00  0.00    +0.022 A 
ATOM     21  C   UNL     1      -1.827   4.367  24.470  0.00  0.00    +0.038 A 
ATOM     22  C   UNL     1      -1.725   4.767  25.185  0.00  0.00    +0.139 A 
ATOM     25  C   UNL     1      -2.222   4.605  25.823  0.00  0.00    +0.038 A 
ATOM     26  C   UNL     1      -2.822   4.043  25.747  0.00  0.00    +0.022 A 
BRANCH  22  23
ATOM     23  O   UNL     1      -1.126   5.329  25.261  0.00  0.00    -0.471 OA
ATOM     24  C   UNL     1      -0.515   5.357  24.708  0.00  0.00    +0.252 C 
ENDBRANCH  22  23
ENDBRANCH  15  19
BRANCH  12   9
ATOM      7  C   UNL     1      -4.366  -0.184  24.557  0.00  0.00    +0.119 C 
ATOM      8  C   UNL     1      -4.081   0.558  24.335  0.00  0.00    +0.035 C 
ATOM      9  C   UNL     1      -4.330   1.106  24.899  0.00  0.00    +0.048 C 
ATOM     10  C   UNL     1      -4.769   0.702  25.470  0.00  0.00    -0.025 C 
ATOM     11  C   UNL     1      -4.791  -0.095  25.258  0.00  0.00    -0.009 C 
BRANCH   7   6
ATOM      3  N   UNL     1      -3.759  -2.234  24.116  0.00  0.00    -0.187 NA
ATOM      4  C   UNL     1      -3.879  -1.527  24.525  0.00  0.00    +0.339 C 
ATOM      5  O   UNL     1      -3.632  -1.456  25.308  0.00  0.00    -0.249 OA
ATOM      6  N   UNL     1      -4.246  -0.891  24.148  0.00  0.00    -0.184 NA
BRANCH   3   2
ATOM      1  C   UNL     1      -3.367  -3.608  24.124  0.00  0.00    +0.025 C 
ATOM      2  C   UNL     1      -3.392  -2.870  24.493  0.00  0.00    +0.117 C 
ENDBRANCH   3   2
ENDBRANCH   7   6
ENDBRANCH  12   9
TORSDOF 5
ENDMDL
MODEL 4
REMARK VINA RESULT:      -9.4      2.725      4.477
REMARK  Name = 
REMARK  5 active torsions:
REMARK  status: ('A' for Active; 'I' for Inactive)
REMARK    1  A    between atoms: C_2  and  N_3
REMARK    2  A    between atoms: N_6  and  C_7
REMARK    3  A    between atoms: C_9  and  C_12
REMARK    4  A    between atoms: N_15  and  C_19
REMARK    5  A    between atoms: C_22  and  O_23
REMARK                            x       y       z     vdW  Elec       q    Type
REMARK                         _______ _______ _______ _____ _____    ______ ____
ROOT
ATOM     12  C   UNL     1      -1.694   3.070  25.124  0.00  0.00    +0.010 A 
ATOM     13  C   UNL     1      -2.410   2.661  25.133  0.00  0.00    +0.058 A 
ATOM     14  C   UNL     1      -2.501   1.842  25.132  0.00  0.00    +0.052 C 
ATOM     15  N   UNL     1      -3.020   3.217  25.143  0.00  0.00    -0.234 N 
ATOM     16  N   UNL     1      -2.681   3.969  25.140  0.00  0.00    -0.170 NA
ATOM     17  C   UNL     1      -1.861   3.878  25.128  0.00  0.00    +0.077 A 
ATOM     18  C   UNL     1      -1.305   4.488  25.122  0.00  0.00    +0.054 C 
ENDROOT
BRANCH  15  19
ATOM     19  C   UNL     1      -3.829   3.051  25.153  0.00  0.00    +0.083 A 
ATOM     20  C   UNL     1      -4.274   3.218  25.827  0.00  0.00    +0.022 A 
ATOM     21  C   UNL     1      -5.082   3.052  25.838  0.00  0.00    +0.038 A 
ATOM     22  C   UNL     1      -5.444   2.718  25.176  0.00  0.00    +0.139 A 
ATOM     25  C   UNL     1      -4.998   2.551  24.503  0.00  0.00    +0.038 A 
ATOM     26  C   UNL     1      -4.190   2.718  24.491  0.00  0.00    +0.022 A 
BRANCH  22  23
ATOM     23  O   UNL     1      -6.252   2.552  25.187  0.00  0.00    -0.471 OA
ATOM     24  C   UNL     1      -6.516   1.780  25.064  0.00  0.00    +0.252 C 
ENDBRANCH  22  23
ENDBRANCH  15  19
BRANCH  12   9
ATOM      7  C   UNL     1       0.215   2.222  24.684  0.00  0.00    +0.119 C 
ATOM      8  C   UNL     1      -0.499   2.554  24.439  0.00  0.00    +0.035 C 
ATOM      9  C   UNL     1      -0.943   2.731  25.113  0.00  0.00    +0.048 C 
ATOM     10  C   UNL     1      -0.501   2.506  25.774  0.00  0.00    -0.025 C 
ATOM     11  C   UNL     1       0.214   2.192  25.508  0.00  0.00    -0.009 C 
BRANCH   7   6
ATOM      3  N   UNL     1       1.410   0.948  23.374  0.00  0.00    -0.187 NA
ATOM      4  C   UNL     1       0.800   1.205  23.868  0.00  0.00    +0.339 C 
ATOM      5  O   UNL     1       0.169   0.705  24.039  0.00  0.00    -0.249 OA
ATOM      6  N   UNL     1       0.824   1.964  24.190  0.00  0.00    -0.184 NA
BRANCH   3   2
ATOM      1  C   UNL     1       1.983  -0.061  22.540  0.00  0.00    +0.025 C 
ATOM      2  C   UNL     1       1.385   0.189  23.052  0.00  0.00    +0.117 C 
ENDBRANCH   3   2
ENDBRANCH   7   6
ENDBRANCH  12   9
TORSDOF 5
ENDMDL
MODEL 5
REMARK VINA RESULT:      -8.9      2.130      2.841
REMARK  Name = 
REMARK  5 active torsions:
REMARK  status: ('A' for Active; 'I' for Inactive)
REMARK    1  A    between atoms: C_2  and  N_3
REMARK    2  A    between atoms: N_6  and  C_7
REMARK    3  A    between atoms: C_9  and  C_12
REMARK    4  A    between atoms: N_15  and  C_19
REMARK    5  A    between atoms: C_22  and  O_23
REMARK                            x       y       z     vdW  Elec       q    Type
REMARK                         _______ _______ _______ _____ _____    ______ ____
ROOT
ATOM     12  C   UNL     1      -0.878   0.556  24.766  0.00  0.00    +0.010 A 
ATOM     13  C   UNL     1      -1.564   0.133  24.942  0.00  0.00    +0.058 A 
ATOM     14  C   UNL     1      -2.162   0.370  25.459  0.00  0.00    +0.052 C 
ATOM     15  N   UNL     1      -1.547  -0.570  24.510  0.00  0.00    -0.234 N 
ATOM     16  N   UNL     1      -0.852  -0.581  24.067  0.00  0.00    -0.170 NA
ATOM     17  C   UNL     1      -0.438   0.116  24.226  0.00  0.00    +0.077 A 
ATOM     18  C   UNL     1       0.289   0.333  23.901  0.00  0.00    +0.054 C 
ENDROOT
BRANCH  15  19
ATOM     19  C   UNL     1      -2.125  -1.159  24.519  0.00  0.00    +0.083 A 
ATOM     20  C   UNL     1      -1.929  -1.925  24.756  0.00  0.00    +0.022 A 
ATOM     21  C   UNL     1      -2.506  -2.514  24.765  0.00  0.00    +0.038 A 
ATOM     22  C   UNL     1      -3.279  -2.338  24.536  0.00  0.00    +0.139 A 
ATOM     25  C   UNL     1      -3.474  -1.573  24.299  0.00  0.00    +0.038 A 
ATOM     26  C   UNL     1      -2.897  -0.983  24.290  0.00  0.00    +0.022 A 
BRANCH  22  23
ATOM     23  O   UNL     1      -3.856  -2.928  24.545  0.00  0.00    -0.471 OA
ATOM     24  C   UNL     1      -4.317  -3.063  23.874  0.00  0.00    +0.252 C 
ENDBRANCH  22  23
ENDBRANCH  15  19
BRANCH  12   9
ATOM      7  C   UNL     1      -0.446   2.602  25.196  0.00  0.00    +0.119 C 
ATOM      8  C   UNL     1      -0.703   2.014  24.679  0.00  0.00    +0.035 C 
ATOM      9  C   UNL     1      -0.670   1.291  25.077  0.00  0.00    +0.048 C 
ATOM     10  C   UNL     1      -0.392   1.434  25.841  0.00  0.00    -0.025 C 
ATOM     11  C   UNL     1      -0.253   2.244  25.914  0.00  0.00    -0.009 C 
BRANCH   7   6
ATOM      3  N   UNL     1      -0.965   4.716  25.031  0.00  0.00    -0.187 NA
ATOM      4  C   UNL     1      -1.020   3.910  25.202  0.00  0.00    +0.339 C 
ATOM      5  O   UNL     1      -1.704   3.609  25.549  0.00  0.00    -0.249 OA
ATOM      6  N   UNL     1      -0.390   3.408  25.025  0.00  0.00    -0.184 NA
BRANCH   3   2
ATOM      1  C   UNL     1      -1.597   5.993  24.922  0.00  0.00    +0.025 C 
ATOM      2  C   UNL     1      -1.595   5.219  25.208  0.00  0.00    +0.117 C 
ENDBRANCH   3   2
ENDBRANCH   7   6
ENDBRANCH  12   9
TORSDOF 5
ENDMDL
MODEL 6
REMARK VINA RESULT:      -8.7      2.561      6.107
REMARK  Name = 
REMARK  5 active torsions:
REMARK  status: ('A' for Active; 'I' for Inactive)
REMARK    1  A    between atoms: C_2  and  N_3
REMARK    2  A    between atoms: N_6  and  C_7
REMARK    3  A    between atoms: C_9  and  C_12
REMARK    4  A    between atoms: N_15  and  C_19
REMARK    5  A    between atoms: C_22  and  O_23
REMARK                            x       y       z     vdW  Elec       q    Type
REMARK                         _______ _______ _______ _____ _____    ______ ____
ROOT
ATOM     12  C   UNL     1      -0.493   0.347  24.518  0.00  0.00    +0.010 A 
ATOM     13  C   UNL     1      -0.793   1.040  24.850  0.00  0.00    +0.058 A 
ATOM     14  C   UNL     1      -1.388   1.088  25.418  0.00  0.00    +0.052 C 
ATOM     15  N   UNL     1      -0.392   1.677  24.512  0.00  0.00    -0.234 N 
ATOM     16  N   UNL     1       0.155   1.378  23.972  0.00  0.00    -0.170 NA
ATOM     17  C   UNL     1       0.093   0.555  23.976  0.00  0.00    +0.077 A 
ATOM     18  C   UNL     1       0.538   0.032  23.518  0.00  0.00    +0.054 C 
ENDROOT
BRANCH  15  19
ATOM     19  C   UNL     1      -0.517   2.475  24.683  0.00  0.00    +0.083 A 
ATOM     20  C   UNL     1      -0.947   2.947  24.160  0.00  0.00    +0.022 A 
ATOM     21  C   UNL     1      -1.071   3.744  24.331  0.00  0.00    +0.038 A 
ATOM     22  C   UNL     1      -0.766   4.070  25.025  0.00  0.00    +0.139 A 
ATOM     25  C   UNL     1      -0.336   3.598  25.547  0.00  0.00    +0.038 A 
ATOM     26  C   UNL     1      -0.212   2.801  25.376  0.00  0.00    +0.022 A 
BRANCH  22  23
ATOM     23  O   UNL     1      -0.891   4.867  25.195  0.00  0.00    -0.471 OA
ATOM     24  C   UNL     1      -1.658   5.169  25.217  0.00  0.00    +0.252 C 
ENDBRANCH  22  23
ENDBRANCH  15  19
BRANCH  12   9
ATOM      7  C   UNL     1      -1.338  -1.610  24.632  0.00  0.00    +0.119 C 
ATOM      8  C   UNL     1      -1.248  -0.886  24.248  0.00  0.00    +0.035 C 
ATOM      9  C   UNL     1      -0.736  -0.420  24.698  0.00  0.00    +0.048 C 
ATOM     10  C   UNL     1      -0.510  -0.858  25.361  0.00  0.00    -0.025 C 
ATOM     11  C   UNL     1      -0.883  -1.593  25.319  0.00  0.00    -0.009 C 
BRANCH   7   6
ATOM      3  N   UNL     1      -3.082  -2.867  24.250  0.00  0.00    -0.187 NA
ATOM      4  C   UNL     1      -2.617  -2.235  24.509  0.00  0.00    +0.339 C 
ATOM      5  O   UNL     1      -2.965  -1.601  24.901  0.00  0.00    -0.249 OA
ATOM      6  N   UNL     1      -1.803  -2.241  24.373  0.00  0.00    -0.184 NA
BRANCH   3   2
ATOM      1  C   UNL     1      -4.415  -3.094  23.787  0.00  0.00    +0.025 C 
ATOM      2  C   UNL     1      -3.896  -2.861  24.385  0.00  0.00    +0.117 C 
ENDBRANCH   3   2
ENDBRANCH   7   6
ENDBRANCH  12   9
TORSDOF 5
ENDMDL
MODEL 7
REMARK VINA RESULT:      -8.4      3.170      4.377
REMARK  Name = 
REMARK  5 active torsions:
REMARK  status: ('A' for Active; 'I' for Inactive)
REMARK    1  A    between atoms: C_2  and  N_3
REMARK    2  A    between atoms: N_6  and  C_7
REMARK    3  A    between atoms: C_9  and  C_12
REMARK    4  A    between atoms: N_15  and  C_19
REMARK    5  A    between atoms: C_22  and  O_23
REMARK                            x       y       z     vdW  Elec       q    Type
REMARK                         _______ _______ _______ _____ _____    ______ ____
ROOT
ATOM     12  C   UNL     1      -0.728   2.719  25.284  0.00  0.00    +0.010 A 
ATOM     13  C   UNL     1      -0.583   2.293  24.592  0.00  0.00    +0.058 A 
ATOM     14  C   UNL     1      -1.016   2.342  23.892  0.00  0.00    +0.052 C 
ATOM     15  N   UNL     1       0.073   1.810  24.724  0.00  0.00    -0.234 N 
ATOM     16  N   UNL     1       0.332   1.936  25.496  0.00  0.00    -0.170 NA
ATOM     17  C   UNL     1      -0.163   2.498  25.843  0.00  0.00    +0.077 A 
ATOM     18  C   UNL     1      -0.104   2.789  26.613  0.00  0.00    +0.054 C 
ENDROOT
BRANCH  15  19
ATOM     19  C   UNL     1       0.410   1.290  24.178  0.00  0.00    +0.083 A 
ATOM     20  C   UNL     1       0.032   0.580  23.998  0.00  0.00    +0.022 A 
ATOM     21  C   UNL     1       0.369   0.060  23.453  0.00  0.00    +0.038 A 
ATOM     22  C   UNL     1       1.084   0.251  23.089  0.00  0.00    +0.139 A 
ATOM     25  C   UNL     1       1.462   0.962  23.270  0.00  0.00    +0.038 A 
ATOM     26  C   UNL     1       1.125   1.481  23.815  0.00  0.00    +0.022 A 
BRANCH  22  23
ATOM     23  O   UNL     1       1.421  -0.269  22.544  0.00  0.00    -0.471 OA
ATOM     24  C   UNL     1       2.184  -0.132  22.261  0.00  0.00    +0.252 C 
ENDBRANCH  22  23
ENDBRANCH  15  19
BRANCH  12   9
ATOM      7  C   UNL     1      -2.500   3.820  25.735  0.00  0.00    +0.119 C 
ATOM      8  C   UNL     1      -2.072   3.115  25.730  0.00  0.00    +0.035 C 
ATOM      9  C   UNL     1      -1.333   3.268  25.396  0.00  0.00    +0.048 C 
ATOM     10  C   UNL     1      -1.305   4.068  25.195  0.00  0.00    -0.025 C 
ATOM     11  C   UNL     1      -2.027   4.409  25.404  0.00  0.00    -0.009 C 
BRANCH   7   6
ATOM      3  N   UNL     1      -4.680   3.773  25.850  0.00  0.00    -0.187 NA
ATOM      4  C   UNL     1      -3.912   3.674  25.565  0.00  0.00    +0.339 C 
ATOM      5  O   UNL     1      -3.788   3.333  24.825  0.00  0.00    -0.249 OA
ATOM      6  N   UNL     1      -3.269   3.918  26.020  0.00  0.00    -0.184 NA
BRANCH   3   2
ATOM      1  C   UNL     1      -5.976   3.177  25.758  0.00  0.00    +0.025 C 
ATOM      2  C   UNL     1      -5.323   3.529  25.395  0.00  0.00    +0.117 C 
ENDBRANCH   3   2
ENDBRANCH   7   6
ENDBRANCH  12   9
TORSDOF 5
ENDMDL
MODEL 8
REMARK VINA RESULT:      -8.3      2.765      4.151
REMARK  Name = 
REMARK  5 active torsions:
REMARK  status: ('A' for Active; 'I' for Inactive)
REMARK    1  A    between atoms: C_2  and  N_3
REMARK    2  A    between atoms: N_6  and  C_7
REMARK    3  A    between atoms: C_9  and  C_12
REMARK    4  A    between atoms: N_15  and  C_19
REMARK    5  A    between atoms: C_22  and  O_23
REMARK                            x       y       z     vdW  Elec       q    Type
REMARK                         _______ _______ _______ _____ _____    ______ ____
ROOT
ATOM     12  C   UNL     1      -2.305  -0.049  24.669  0.00  0.00    +0.010 A 
ATOM     13  C   UNL     1      -1.729   0.282  24.179  0.00  0.00    +0.058 A 
ATOM     14  C   UNL     1      -1.854   0.863  23.608  0.00  0.00    +0.052 C 
ATOM     15  N   UNL     1      -1.006  -0.072  24.362  0.00  0.00    -0.234 N 
ATOM     16  N   UNL     1      -1.135  -0.621  24.964  0.00  0.00    -0.170 NA
ATOM     17  C   UNL     1      -1.938  -0.607  25.154  0.00  0.00    +0.077 A 
ATOM     18  C   UNL     1      -2.309  -1.069  25.728  0.00  0.00    +0.054 C 
ENDROOT
BRANCH  15  19
ATOM     19  C   UNL     1      -0.281   0.094  24.006  0.00  0.00    +0.083 A 
ATOM     20  C   UNL     1       0.068  -0.460  23.503  0.00  0.00    +0.022 A 
ATOM     21  C   UNL     1       0.793  -0.295  23.147  0.00  0.00    +0.038 A 
ATOM     22  C   UNL     1       1.170   0.425  23.292  0.00  0.00    +0.139 A 
ATOM     25  C   UNL     1       0.821   0.979  23.794  0.00  0.00    +0.038 A 
ATOM     26  C   UNL     1       0.096   0.813  24.151  0.00  0.00    +0.022 A 
BRANCH  22  23
ATOM     23  O   UNL     1       1.895   0.590  22.935  0.00  0.00    -0.471 OA
ATOM     24  C   UNL     1       2.265   0.019  22.469  0.00  0.00    +0.252 C 
ENDBRANCH  22  23
ENDBRANCH  15  19
BRANCH  12   9
ATOM      7  C   UNL     1      -4.275   0.711  24.982  0.00  0.00    +0.119 C 
ATOM      8  C   UNL     1      -3.471   0.695  25.167  0.00  0.00    +0.035 C 
ATOM      9  C   UNL     1      -3.106   0.144  24.673  0.00  0.00    +0.048 C 
ATOM     10  C   UNL     1      -3.686  -0.180  24.182  0.00  0.00    -0.025 C 
ATOM     11  C   UNL     1      -4.408   0.171  24.374  0.00  0.00    -0.009 C 
BRANCH   7   6
ATOM      3  N   UNL     1      -5.502   2.448  25.476  0.00  0.00    -0.187 NA
ATOM      4  C   UNL     1      -4.930   1.974  25.115  0.00  0.00    +0.339 C 
ATOM      5  O   UNL     1      -4.445   2.288  24.527  0.00  0.00    -0.249 OA
ATOM      6  N   UNL     1      -4.846   1.186  25.343  0.00  0.00    -0.184 NA
BRANCH   3   2
ATOM      1  C   UNL     1      -5.931   3.780  25.765  0.00  0.00    +0.025 C 
ATOM      2  C   UNL     1      -5.586   3.236  25.248  0.00  0.00    +0.117 C 
ENDBRANCH   3   2
ENDBRANCH   7   6
ENDBRANCH  12   9
TORSDOF 5
ENDMDL
