REMARK  Name = 
REMARK  6 active torsions:
REMARK  status: ('A' for Active; 'I' for Inactive)
REMARK    1  A    between atoms: O_2  and  C_3
REMARK    2  A    between atoms: C_6  and  N_7
REMARK    3  A    between atoms: C_8  and  O_10
REMARK    4  A    between atoms: O_10  and  C_11
REMARK    5  A    between atoms: C_15  and  N_19
REMARK    6  A    between atoms: C_20  and  C_22
REMARK                            x       y       z     vdW  Elec       q    Type
REMARK                         _______ _______ _______ _____ _____    ______ ____
ROOT
ATOM     11  C   UNL     1       1.270  -0.922   0.000  0.00  0.00    +0.229 C 
ATOM     12  C   UNL     1       0.785  -0.255   0.000  0.00  0.00    +0.188 C 
ATOM     13  O   UNL     1       1.270   0.412   0.000  0.00  0.00    -0.348 OA
ATOM     14  C   UNL     1       2.054   0.158   0.000  0.00  0.00    +0.168 C 
ATOM     15  C   UNL     1       2.839   0.412   0.000  0.00  0.00    +0.154 C 
ATOM     16  C   UNL     1       3.324  -0.255   0.000  0.00  0.00    +0.166 C 
ATOM     17  O   UNL     1       2.839  -0.922   0.000  0.00  0.00    -0.348 OA
ATOM     18  C   UNL     1       2.054  -0.667   0.000  0.00  0.00    +0.186 C 
ENDROOT
BRANCH  15  19
ATOM     19  N   UNL     1       3.094   1.197   0.000  0.00  0.00    -0.202 NA
ATOM     20  C   UNL     1       2.542   1.810   0.000  0.00  0.00    +0.241 C 
ATOM     21  O   UNL     1       1.735   1.639   0.000  0.00  0.00    -0.273 OA
BRANCH  20  22
ATOM     22  C   UNL     1       2.797   2.595   0.000  0.00  0.00    +0.078 C 
ATOM     23  C   UNL     1       2.245   3.208   0.000  0.00  0.00    +0.009 C 
ATOM     24  C   UNL     1       2.499   3.993   0.000  0.00  0.00    +0.000 C 
ATOM     25  C   UNL     1       3.307   4.164   0.000  0.00  0.00    +0.000 C 
ATOM     26  C   UNL     1       3.858   3.551   0.000  0.00  0.00    +0.000 C 
ATOM     27  C   UNL     1       3.604   2.766   0.000  0.00  0.00    +0.009 C 
ENDBRANCH  20  22
ENDBRANCH  15  19
BRANCH  11  10
ATOM     10  O   UNL     1       1.015  -1.707   0.000  0.00  0.00    -0.432 OA
BRANCH  10   8
ATOM      7  N   UNL     1      -0.047  -2.663   0.000  0.00  0.00    -0.142 NA
ATOM      8  C   UNL     1       0.208  -1.879   0.000  0.00  0.00    +0.425 C 
ATOM      9  O   UNL     1      -0.344  -1.265   0.000  0.00  0.00    -0.224 OA
BRANCH   7   6
ATOM      3  C   UNL     1      -2.468  -3.178   0.000  0.00  0.00    +0.139 A 
ATOM      4  C   UNL     1      -2.213  -2.393   0.000  0.00  0.00    +0.038 A 
ATOM      5  C   UNL     1      -1.406  -2.222   0.000  0.00  0.00    +0.020 A 
ATOM      6  C   UNL     1      -0.854  -2.835   0.000  0.00  0.00    +0.077 A 
ATOM     28  C   UNL     1      -1.109  -3.619   0.000  0.00  0.00    +0.020 A 
ATOM     29  C   UNL     1      -1.916  -3.791   0.000  0.00  0.00    +0.038 A 
BRANCH   3   2
ATOM      1  C   UNL     1      -3.530  -4.134   0.000  0.00  0.00    +0.252 C 
ATOM      2  O   UNL     1      -3.275  -3.349   0.000  0.00  0.00    -0.471 OA
ENDBRANCH   3   2
ENDBRANCH   7   6
ENDBRANCH  10   8
ENDBRANCH  11  10
TORSDOF 6
