MODEL 1
REMARK VINA RESULT:     -13.7      0.000      0.000
REMARK  Name = 
REMARK  7 active torsions:
REMARK  status: ('A' for Active; 'I' for Inactive)
REMARK    1  A    between atoms: O_2  and  C_3
REMARK    2  A    between atoms: C_6  and  C_7
REMARK    3  A    between atoms: C_7  and  N_8
REMARK    4  A    between atoms: C_13  and  C_14
REMARK    5  A    between atoms: C_16  and  C_19
REMARK    6  A    between atoms: C_22  and  O_23
REMARK    7  A    between atoms: O_23  and  C_24
REMARK                            x       y       z     vdW  Elec       q    Type
REMARK                         _______ _______ _______ _____ _____    ______ ____
ROOT
ATOM      8  N   UNL     1      -3.834   2.944  25.442  0.00  0.00    -0.260 NA
ATOM      9  C   UNL     1      -4.217   3.614  25.735  0.00  0.00    +0.106 C 
ATOM     10  C   UNL     1      -5.014   3.562  25.531  0.00  0.00    +0.170 C 
ATOM     11  O   UNL     1      -5.599   4.115  25.713  0.00  0.00    -0.222 OA
ATOM     12  C   UNL     1      -5.124   2.861  25.112  0.00  0.00    +0.060 C 
ATOM     13  C   UNL     1      -4.395   2.479  25.057  0.00  0.00    +0.140 C 
ENDROOT
BRANCH  13  14
ATOM     14  C   UNL     1      -4.252   1.758  24.683  0.00  0.00    +0.251 A 
ATOM     15  N   UNL     1      -4.200   1.022  25.052  0.00  0.00    -0.190 NA
ATOM     16  C   UNL     1      -4.051   0.455  24.471  0.00  0.00    +0.203 A 
ATOM     17  N   UNL     1      -4.011   0.841  23.743  0.00  0.00    -0.056 NA
ATOM     18  O   UNL     1      -4.135   1.646  23.874  0.00  0.00    -0.336 OA
BRANCH  16  19
ATOM     19  C   UNL     1      -3.959  -0.355  24.596  0.00  0.00    +0.039 A 
ATOM     20  C   UNL     1      -4.251  -0.894  24.044  0.00  0.00    +0.006 A 
ATOM     21  C   UNL     1      -4.158  -1.705  24.171  0.00  0.00    +0.037 A 
ATOM     22  C   UNL     1      -3.774  -1.975  24.849  0.00  0.00    +0.147 A 
ATOM     28  C   UNL     1      -3.483  -1.436  25.401  0.00  0.00    +0.037 A 
ATOM     29  C   UNL     1      -3.575  -0.626  25.275  0.00  0.00    +0.006 A 
BRANCH  22  23
ATOM     23  O   UNL     1      -3.682  -2.785  24.975  0.00  0.00    -0.404 OA
BRANCH  23  24
ATOM     24  C   UNL     1      -3.199  -3.228  24.474  0.00  0.00    +0.575 C 
ATOM     25  F   UNL     1      -2.716  -3.671  23.972  0.00  0.00    -0.133 F 
ATOM     26  F   UNL     1      -2.537  -2.999  24.909  0.00  0.00    -0.133 F 
ATOM     27  F   UNL     1      -3.861  -3.457  24.038  0.00  0.00    -0.133 F 
ENDBRANCH  23  24
ENDBRANCH  22  23
ENDBRANCH  16  19
ENDBRANCH  13  14
BRANCH   8   7
ATOM      7  C   UNL     1      -3.031   2.772  25.522  0.00  0.00    +0.100 C 
BRANCH   7   6
ATOM      3  C   UNL     1      -1.342   4.547  25.176  0.00  0.00    +0.139 A 
ATOM      4  C   UNL     1      -2.142   4.712  25.063  0.00  0.00    +0.037 A 
ATOM      5  C   UNL     1      -2.706   4.119  25.178  0.00  0.00    +0.000 A 
ATOM      6  C   UNL     1      -2.468   3.364  25.407  0.00  0.00    -0.006 A 
ATOM     30  C   UNL     1      -1.669   3.199  25.521  0.00  0.00    +0.000 A 
ATOM     31  C   UNL     1      -1.430   2.443  25.750  0.00  0.00    -0.000 A 
ATOM     32  C   UNL     1      -0.631   2.279  25.864  0.00  0.00    -0.000 A 
ATOM     33  C   UNL     1      -0.067   2.871  25.748  0.00  0.00    +0.000 A 
ATOM     34  C   UNL     1      -0.304   3.627  25.520  0.00  0.00    +0.003 A 
ATOM     35  C   UNL     1      -1.105   3.792  25.405  0.00  0.00    +0.034 A 
BRANCH   3   2
ATOM      1  C   UNL     1      -1.003   5.865  24.740  0.00  0.00    +0.252 C 
ATOM      2  O   UNL     1      -0.779   5.139  25.061  0.00  0.00    -0.471 OA
ENDBRANCH   3   2
ENDBRANCH   7   6
ENDBRANCH   8   7
TORSDOF 7
ENDMDL
MODEL 2
REMARK VINA RESULT:     -12.8      1.722      3.018
REMARK  Name = 
REMARK  7 active torsions:
REMARK  status: ('A' for Active; 'I' for Inactive)
REMARK    1  A    between atoms: O_2  and  C_3
REMARK    2  A    between atoms: C_6  and  C_7
REMARK    3  A    between atoms: C_7  and  N_8
REMARK    4  A    between atoms: C_13  and  C_14
REMARK    5  A    between atoms: C_16  and  C_19
REMARK    6  A    between atoms: C_22  and  O_23
REMARK    7  A    between atoms: O_23  and  C_24
REMARK                            x       y       z     vdW  Elec       q    Type
REMARK                         _______ _______ _______ _____ _____    ______ ____
ROOT
ATOM      8  N   UNL     1      -0.537   1.841  24.942  0.00  0.00    -0.260 NA
ATOM      9  C   UNL     1       0.050   2.271  24.552  0.00  0.00    +0.106 C 
ATOM     10  C   UNL     1       0.602   1.736  24.254  0.00  0.00    +0.170 C 
ATOM     11  O   UNL     1       1.281   1.927  23.825  0.00  0.00    -0.222 OA
ATOM     12  C   UNL     1       0.357   0.976  24.458  0.00  0.00    +0.060 C 
ATOM     13  C   UNL     1      -0.347   1.041  24.884  0.00  0.00    +0.140 C 
ENDROOT
BRANCH  13  14
ATOM     14  C   UNL     1      -0.784   0.415  25.197  0.00  0.00    +0.251 A 
ATOM     15  N   UNL     1      -1.372  -0.009  24.804  0.00  0.00    -0.190 NA
ATOM     16  C   UNL     1      -1.662  -0.583  25.322  0.00  0.00    +0.203 A 
ATOM     17  N   UNL     1      -1.252  -0.514  26.034  0.00  0.00    -0.056 NA
ATOM     18  O   UNL     1      -0.709   0.104  25.957  0.00  0.00    -0.336 OA
BRANCH  16  19
ATOM     19  C   UNL     1      -2.257  -1.130  25.156  0.00  0.00    +0.039 A 
ATOM     20  C   UNL     1      -3.034  -0.977  25.385  0.00  0.00    +0.006 A 
ATOM     21  C   UNL     1      -3.629  -1.525  25.219  0.00  0.00    +0.037 A 
ATOM     22  C   UNL     1      -3.446  -2.224  24.823  0.00  0.00    +0.147 A 
ATOM     28  C   UNL     1      -2.669  -2.377  24.593  0.00  0.00    +0.037 A 
ATOM     29  C   UNL     1      -2.074  -1.830  24.759  0.00  0.00    +0.006 A 
BRANCH  22  23
ATOM     23  O   UNL     1      -4.040  -2.772  24.656  0.00  0.00    -0.404 OA
BRANCH  23  24
ATOM     24  C   UNL     1      -4.339  -2.835  23.889  0.00  0.00    +0.575 C 
ATOM     25  F   UNL     1      -4.638  -2.898  23.123  0.00  0.00    -0.133 F 
ATOM     26  F   UNL     1      -4.815  -2.175  24.021  0.00  0.00    -0.133 F 
ATOM     27  F   UNL     1      -3.863  -3.496  23.758  0.00  0.00    -0.133 F 
ENDBRANCH  23  24
ENDBRANCH  22  23
ENDBRANCH  16  19
ENDBRANCH  13  14
BRANCH   8   7
ATOM      7  C   UNL     1      -1.197   2.157  25.323  0.00  0.00    +0.100 C 
BRANCH   7   6
ATOM      3  C   UNL     1      -1.629   4.593  25.235  0.00  0.00    +0.139 A 
ATOM      4  C   UNL     1      -0.854   4.312  25.246  0.00  0.00    +0.037 A 
ATOM      5  C   UNL     1      -0.710   3.499  25.275  0.00  0.00    +0.000 A 
ATOM      6  C   UNL     1      -1.341   2.969  25.294  0.00  0.00    -0.006 A 
ATOM     30  C   UNL     1      -2.116   3.250  25.283  0.00  0.00    +0.000 A 
ATOM     31  C   UNL     1      -2.748   2.719  25.301  0.00  0.00    -0.000 A 
ATOM     32  C   UNL     1      -3.523   3.000  25.290  0.00  0.00    -0.000 A 
ATOM     33  C   UNL     1      -3.667   3.813  25.260  0.00  0.00    +0.000 A 
ATOM     34  C   UNL     1      -3.036   4.343  25.242  0.00  0.00    +0.003 A 
ATOM     35  C   UNL     1      -2.260   4.062  25.253  0.00  0.00    +0.034 A 
BRANCH   3   2
ATOM      1  C   UNL     1      -1.195   5.916  24.915  0.00  0.00    +0.252 C 
ATOM      2  O   UNL     1      -1.773   5.404  25.206  0.00  0.00    -0.471 OA
ENDBRANCH   3   2
ENDBRANCH   7   6
ENDBRANCH   8   7
TORSDOF 7
ENDMDL
MODEL 3
REMARK VINA RESULT:     -12.2      1.684      3.442
REMARK  Name = 
REMARK  7 active torsions:
REMARK  status: ('A' for Active; 'I' for Inactive)
REMARK    1  A    between atoms: O_2  and  C_3
REMARK    2  A    between atoms: C_6  and  C_7
REMARK    3  A    between atoms: C_7  and  N_8
REMARK    4  A    between atoms: C_13  and  C_14
REMARK    5  A    between atoms: C_16  and  C_19
REMARK    6  A    between atoms: C_22  and  O_23
REMARK    7  A    between atoms: O_23  and  C_24
REMARK                            x       y       z     vdW  Elec       q    Type
REMARK                         _______ _______ _______ _____ _____    ______ ____
ROOT
ATOM      8  N   UNL     1      -2.170   3.309  25.143  0.00  0.00    -0.260 NA
ATOM      9  C   UNL     1      -2.204   4.115  24.967  0.00  0.00    +0.106 C 
ATOM     10  C   UNL     1      -1.442   4.423  25.037  0.00  0.00    +0.170 C 
ATOM     11  O   UNL     1      -1.222   5.208  24.910  0.00  0.00    -0.222 OA
ATOM     12  C   UNL     1      -0.938   3.809  25.256  0.00  0.00    +0.060 C 
ATOM     13  C   UNL     1      -1.388   3.120  25.322  0.00  0.00    +0.140 C 
ENDROOT
BRANCH  13  14
ATOM     14  C   UNL     1      -1.105   2.374  25.529  0.00  0.00    +0.251 A 
ATOM     15  N   UNL     1      -1.274   1.666  25.141  0.00  0.00    -0.190 NA
ATOM     16  C   UNL     1      -0.877   1.058  25.534  0.00  0.00    +0.203 A 
ATOM     17  N   UNL     1      -0.463   1.391  26.165  0.00  0.00    -0.056 NA
ATOM     18  O   UNL     1      -0.604   2.204  26.163  0.00  0.00    -0.336 OA
BRANCH  16  19
ATOM     19  C   UNL     1      -0.892   0.259  25.330  0.00  0.00    +0.039 A 
ATOM     20  C   UNL     1      -1.256  -0.287  25.829  0.00  0.00    +0.006 A 
ATOM     21  C   UNL     1      -1.271  -1.087  25.625  0.00  0.00    +0.037 A 
ATOM     22  C   UNL     1      -0.921  -1.340  24.922  0.00  0.00    +0.147 A 
ATOM     28  C   UNL     1      -0.556  -0.793  24.423  0.00  0.00    +0.037 A 
ATOM     29  C   UNL     1      -0.541   0.006  24.627  0.00  0.00    +0.006 A 
BRANCH  22  23
ATOM     23  O   UNL     1      -0.935  -2.139  24.718  0.00  0.00    -0.404 OA
BRANCH  23  24
ATOM     24  C   UNL     1      -1.618  -2.469  24.394  0.00  0.00    +0.575 C 
ATOM     25  F   UNL     1      -2.301  -2.799  24.070  0.00  0.00    -0.133 F 
ATOM     26  F   UNL     1      -1.356  -2.268  23.638  0.00  0.00    -0.133 F 
ATOM     27  F   UNL     1      -1.880  -2.670  25.150  0.00  0.00    -0.133 F 
ENDBRANCH  23  24
ENDBRANCH  22  23
ENDBRANCH  16  19
ENDBRANCH  13  14
BRANCH   8   7
ATOM      7  C   UNL     1      -2.808   2.786  25.141  0.00  0.00    +0.100 C 
BRANCH   7   6
ATOM      3  C   UNL     1      -5.101   3.626  25.546  0.00  0.00    +0.139 A 
ATOM      4  C   UNL     1      -4.452   4.111  25.699  0.00  0.00    +0.037 A 
ATOM      5  C   UNL     1      -3.687   3.830  25.563  0.00  0.00    +0.000 A 
ATOM      6  C   UNL     1      -3.572   3.066  25.276  0.00  0.00    -0.006 A 
ATOM     30  C   UNL     1      -4.222   2.581  25.124  0.00  0.00    +0.000 A 
ATOM     31  C   UNL     1      -4.108   1.816  24.837  0.00  0.00    -0.000 A 
ATOM     32  C   UNL     1      -4.757   1.332  24.685  0.00  0.00    -0.000 A 
ATOM     33  C   UNL     1      -5.522   1.612  24.820  0.00  0.00    +0.000 A 
ATOM     34  C   UNL     1      -5.636   2.376  25.107  0.00  0.00    +0.003 A 
ATOM     35  C   UNL     1      -4.987   2.862  25.259  0.00  0.00    +0.034 A 
BRANCH   3   2
ATOM      1  C   UNL     1      -6.016   4.717  25.670  0.00  0.00    +0.252 C 
ATOM      2  O   UNL     1      -5.865   3.906  25.682  0.00  0.00    -0.471 OA
ENDBRANCH   3   2
ENDBRANCH   7   6
ENDBRANCH   8   7
TORSDOF 7
ENDMDL
MODEL 4
REMARK VINA RESULT:     -11.8      3.180      5.008
REMARK  Name = 
REMARK  7 active torsions:
REMARK  status: ('A' for Active; 'I' for Inactive)
REMARK    1  A    between atoms: O_2  and  C_3
REMARK    2  A    between atoms: C_6  and  C_7
REMARK    3  A    between atoms: C_7  and  N_8
REMARK    4  A    between atoms: C_13  and  C_14
REMARK    5  A    between atoms: C_16  and  C_19
REMARK    6  A    between atoms: C_22  and  O_23
REMARK    7  A    between atoms: O_23  and  C_24
REMARK                            x       y       z     vdW  Elec       q    Type
REMARK                         _______ _______ _______ _____ _____    ______ ____
ROOT
ATOM      8  N   UNL     1      -3.254  -0.304  24.413  0.00  0.00    -0.260 NA
ATOM      9  C   UNL     1      -3.951  -0.743  24.353  0.00  0.00    +0.106 C 
ATOM     10  C   UNL     1      -3.750  -1.543  24.377  0.00  0.00    +0.170 C 
ATOM     11  O   UNL     1      -4.277  -2.177  24.334  0.00  0.00    -0.222 OA
ATOM     12  C   UNL     1      -2.931  -1.598  24.453  0.00  0.00    +0.060 C 
ATOM     13  C   UNL     1      -2.625  -0.833  24.475  0.00  0.00    +0.140 C 
ENDROOT
BRANCH  13  14
ATOM     14  C   UNL     1      -1.828  -0.631  24.546  0.00  0.00    +0.251 A 
ATOM     15  N   UNL     1      -1.318  -0.446  23.925  0.00  0.00    -0.190 NA
ATOM     16  C   UNL     1      -0.575  -0.279  24.246  0.00  0.00    +0.203 A 
ATOM     17  N   UNL     1      -0.628  -0.362  25.065  0.00  0.00    -0.056 NA
ATOM     18  O   UNL     1      -1.402  -0.580  25.251  0.00  0.00    -0.336 OA
BRANCH  16  19
ATOM     19  C   UNL     1       0.100  -0.067  23.822  0.00  0.00    +0.039 A 
ATOM     20  C   UNL     1       0.402   0.698  23.882  0.00  0.00    +0.006 A 
ATOM     21  C   UNL     1       1.077   0.909  23.458  0.00  0.00    +0.037 A 
ATOM     22  C   UNL     1       1.450   0.355  22.973  0.00  0.00    +0.147 A 
ATOM     28  C   UNL     1       1.147  -0.410  22.913  0.00  0.00    +0.037 A 
ATOM     29  C   UNL     1       0.472  -0.622  23.337  0.00  0.00    +0.006 A 
BRANCH  22  23
ATOM     23  O   UNL     1       2.125   0.566  22.548  0.00  0.00    -0.404 OA
BRANCH  23  24
ATOM     24  C   UNL     1       2.868   0.512  22.902  0.00  0.00    +0.575 C 
ATOM     25  F   UNL     1       3.611   0.457  23.256  0.00  0.00    -0.133 F 
ATOM     26  F   UNL     1       2.921  -0.278  22.670  0.00  0.00    -0.133 F 
ATOM     27  F   UNL     1       2.816   1.302  23.134  0.00  0.00    -0.133 F 
ENDBRANCH  23  24
ENDBRANCH  22  23
ENDBRANCH  16  19
ENDBRANCH  13  14
BRANCH   8   7
ATOM      7  C   UNL     1      -3.199   0.519  24.411  0.00  0.00    +0.100 C 
BRANCH   7   6
ATOM      3  C   UNL     1      -5.145   1.892  25.086  0.00  0.00    +0.139 A 
ATOM      4  C   UNL     1      -5.064   1.123  25.373  0.00  0.00    +0.037 A 
ATOM      5  C   UNL     1      -4.415   0.665  25.147  0.00  0.00    +0.000 A 
ATOM      6  C   UNL     1      -3.848   0.977  24.636  0.00  0.00    -0.006 A 
ATOM     30  C   UNL     1      -3.929   1.745  24.349  0.00  0.00    +0.000 A 
ATOM     31  C   UNL     1      -3.362   2.058  23.838  0.00  0.00    -0.000 A 
ATOM     32  C   UNL     1      -3.443   2.826  23.551  0.00  0.00    -0.000 A 
ATOM     33  C   UNL     1      -4.092   3.284  23.776  0.00  0.00    +0.000 A 
ATOM     34  C   UNL     1      -4.659   2.973  24.287  0.00  0.00    +0.003 A 
ATOM     35  C   UNL     1      -4.578   2.204  24.575  0.00  0.00    +0.034 A 
BRANCH   3   2
ATOM      1  C   UNL     1      -6.283   2.098  25.925  0.00  0.00    +0.252 C 
ATOM      2  O   UNL     1      -5.794   2.350  25.311  0.00  0.00    -0.471 OA
ENDBRANCH   3   2
ENDBRANCH   7   6
ENDBRANCH   8   7
TORSDOF 7
ENDMDL
MODEL 5
REMARK VINA RESULT:     -11.7      2.836      4.446
REMARK  Name = 
REMARK  7 active torsions:
REMARK  status: ('A' for Active; 'I' for Inactive)
REMARK    1  A    between atoms: O_2  and  C_3
REMARK    2  A    between atoms: C_6  and  C_7
REMARK    3  A    between atoms: C_7  and  N_8
REMARK    4  A    between atoms: C_13  and  C_14
REMARK    5  A    between atoms: C_16  and  C_19
REMARK    6  A    between atoms: C_22  and  O_23
REMARK    7  A    between atoms: O_23  and  C_24
REMARK                            x       y       z     vdW  Elec       q    Type
REMARK                         _______ _______ _______ _____ _____    ______ ____
ROOT
ATOM      8  N   UNL     1      -2.043   3.541  25.091  0.00  0.00    -0.260 NA
ATOM      9  C   UNL     1      -2.263   4.337  25.105  0.00  0.00    +0.106 C 
ATOM     10  C   UNL     1      -1.575   4.791  25.140  0.00  0.00    +0.170 C 
ATOM     11  O   UNL     1      -1.538   5.615  25.164  0.00  0.00    -0.222 OA
ATOM     12  C   UNL     1      -0.931   4.276  25.147  0.00  0.00    +0.060 C 
ATOM     13  C   UNL     1      -1.220   3.504  25.116  0.00  0.00    +0.140 C 
ENDROOT
BRANCH  13  14
ATOM     14  C   UNL     1      -0.766   2.816  25.112  0.00  0.00    +0.251 A 
ATOM     15  N   UNL     1      -0.514   2.405  24.443  0.00  0.00    -0.190 NA
ATOM     16  C   UNL     1      -0.076   1.752  24.694  0.00  0.00    +0.203 A 
ATOM     17  N   UNL     1      -0.057   1.760  25.518  0.00  0.00    -0.056 NA
ATOM     18  O   UNL     1      -0.484   2.417  25.777  0.00  0.00    -0.336 OA
BRANCH  16  19
ATOM     19  C   UNL     1       0.280   1.191  24.205  0.00  0.00    +0.039 A 
ATOM     20  C   UNL     1       1.041   1.320  23.914  0.00  0.00    +0.006 A 
ATOM     21  C   UNL     1       1.397   0.758  23.426  0.00  0.00    +0.037 A 
ATOM     22  C   UNL     1       0.992   0.068  23.228  0.00  0.00    +0.147 A 
ATOM     28  C   UNL     1       0.231  -0.062  23.519  0.00  0.00    +0.037 A 
ATOM     29  C   UNL     1      -0.125   0.500  24.008  0.00  0.00    +0.006 A 
BRANCH  22  23
ATOM     23  O   UNL     1       1.348  -0.494  22.740  0.00  0.00    -0.404 OA
BRANCH  23  24
ATOM     24  C   UNL     1       1.724  -0.257  22.045  0.00  0.00    +0.575 C 
ATOM     25  F   UNL     1       2.100  -0.020  21.350  0.00  0.00    -0.133 F 
ATOM     26  F   UNL     1       1.005  -0.296  21.642  0.00  0.00    -0.133 F 
ATOM     27  F   UNL     1       2.443  -0.219  22.447  0.00  0.00    -0.133 F 
ENDBRANCH  23  24
ENDBRANCH  22  23
ENDBRANCH  16  19
ENDBRANCH  13  14
BRANCH   8   7
ATOM      7  C   UNL     1      -2.558   2.897  25.056  0.00  0.00    +0.100 C 
BRANCH   7   6
ATOM      3  C   UNL     1      -4.986   3.232  25.399  0.00  0.00    +0.139 A 
ATOM      4  C   UNL     1      -4.459   3.845  25.559  0.00  0.00    +0.037 A 
ATOM      5  C   UNL     1      -3.649   3.734  25.445  0.00  0.00    +0.000 A 
ATOM      6  C   UNL     1      -3.367   3.009  25.171  0.00  0.00    -0.006 A 
ATOM     30  C   UNL     1      -3.894   2.396  25.011  0.00  0.00    +0.000 A 
ATOM     31  C   UNL     1      -3.613   1.670  24.737  0.00  0.00    -0.000 A 
ATOM     32  C   UNL     1      -4.140   1.056  24.577  0.00  0.00    -0.000 A 
ATOM     33  C   UNL     1      -4.951   1.168  24.692  0.00  0.00    +0.000 A 
ATOM     34  C   UNL     1      -5.232   1.893  24.966  0.00  0.00    +0.003 A 
ATOM     35  C   UNL     1      -4.705   2.507  25.126  0.00  0.00    +0.034 A 
BRANCH   3   2
ATOM      1  C   UNL     1      -6.086   4.089  25.713  0.00  0.00    +0.252 C 
ATOM      2  O   UNL     1      -5.796   3.344  25.514  0.00  0.00    -0.471 OA
ENDBRANCH   3   2
ENDBRANCH   7   6
ENDBRANCH   8   7
TORSDOF 7
ENDMDL
MODEL 6
REMARK VINA RESULT:     -11.7      3.289      6.397
REMARK  Name = 
REMARK  7 active torsions:
REMARK  status: ('A' for Active; 'I' for Inactive)
REMARK    1  A    between atoms: O_2  and  C_3
REMARK    2  A    between atoms: C_6  and  C_7
REMARK    3  A    between atoms: C_7  and  N_8
REMARK    4  A    between atoms: C_13  and  C_14
REMARK    5  A    between atoms: C_16  and  C_19
REMARK    6  A    between atoms: C_22  and  O_23
REMARK    7  A    between atoms: O_23  and  C_24
REMARK                            x       y       z     vdW  Elec       q    Type
REMARK                         _______ _______ _______ _____ _____    ______ ____
ROOT
ATOM      8  N   UNL     1      -1.016  -0.247  24.551  0.00  0.00    -0.260 NA
ATOM      9  C   UNL     1      -0.698  -0.804  24.032  0.00  0.00    +0.106 C 
ATOM     10  C   UNL     1       0.045  -0.536  23.794  0.00  0.00    +0.170 C 
ATOM     11  O   UNL     1       0.558  -0.923  23.275  0.00  0.00    -0.222 OA
ATOM     12  C   UNL     1       0.187   0.185  24.167  0.00  0.00    +0.060 C 
ATOM     13  C   UNL     1      -0.468   0.364  24.634  0.00  0.00    +0.140 C 
ENDROOT
BRANCH  13  14
ATOM     14  C   UNL     1      -0.561   1.037  25.103  0.00  0.00    +0.251 A 
ATOM     15  N   UNL     1      -0.863   1.763  24.855  0.00  0.00    -0.190 NA
ATOM     16  C   UNL     1      -0.856   2.277  25.501  0.00  0.00    +0.203 A 
ATOM     17  N   UNL     1      -0.550   1.868  26.148  0.00  0.00    -0.056 NA
ATOM     18  O   UNL     1      -0.367   1.101  25.902  0.00  0.00    -0.336 OA
BRANCH  16  19
ATOM     19  C   UNL     1      -1.112   3.061  25.499  0.00  0.00    +0.039 A 
ATOM     20  C   UNL     1      -0.615   3.656  25.219  0.00  0.00    +0.006 A 
ATOM     21  C   UNL     1      -0.871   4.441  25.218  0.00  0.00    +0.037 A 
ATOM     22  C   UNL     1      -1.623   4.630  25.496  0.00  0.00    +0.147 A 
ATOM     28  C   UNL     1      -2.121   4.034  25.777  0.00  0.00    +0.037 A 
ATOM     29  C   UNL     1      -1.865   3.250  25.778  0.00  0.00    +0.006 A 
BRANCH  22  23
ATOM     23  O   UNL     1      -1.880   5.414  25.495  0.00  0.00    -0.404 OA
BRANCH  23  24
ATOM     24  C   UNL     1      -1.811   5.869  24.810  0.00  0.00    +0.575 C 
ATOM     25  F   UNL     1      -1.742   6.324  24.125  0.00  0.00    -0.133 F 
ATOM     26  F   UNL     1      -2.518   5.550  24.528  0.00  0.00    -0.133 F 
ATOM     27  F   UNL     1      -1.104   6.187  25.092  0.00  0.00    -0.133 F 
ENDBRANCH  23  24
ENDBRANCH  22  23
ENDBRANCH  16  19
ENDBRANCH  13  14
BRANCH   8   7
ATOM      7  C   UNL     1      -1.751  -0.294  24.921  0.00  0.00    +0.100 C 
BRANCH   7   6
ATOM      3  C   UNL     1      -3.255  -2.203  24.451  0.00  0.00    +0.139 A 
ATOM      4  C   UNL     1      -2.462  -2.338  24.631  0.00  0.00    +0.037 A 
ATOM      5  C   UNL     1      -1.960  -1.701  24.788  0.00  0.00    +0.000 A 
ATOM      6  C   UNL     1      -2.252  -0.930  24.764  0.00  0.00    -0.006 A 
ATOM     30  C   UNL     1      -3.045  -0.796  24.584  0.00  0.00    +0.000 A 
ATOM     31  C   UNL     1      -3.339  -0.025  24.560  0.00  0.00    -0.000 A 
ATOM     32  C   UNL     1      -4.132   0.110  24.380  0.00  0.00    -0.000 A 
ATOM     33  C   UNL     1      -4.634  -0.527  24.223  0.00  0.00    +0.000 A 
ATOM     34  C   UNL     1      -4.341  -1.297  24.247  0.00  0.00    +0.003 A 
ATOM     35  C   UNL     1      -3.547  -1.433  24.427  0.00  0.00    +0.034 A 
BRANCH   3   2
ATOM      1  C   UNL     1      -3.465  -3.611  24.324  0.00  0.00    +0.252 C 
ATOM      2  O   UNL     1      -3.756  -2.839  24.294  0.00  0.00    -0.471 OA
ENDBRANCH   3   2
ENDBRANCH   7   6
ENDBRANCH   8   7
TORSDOF 7
ENDMDL
MODEL 7
REMARK VINA RESULT:     -11.5      2.830      4.705
REMARK  Name = 
REMARK  7 active torsions:
REMARK  status: ('A' for Active; 'I' for Inactive)
REMARK    1  A    between atoms: O_2  and  C_3
REMARK    2  A    between atoms: C_6  and  C_7
REMARK    3  A    between atoms: C_7  and  N_8
REMARK    4  A    between atoms: C_13  and  C_14
REMARK    5  A    between atoms: C_16  and  C_19
REMARK    6  A    between atoms: C_22  and  O_23
REMARK    7  A    between atoms: O_23  and  C_24
REMARK                            x       y       z     vdW  Elec       q    Type
REMARK                         _______ _______ _______ _____ _____    ______ ____
ROOT
ATOM      8  N   UNL     1      -0.633   1.997  25.441  0.00  0.00    -0.260 NA
ATOM      9  C   UNL     1       0.099   1.942  25.818  0.00  0.00    +0.106 C 
ATOM     10  C   UNL     1       0.235   2.653  26.215  0.00  0.00    +0.170 C 
ATOM     11  O   UNL     1       0.902   2.839  26.665  0.00  0.00    -0.222 OA
ATOM     12  C   UNL     1      -0.413   3.146  26.083  0.00  0.00    +0.060 C 
ATOM     13  C   UNL     1      -0.949   2.741  25.605  0.00  0.00    +0.140 C 
ENDROOT
BRANCH  13  14
ATOM     14  C   UNL     1      -1.674   3.028  25.337  0.00  0.00    +0.251 A 
ATOM     15  N   UNL     1      -2.416   2.718  25.520  0.00  0.00    -0.190 NA
ATOM     16  C   UNL     1      -2.986   3.175  25.135  0.00  0.00    +0.203 A 
ATOM     17  N   UNL     1      -2.595   3.767  24.714  0.00  0.00    -0.056 NA
ATOM     18  O   UNL     1      -1.784   3.677  24.839  0.00  0.00    -0.336 OA
BRANCH  16  19
ATOM     19  C   UNL     1      -3.802   3.059  25.166  0.00  0.00    +0.039 A 
ATOM     20  C   UNL     1      -4.166   2.543  24.636  0.00  0.00    +0.006 A 
ATOM     21  C   UNL     1      -4.982   2.427  24.668  0.00  0.00    +0.037 A 
ATOM     22  C   UNL     1      -5.434   2.828  25.229  0.00  0.00    +0.147 A 
ATOM     28  C   UNL     1      -5.070   3.345  25.759  0.00  0.00    +0.037 A 
ATOM     29  C   UNL     1      -4.254   3.461  25.728  0.00  0.00    +0.006 A 
BRANCH  22  23
ATOM     23  O   UNL     1      -6.251   2.713  25.261  0.00  0.00    -0.404 OA
BRANCH  23  24
ATOM     24  C   UNL     1      -6.555   1.976  25.471  0.00  0.00    +0.575 C 
ATOM     25  F   UNL     1      -6.859   1.238  25.681  0.00  0.00    -0.133 F 
ATOM     26  F   UNL     1      -6.707   1.812  24.677  0.00  0.00    -0.133 F 
ATOM     27  F   UNL     1      -6.403   2.139  26.265  0.00  0.00    -0.133 F 
ENDBRANCH  23  24
ENDBRANCH  22  23
ENDBRANCH  16  19
ENDBRANCH  13  14
BRANCH   8   7
ATOM      7  C   UNL     1      -0.985   1.409  24.981  0.00  0.00    +0.100 C 
BRANCH   7   6
ATOM      3  C   UNL     1       0.414  -0.069  23.574  0.00  0.00    +0.139 A 
ATOM      4  C   UNL     1       0.546   0.744  23.574  0.00  0.00    +0.037 A 
ATOM      5  C   UNL     1       0.079   1.238  24.044  0.00  0.00    +0.000 A 
ATOM      6  C   UNL     1      -0.519   0.916  24.512  0.00  0.00    -0.006 A 
ATOM     30  C   UNL     1      -0.650   0.103  24.512  0.00  0.00    +0.000 A 
ATOM     31  C   UNL     1      -1.248  -0.220  24.981  0.00  0.00    -0.000 A 
ATOM     32  C   UNL     1      -1.380  -1.033  24.980  0.00  0.00    -0.000 A 
ATOM     33  C   UNL     1      -0.913  -1.527  24.511  0.00  0.00    +0.000 A 
ATOM     34  C   UNL     1      -0.315  -1.205  24.042  0.00  0.00    +0.003 A 
ATOM     35  C   UNL     1      -0.183  -0.391  24.042  0.00  0.00    +0.034 A 
BRANCH   3   2
ATOM      1  C   UNL     1       1.468  -0.240  22.624  0.00  0.00    +0.252 C 
ATOM      2  O   UNL     1       0.881  -0.562  23.105  0.00  0.00    -0.471 OA
ENDBRANCH   3   2
ENDBRANCH   7   6
ENDBRANCH   8   7
TORSDOF 7
ENDMDL
