REMARK  Name = 
REMARK  6 active torsions:
REMARK  status: ('A' for Active; 'I' for Inactive)
REMARK    1  A    between atoms: O_2  and  C_3
REMARK    2  A    between atoms: C_6  and  O_7
REMARK    3  A    between atoms: O_7  and  C_8
REMARK    4  A    between atoms: C_8  and  C_9
REMARK    5  A    between atoms: C_18  and  C_19
REMARK    6  A    between atoms: C_19  and  C_21
REMARK                            x       y       z     vdW  Elec       q    Type
REMARK                         _______ _______ _______ _____ _____    ______ ____
ROOT
ATOM      9  C   UNL     1       4.127   0.412   0.000  0.00  0.00    +0.131 A 
ATOM     10  N   UNL     1       3.643   1.080   0.000  0.00  0.00    -0.244 NA
ATOM     11  C   UNL     1       2.858   0.825   0.000  0.00  0.00    +0.061 A 
ATOM     12  C   UNL     1       2.858   0.000   0.000  0.00  0.00    +0.022 A 
ATOM     13  C   UNL     1       2.143  -0.412   0.000  0.00  0.00    +0.034 C 
ATOM     14  C   UNL     1       1.429   0.000   0.000  0.00  0.00    +0.007 C 
ATOM     15  C   UNL     1       1.429  -0.825   0.000  0.00  0.00    +0.000 C 
ATOM     16  C   UNL     1       0.715  -0.412   0.000  0.00  0.00    +0.001 C 
ATOM     17  C   UNL     1       0.000   0.000   0.000  0.00  0.00    +0.003 C 
ATOM     18  C   UNL     1       0.000   0.825   0.000  0.00  0.00    +0.039 C 
ATOM     28  C   UNL     1       0.715   1.238   0.000  0.00  0.00    +0.153 C 
ATOM     29  O   UNL     1       0.715   2.062   0.000  0.00  0.00    -0.223 OA
ATOM     30  C   UNL     1       1.429   0.825   0.000  0.00  0.00    +0.036 C 
ATOM     31  C   UNL     1       2.143   1.238   0.000  0.00  0.00    +0.043 C 
ATOM     32  C   UNL     1       2.143   2.062   0.000  0.00  0.00    +0.006 C 
ATOM     33  S   UNL     1       3.643  -0.255   0.000  0.00  0.00    -0.072 S 
ENDROOT
BRANCH  18  19
ATOM     19  C   UNL     1      -0.715   1.238   0.000  0.00  0.00    +0.079 C 
ATOM     20  C   UNL     1      -0.715   2.062   0.000  0.00  0.00    +0.010 C 
BRANCH  19  21
ATOM     21  C   UNL     1      -1.429   0.825   0.000  0.00  0.00    +0.225 C 
ATOM     22  O   UNL     1      -1.429   0.000   0.000  0.00  0.00    -0.275 OA
ATOM     23  N   UNL     1      -2.143   1.238   0.000  0.00  0.00    -0.280 N 
ATOM     24  C   UNL     1      -2.897   0.902   0.000  0.00  0.00    +0.093 C 
ATOM     25  C   UNL     1      -3.449   1.515   0.000  0.00  0.00    +0.023 C 
ATOM     26  C   UNL     1      -3.037   2.229   0.000  0.00  0.00    +0.023 C 
ATOM     27  C   UNL     1      -2.230   2.058   0.000  0.00  0.00    +0.093 C 
ENDBRANCH  19  21
ENDBRANCH  18  19
BRANCH   9   8
ATOM      8  C   UNL     1       4.952   0.412   0.000  0.00  0.00    +0.257 C 
BRANCH   8   7
ATOM      7  O   UNL     1       5.365  -0.302   0.000  0.00  0.00    -0.468 OA
BRANCH   7   6
ATOM      3  C   UNL     1       7.840  -0.302   0.000  0.00  0.00    +0.139 A 
ATOM      4  C   UNL     1       7.427  -1.016   0.000  0.00  0.00    +0.040 A 
ATOM      5  C   UNL     1       6.602  -1.016   0.000  0.00  0.00    +0.040 A 
ATOM      6  C   UNL     1       6.190  -0.302   0.000  0.00  0.00    +0.139 A 
ATOM     34  C   UNL     1       6.602   0.412   0.000  0.00  0.00    +0.040 A 
ATOM     35  C   UNL     1       7.427   0.412   0.000  0.00  0.00    +0.040 A 
BRANCH   3   2
ATOM      1  C   UNL     1       9.077   0.412   0.000  0.00  0.00    +0.252 C 
ATOM      2  O   UNL     1       8.665  -0.302   0.000  0.00  0.00    -0.471 OA
ENDBRANCH   3   2
ENDBRANCH   7   6
ENDBRANCH   8   7
ENDBRANCH   9   8
TORSDOF 6
