MODEL 1
REMARK VINA RESULT:     -11.4      0.000      0.000
REMARK  Name = 
REMARK  3 active torsions:
REMARK  status: ('A' for Active; 'I' for Inactive)
REMARK    1  A    between atoms: O_2  and  C_3
REMARK    2  A    between atoms: C_4  and  C_9
REMARK    3  A    between atoms: N_17  and  C_18
REMARK                            x       y       z     vdW  Elec       q    Type
REMARK                         _______ _______ _______ _____ _____    ______ ____
ROOT
ATOM      9  C   UNL     1      -2.801  -0.588  25.219  0.00  0.00    +0.252 C 
ATOM     10  O   UNL     1      -2.467  -0.793  25.945  0.00  0.00    -0.270 OA
ATOM     11  N   UNL     1      -2.715   0.180  24.927  0.00  0.00    -0.272 N 
ATOM     12  C   UNL     1      -3.049   0.386  24.201  0.00  0.00    +0.115 C 
ATOM     13  C   UNL     1      -2.963   1.152  23.911  0.00  0.00    +0.116 C 
ATOM     14  N   UNL     1      -2.543   1.714  24.345  0.00  0.00    -0.261 N 
ATOM     15  C   UNL     1      -2.210   1.509  25.071  0.00  0.00    +0.116 C 
ATOM     16  C   UNL     1      -1.829   2.175  25.374  0.00  0.00    +0.116 C 
ATOM     17  N   UNL     1      -1.927   2.792  24.836  0.00  0.00    -0.264 N 
ATOM     24  C   UNL     1      -2.369   2.507  24.200  0.00  0.00    +0.307 C 
ATOM     25  O   UNL     1      -2.596   2.939  23.535  0.00  0.00    -0.252 OA
ATOM     26  C   UNL     1      -2.296   0.741  25.362  0.00  0.00    +0.115 C 
ENDROOT
BRANCH   9   4
ATOM      3  C   UNL     1      -2.848  -1.841  24.534  0.00  0.00    +0.143 A 
ATOM      4  C   UNL     1      -3.221  -1.149  24.784  0.00  0.00    +0.087 A 
ATOM      5  C   UNL     1      -4.015  -1.017  24.599  0.00  0.00    +0.008 A 
ATOM      6  C   UNL     1      -4.434  -1.578  24.163  0.00  0.00    +0.000 A 
ATOM      7  C   UNL     1      -4.062  -2.270  23.913  0.00  0.00    +0.003 A 
ATOM      8  C   UNL     1      -3.269  -2.401  24.099  0.00  0.00    +0.037 A 
BRANCH   3   2
ATOM      1  C   UNL     1      -1.672  -2.645  24.436  0.00  0.00    +0.252 C 
ATOM      2  O   UNL     1      -2.056  -1.972  24.719  0.00  0.00    -0.471 OA
ENDBRANCH   3   2
ENDBRANCH   9   4
BRANCH  17  18
ATOM     18  C   UNL     1      -1.635   3.559  24.919  0.00  0.00    +0.082 C 
ATOM     19  C   UNL     1      -2.120   4.154  25.222  0.00  0.00    +0.052 C 
ATOM     20  C   UNL     1      -1.828   4.922  25.305  0.00  0.00    +0.144 C 
ATOM     21  O   UNL     1      -1.052   5.093  25.084  0.00  0.00    -0.354 OA
ATOM     22  C   UNL     1      -0.568   4.499  24.781  0.00  0.00    +0.144 C 
ATOM     23  C   UNL     1      -0.859   3.731  24.699  0.00  0.00    +0.052 C 
ENDBRANCH  17  18
TORSDOF 3
ENDMDL
MODEL 2
REMARK VINA RESULT:     -10.7      1.172      5.107
REMARK  Name = 
REMARK  3 active torsions:
REMARK  status: ('A' for Active; 'I' for Inactive)
REMARK    1  A    between atoms: O_2  and  C_3
REMARK    2  A    between atoms: C_4  and  C_9
REMARK    3  A    between atoms: N_17  and  C_18
REMARK                            x       y       z     vdW  Elec       q    Type
REMARK                         _______ _______ _______ _____ _____    ______ ____
ROOT
ATOM      9  C   UNL     1      -1.390   2.437  25.382  0.00  0.00    +0.252 C 
ATOM     10  O   UNL     1      -0.643   2.158  25.592  0.00  0.00    -0.270 OA
ATOM     11  N   UNL     1      -1.987   1.904  25.177  0.00  0.00    -0.272 N 
ATOM     12  C   UNL     1      -2.734   2.183  24.966  0.00  0.00    +0.115 C 
ATOM     13  C   UNL     1      -3.330   1.651  24.762  0.00  0.00    +0.116 C 
ATOM     14  N   UNL     1      -3.180   0.840  24.769  0.00  0.00    -0.261 N 
ATOM     15  C   UNL     1      -2.433   0.561  24.980  0.00  0.00    +0.116 C 
ATOM     16  C   UNL     1      -2.446  -0.262  24.937  0.00  0.00    +0.116 C 
ATOM     17  N   UNL     1      -3.201  -0.492  24.699  0.00  0.00    -0.264 N 
ATOM     24  C   UNL     1      -3.654   0.189  24.596  0.00  0.00    +0.307 C 
ATOM     25  O   UNL     1      -4.445   0.215  24.360  0.00  0.00    -0.252 OA
ATOM     26  C   UNL     1      -1.835   1.094  25.184  0.00  0.00    +0.115 C 
ENDROOT
BRANCH   9   4
ATOM      3  C   UNL     1      -1.108   3.744  24.878  0.00  0.00    +0.143 A 
ATOM      4  C   UNL     1      -1.541   3.248  25.375  0.00  0.00    +0.087 A 
ATOM      5  C   UNL     1      -2.126   3.562  25.865  0.00  0.00    +0.008 A 
ATOM      6  C   UNL     1      -2.278   4.373  25.858  0.00  0.00    +0.000 A 
ATOM      7  C   UNL     1      -1.845   4.869  25.362  0.00  0.00    +0.003 A 
ATOM      8  C   UNL     1      -1.261   4.555  24.872  0.00  0.00    +0.037 A 
BRANCH   3   2
ATOM      1  C   UNL     1      -0.103   3.925  23.880  0.00  0.00    +0.252 C 
ATOM      2  O   UNL     1      -0.524   3.430  24.389  0.00  0.00    -0.471 OA
ENDBRANCH   3   2
ENDBRANCH   9   4
BRANCH  17  18
ATOM     18  C   UNL     1      -3.459  -1.268  24.585  0.00  0.00    +0.082 C 
ATOM     19  C   UNL     1      -3.337  -1.834  25.173  0.00  0.00    +0.052 C 
ATOM     20  C   UNL     1      -3.594  -2.610  25.059  0.00  0.00    +0.144 C 
ATOM     21  O   UNL     1      -3.973  -2.819  24.357  0.00  0.00    -0.354 OA
ATOM     22  C   UNL     1      -4.095  -2.254  23.769  0.00  0.00    +0.144 C 
ATOM     23  C   UNL     1      -3.838  -1.478  23.883  0.00  0.00    +0.052 C 
ENDBRANCH  17  18
TORSDOF 3
ENDMDL
