REMARK  Name = 
REMARK  6 active torsions:
REMARK  status: ('A' for Active; 'I' for Inactive)
REMARK    1  A    between atoms: C_2  and  C_3
REMARK    2  A    between atoms: C_2  and  C_17
REMARK    3  A    between atoms: N_9  and  C_10
REMARK    4  A    between atoms: C_10  and  C_11
REMARK    5  A    between atoms: C_20  and  N_21
REMARK    6  A    between atoms: C_22  and  C_24
REMARK                            x       y       z     vdW  Elec       q    Type
REMARK                         _______ _______ _______ _____ _____    ______ ____
ROOT
ATOM      1  O   UNL     1       2.143  -3.712   0.000  0.00  0.00    -0.216 OA
ATOM      2  C   UNL     1       2.858  -4.125   0.000  0.00  0.00    +0.195 C 
ENDROOT
BRANCH   2   3
ATOM      3  C   UNL     1       2.858  -4.950   0.000  0.00  0.00    +0.140 C 
ATOM      4  C   UNL     1       3.572  -5.362   0.000  0.00  0.00    +0.165 C 
ATOM      5  O   UNL     1       3.572  -6.188   0.000  0.00  0.00    -0.343 OA
ATOM      6  C   UNL     1       2.858  -6.600   0.000  0.00  0.00    +0.227 C 
ATOM      7  C   UNL     1       2.143  -6.188   0.000  0.00  0.00    +0.256 C 
ATOM      8  O   UNL     1       1.429  -6.600   0.000  0.00  0.00    -0.272 OA
ATOM      9  N   UNL     1       2.143  -5.362   0.000  0.00  0.00    -0.268 N 
BRANCH   9  10
ATOM     10  C   UNL     1       1.429  -4.950   0.000  0.00  0.00    +0.139 C 
BRANCH  10  11
ATOM     11  C   UNL     1       0.715  -5.362   0.000  0.00  0.00    +0.079 A 
ATOM     12  N   UNL     1       0.715  -6.188   0.000  0.00  0.00    -0.246 NA
ATOM     13  C   UNL     1       0.000  -6.600   0.000  0.00  0.00    +0.099 A 
ATOM     14  C   UNL     1      -0.715  -6.188   0.000  0.00  0.00    +0.021 A 
ATOM     15  C   UNL     1      -0.715  -5.362   0.000  0.00  0.00    +0.003 A 
ATOM     16  C   UNL     1       0.000  -4.950   0.000  0.00  0.00    +0.016 A 
ENDBRANCH  10  11
ENDBRANCH   9  10
ENDBRANCH   2   3
BRANCH   2  17
ATOM     17  C   UNL     1       3.572  -3.712   0.000  0.00  0.00    +0.010 A 
ATOM     18  C   UNL     1       3.572  -2.888   0.000  0.00  0.00    -0.000 A 
ATOM     19  C   UNL     1       4.287  -2.475   0.000  0.00  0.00    +0.016 A 
ATOM     20  C   UNL     1       5.001  -2.888   0.000  0.00  0.00    +0.074 A 
ATOM     31  C   UNL     1       5.001  -3.712   0.000  0.00  0.00    +0.016 A 
ATOM     32  C   UNL     1       4.287  -4.125   0.000  0.00  0.00    -0.000 A 
BRANCH  20  21
ATOM     21  N   UNL     1       5.716  -2.475   0.000  0.00  0.00    -0.175 NA
ATOM     22  C   UNL     1       5.716  -1.650   0.000  0.00  0.00    +0.269 C 
ATOM     23  O   UNL     1       5.001  -1.238   0.000  0.00  0.00    -0.268 OA
BRANCH  22  24
ATOM     24  C   UNL     1       6.430  -1.238   0.000  0.00  0.00    +0.059 A 
ATOM     25  C   UNL     1       6.430  -0.412   0.000  0.00  0.00    +0.035 A 
ATOM     26  C   UNL     1       7.145   0.000   0.000  0.00  0.00    +0.138 A 
ATOM     27 CL   UNL     1       7.145   0.825   0.000  0.00  0.00    -0.061 Cl
ATOM     28  N   UNL     1       7.859  -0.412   0.000  0.00  0.00    -0.232 NA
ATOM     29  C   UNL     1       7.859  -1.238   0.000  0.00  0.00    +0.100 A 
ATOM     30  C   UNL     1       7.145  -1.650   0.000  0.00  0.00    +0.025 A 
ENDBRANCH  22  24
ENDBRANCH  20  21
ENDBRANCH   2  17
TORSDOF 6
