MODEL 1
REMARK VINA RESULT:     -11.3      0.000      0.000
REMARK  Name = 
REMARK  4 active torsions:
REMARK  status: ('A' for Active; 'I' for Inactive)
REMARK    1  A    between atoms: N_2  and  C_4
REMARK    2  A    between atoms: C_7  and  C_10
REMARK    3  A    between atoms: C_14  and  C_16
REMARK    4  A    between atoms: C_23  and  C_24
REMARK                            x       y       z     vdW  Elec       q    Type
REMARK                         _______ _______ _______ _____ _____    ______ ____
ROOT
ATOM     10  C   UNL     1      -3.937   0.899  24.745  0.00  0.00    +0.102 A 
ATOM     11  N   UNL     1      -4.618   1.359  24.682  0.00  0.00    -0.170 NA
ATOM     12  N   UNL     1      -4.402   2.149  24.786  0.00  0.00    -0.253 N 
ATOM     13  C   UNL     1      -4.912   2.798  24.766  0.00  0.00    +0.153 C 
ATOM     14  C   UNL     1      -3.588   2.176  24.913  0.00  0.00    +0.058 A 
ATOM     15  C   UNL     1      -3.299   1.404  24.888  0.00  0.00    +0.035 A 
ENDROOT
BRANCH  14  16
ATOM     16  C   UNL     1      -3.139   2.858  25.043  0.00  0.00    +0.056 C 
ATOM     17  C   UNL     1      -3.318   3.288  25.666  0.00  0.00    +0.078 C 
ATOM     18  N   UNL     1      -2.721   3.447  25.118  0.00  0.00    -0.272 NA
ATOM     19  C   UNL     1      -2.742   2.679  24.405  0.00  0.00    +0.072 C 
ATOM     20  C   UNL     1      -2.508   2.402  23.862  0.00  0.00    +0.018 C 
ATOM     21  C   UNL     1      -2.552   3.021  24.510  0.00  0.00    +0.010 C 
ATOM     22  C   UNL     1      -1.970   3.676  24.457  0.00  0.00    +0.018 C 
ATOM     23  C   UNL     1      -2.113   4.125  25.058  0.00  0.00    +0.077 C 
BRANCH  23  24
ATOM     24  C   UNL     1      -1.864   4.817  25.431  0.00  0.00    +0.125 C 
ATOM     25  N   UNL     1      -1.273   5.279  25.090  0.00  0.00    -0.130 NA
ENDBRANCH  23  24
ENDBRANCH  14  16
BRANCH  10   7
ATOM      4  C   UNL     1      -3.822  -1.565  24.542  0.00  0.00    +0.048 A 
ATOM      5  C   UNL     1      -3.998  -1.105  23.881  0.00  0.00    +0.015 A 
ATOM      6  C   UNL     1      -4.036  -0.283  23.948  0.00  0.00    +0.003 A 
ATOM      7  C   UNL     1      -3.899   0.078  24.677  0.00  0.00    +0.019 A 
ATOM      8  C   UNL     1      -3.723  -0.383  25.339  0.00  0.00    +0.003 A 
ATOM      9  C   UNL     1      -3.685  -1.205  25.271  0.00  0.00    +0.015 A 
BRANCH   4   2
ATOM      1  C   UNL     1      -4.199  -2.770  23.873  0.00  0.00    +0.112 C 
ATOM      2  N   UNL     1      -3.784  -2.386  24.474  0.00  0.00    -0.304 N 
ATOM      3  C   UNL     1      -3.332  -2.824  25.008  0.00  0.00    +0.112 C 
ENDBRANCH   4   2
ENDBRANCH  10   7
TORSDOF 4
ENDMDL
MODEL 2
REMARK VINA RESULT:     -10.3      1.500      2.213
REMARK  Name = 
REMARK  4 active torsions:
REMARK  status: ('A' for Active; 'I' for Inactive)
REMARK    1  A    between atoms: N_2  and  C_4
REMARK    2  A    between atoms: C_7  and  C_10
REMARK    3  A    between atoms: C_14  and  C_16
REMARK    4  A    between atoms: C_23  and  C_24
REMARK                            x       y       z     vdW  Elec       q    Type
REMARK                         _______ _______ _______ _____ _____    ______ ____
ROOT
ATOM     10  C   UNL     1      -3.555   0.578  24.238  0.00  0.00    +0.102 A 
ATOM     11  N   UNL     1      -3.339   1.048  23.596  0.00  0.00    -0.170 NA
ATOM     12  N   UNL     1      -3.625   1.810  23.732  0.00  0.00    -0.253 N 
ATOM     13  C   UNL     1      -3.534   2.459  23.230  0.00  0.00    +0.153 C 
ATOM     14  C   UNL     1      -4.017   1.810  24.457  0.00  0.00    +0.058 A 
ATOM     15  C   UNL     1      -3.974   1.048  24.771  0.00  0.00    +0.035 A 
ENDROOT
BRANCH  14  16
ATOM     16  C   UNL     1      -4.387   2.460  24.809  0.00  0.00    +0.056 C 
ATOM     17  C   UNL     1      -3.958   3.100  24.914  0.00  0.00    +0.078 C 
ATOM     18  N   UNL     1      -4.751   3.006  25.121  0.00  0.00    -0.272 NA
ATOM     19  C   UNL     1      -5.029   2.033  24.847  0.00  0.00    +0.072 C 
ATOM     20  C   UNL     1      -5.478   1.559  24.809  0.00  0.00    +0.018 C 
ATOM     21  C   UNL     1      -5.165   2.375  25.015  0.00  0.00    +0.010 C 
ATOM     22  C   UNL     1      -5.738   2.923  25.391  0.00  0.00    +0.018 C 
ATOM     23  C   UNL     1      -5.352   3.571  25.512  0.00  0.00    +0.077 C 
BRANCH  23  24
ATOM     24  C   UNL     1      -5.432   4.333  25.816  0.00  0.00    +0.125 C 
ATOM     25  N   UNL     1      -6.167   4.707  25.804  0.00  0.00    -0.130 NA
ENDBRANCH  23  24
ENDBRANCH  14  16
BRANCH  10   7
ATOM      4  C   UNL     1      -3.039  -1.827  24.516  0.00  0.00    +0.048 A 
ATOM      5  C   UNL     1      -2.557  -1.258  24.870  0.00  0.00    +0.015 A 
ATOM      6  C   UNL     1      -2.730  -0.457  24.777  0.00  0.00    +0.003 A 
ATOM      7  C   UNL     1      -3.383  -0.224  24.331  0.00  0.00    +0.019 A 
ATOM      8  C   UNL     1      -3.864  -0.793  23.977  0.00  0.00    +0.003 A 
ATOM      9  C   UNL     1      -3.692  -1.595  24.070  0.00  0.00    +0.015 A 
BRANCH   4   2
ATOM      1  C   UNL     1      -2.093  -2.898  24.509  0.00  0.00    +0.112 C 
ATOM      2  N   UNL     1      -2.866  -2.628  24.609  0.00  0.00    -0.304 N 
ATOM      3  C   UNL     1      -3.467  -3.160  24.802  0.00  0.00    +0.112 C 
ENDBRANCH   4   2
ENDBRANCH  10   7
TORSDOF 4
ENDMDL
MODEL 3
REMARK VINA RESULT:     -10.3      0.731      4.900
REMARK  Name = 
REMARK  4 active torsions:
REMARK  status: ('A' for Active; 'I' for Inactive)
REMARK    1  A    between atoms: N_2  and  C_4
REMARK    2  A    between atoms: C_7  and  C_10
REMARK    3  A    between atoms: C_14  and  C_16
REMARK    4  A    between atoms: C_23  and  C_24
REMARK                            x       y       z     vdW  Elec       q    Type
REMARK                         _______ _______ _______ _____ _____    ______ ____
ROOT
ATOM     10  C   UNL     1      -3.327   1.900  24.871  0.00  0.00    +0.102 A 
ATOM     11  N   UNL     1      -4.139   1.922  25.017  0.00  0.00    -0.170 NA
ATOM     12  N   UNL     1      -4.437   1.160  24.913  0.00  0.00    -0.253 N 
ATOM     13  C   UNL     1      -5.224   0.930  25.004  0.00  0.00    +0.153 C 
ATOM     14  C   UNL     1      -3.810   0.667  24.703  0.00  0.00    +0.058 A 
ATOM     15  C   UNL     1      -3.123   1.124  24.677  0.00  0.00    +0.035 A 
ENDROOT
BRANCH  14  16
ATOM     16  C   UNL     1      -3.860  -0.143  24.546  0.00  0.00    +0.056 C 
ATOM     17  C   UNL     1      -4.243  -0.358  23.904  0.00  0.00    +0.078 C 
ATOM     18  N   UNL     1      -3.880  -0.862  24.447  0.00  0.00    -0.272 NA
ATOM     19  C   UNL     1      -3.455  -0.261  25.193  0.00  0.00    +0.072 C 
ATOM     20  C   UNL     1      -3.117  -0.199  25.748  0.00  0.00    +0.018 C 
ATOM     21  C   UNL     1      -3.507  -0.644  25.074  0.00  0.00    +0.010 C 
ATOM     22  C   UNL     1      -3.440  -1.519  25.101  0.00  0.00    +0.018 C 
ATOM     23  C   UNL     1      -3.808  -1.771  24.481  0.00  0.00    +0.077 C 
BRANCH  23  24
ATOM     24  C   UNL     1      -4.016  -2.460  24.079  0.00  0.00    +0.125 C 
ATOM     25  N   UNL     1      -3.656  -3.176  24.276  0.00  0.00    -0.130 NA
ENDBRANCH  23  24
ENDBRANCH  14  16
BRANCH  10   7
ATOM      4  C   UNL     1      -1.775   3.824  24.995  0.00  0.00    +0.048 A 
ATOM      5  C   UNL     1      -1.730   3.298  24.361  0.00  0.00    +0.015 A 
ATOM      6  C   UNL     1      -2.248   2.657  24.320  0.00  0.00    +0.003 A 
ATOM      7  C   UNL     1      -2.810   2.541  24.912  0.00  0.00    +0.019 A 
ATOM      8  C   UNL     1      -2.854   3.067  25.546  0.00  0.00    +0.003 A 
ATOM      9  C   UNL     1      -2.336   3.708  25.588  0.00  0.00    +0.015 A 
BRANCH   4   2
ATOM      1  C   UNL     1      -0.446   4.346  24.943  0.00  0.00    +0.112 C 
ATOM      2  N   UNL     1      -1.257   4.465  25.036  0.00  0.00    -0.304 N 
ATOM      3  C   UNL     1      -1.551   5.224  25.170  0.00  0.00    +0.112 C 
ENDBRANCH   4   2
ENDBRANCH  10   7
TORSDOF 4
ENDMDL
MODEL 4
REMARK VINA RESULT:      -9.8      1.728      5.307
REMARK  Name = 
REMARK  4 active torsions:
REMARK  status: ('A' for Active; 'I' for Inactive)
REMARK    1  A    between atoms: N_2  and  C_4
REMARK    2  A    between atoms: C_7  and  C_10
REMARK    3  A    between atoms: C_14  and  C_16
REMARK    4  A    between atoms: C_23  and  C_24
REMARK                            x       y       z     vdW  Elec       q    Type
REMARK                         _______ _______ _______ _____ _____    ______ ____
ROOT
ATOM     10  C   UNL     1      -1.403   0.970  25.157  0.00  0.00    +0.102 A 
ATOM     11  N   UNL     1      -0.814   0.464  25.435  0.00  0.00    -0.170 NA
ATOM     12  N   UNL     1      -1.082  -0.311  25.346  0.00  0.00    -0.253 N 
ATOM     13  C   UNL     1      -0.668  -0.994  25.553  0.00  0.00    +0.153 C 
ATOM     14  C   UNL     1      -1.836  -0.284  25.013  0.00  0.00    +0.058 A 
ATOM     15  C   UNL     1      -2.035   0.508  24.896  0.00  0.00    +0.035 A 
ENDROOT
BRANCH  14  16
ATOM     16  C   UNL     1      -2.309  -0.935  24.828  0.00  0.00    +0.056 C 
ATOM     17  C   UNL     1      -2.038  -1.432  24.294  0.00  0.00    +0.078 C 
ATOM     18  N   UNL     1      -2.756  -1.493  24.697  0.00  0.00    -0.272 NA
ATOM     19  C   UNL     1      -2.820  -0.669  25.342  0.00  0.00    +0.072 C 
ATOM     20  C   UNL     1      -3.143  -0.326  25.795  0.00  0.00    +0.018 C 
ATOM     21  C   UNL     1      -3.015  -1.002  25.219  0.00  0.00    +0.010 C 
ATOM     22  C   UNL     1      -3.655  -1.600  25.178  0.00  0.00    +0.018 C 
ATOM     23  C   UNL     1      -3.426  -2.112  24.659  0.00  0.00    +0.077 C 
BRANCH  23  24
ATOM     24  C   UNL     1      -3.651  -2.811  24.286  0.00  0.00    +0.125 C 
ATOM     25  N   UNL     1      -4.350  -2.837  23.848  0.00  0.00    -0.130 NA
ENDBRANCH  23  24
ENDBRANCH  14  16
BRANCH  10   7
ATOM      4  C   UNL     1      -1.294   3.443  25.113  0.00  0.00    +0.048 A 
ATOM      5  C   UNL     1      -1.129   3.035  25.811  0.00  0.00    +0.015 A 
ATOM      6  C   UNL     1      -1.165   2.211  25.826  0.00  0.00    +0.003 A 
ATOM      7  C   UNL     1      -1.367   1.794  25.143  0.00  0.00    +0.019 A 
ATOM      8  C   UNL     1      -1.532   2.202  24.445  0.00  0.00    +0.003 A 
ATOM      9  C   UNL     1      -1.496   3.027  24.431  0.00  0.00    +0.015 A 
BRANCH   4   2
ATOM      1  C   UNL     1      -1.897   4.712  25.372  0.00  0.00    +0.112 C 
ATOM      2  N   UNL     1      -1.258   4.267  25.099  0.00  0.00    -0.304 N 
ATOM      3  C   UNL     1      -0.583   4.645  24.812  0.00  0.00    +0.112 C 
ENDBRANCH   4   2
ENDBRANCH  10   7
TORSDOF 4
ENDMDL
MODEL 5
REMARK VINA RESULT:      -9.5      1.494      1.904
REMARK  Name = 
REMARK  4 active torsions:
REMARK  status: ('A' for Active; 'I' for Inactive)
REMARK    1  A    between atoms: N_2  and  C_4
REMARK    2  A    between atoms: C_7  and  C_10
REMARK    3  A    between atoms: C_14  and  C_16
REMARK    4  A    between atoms: C_23  and  C_24
REMARK                            x       y       z     vdW  Elec       q    Type
REMARK                         _______ _______ _______ _____ _____    ______ ____
ROOT
ATOM     10  C   UNL     1      -1.895   0.486  25.161  0.00  0.00    +0.102 A 
ATOM     11  N   UNL     1      -1.124   0.516  25.451  0.00  0.00    -0.170 NA
ATOM     12  N   UNL     1      -0.915   1.309  25.538  0.00  0.00    -0.253 N 
ATOM     13  C   UNL     1      -0.191   1.593  25.814  0.00  0.00    +0.153 C 
ATOM     14  C   UNL     1      -1.558   1.769  25.301  0.00  0.00    +0.058 A 
ATOM     15  C   UNL     1      -2.164   1.260  25.068  0.00  0.00    +0.035 A 
ENDROOT
BRANCH  14  16
ATOM     16  C   UNL     1      -1.589   2.594  25.299  0.00  0.00    +0.056 C 
ATOM     17  C   UNL     1      -1.567   2.954  25.989  0.00  0.00    +0.078 C 
ATOM     18  N   UNL     1      -1.619   3.319  25.250  0.00  0.00    -0.272 NA
ATOM     19  C   UNL     1      -1.627   2.559  24.529  0.00  0.00    +0.072 C 
ATOM     20  C   UNL     1      -1.653   2.369  23.904  0.00  0.00    +0.018 C 
ATOM     21  C   UNL     1      -1.640   2.960  24.578  0.00  0.00    +0.010 C 
ATOM     22  C   UNL     1      -1.683   3.806  24.350  0.00  0.00    +0.018 C 
ATOM     23  C   UNL     1      -1.664   4.197  25.006  0.00  0.00    +0.077 C 
BRANCH  23  24
ATOM     24  C   UNL     1      -1.677   4.962  25.312  0.00  0.00    +0.125 C 
ATOM     25  N   UNL     1      -1.231   5.557  24.954  0.00  0.00    -0.130 NA
ENDBRANCH  23  24
ENDBRANCH  14  16
BRANCH  10   7
ATOM      4  C   UNL     1      -3.178  -1.570  24.654  0.00  0.00    +0.048 A 
ATOM      5  C   UNL     1      -3.499  -0.995  25.152  0.00  0.00    +0.015 A 
ATOM      6  C   UNL     1      -3.071  -0.310  25.320  0.00  0.00    +0.003 A 
ATOM      7  C   UNL     1      -2.323  -0.199  24.992  0.00  0.00    +0.019 A 
ATOM      8  C   UNL     1      -2.002  -0.774  24.494  0.00  0.00    +0.003 A 
ATOM      9  C   UNL     1      -2.430  -1.459  24.325  0.00  0.00    +0.015 A 
BRANCH   4   2
ATOM      1  C   UNL     1      -3.475  -2.941  24.924  0.00  0.00    +0.112 C 
ATOM      2  N   UNL     1      -3.606  -2.254  24.485  0.00  0.00    -0.304 N 
ATOM      3  C   UNL     1      -4.166  -2.252  23.879  0.00  0.00    +0.112 C 
ENDBRANCH   4   2
ENDBRANCH  10   7
TORSDOF 4
ENDMDL
MODEL 6
REMARK VINA RESULT:      -9.2      2.788      4.042
REMARK  Name = 
REMARK  4 active torsions:
REMARK  status: ('A' for Active; 'I' for Inactive)
REMARK    1  A    between atoms: N_2  and  C_4
REMARK    2  A    between atoms: C_7  and  C_10
REMARK    3  A    between atoms: C_14  and  C_16
REMARK    4  A    between atoms: C_23  and  C_24
REMARK                            x       y       z     vdW  Elec       q    Type
REMARK                         _______ _______ _______ _____ _____    ______ ____
ROOT
ATOM     10  C   UNL     1      -2.544   0.615  24.934  0.00  0.00    +0.102 A 
ATOM     11  N   UNL     1      -2.246   0.102  25.506  0.00  0.00    -0.170 NA
ATOM     12  N   UNL     1      -1.509  -0.166  25.250  0.00  0.00    -0.253 N 
ATOM     13  C   UNL     1      -1.015  -0.690  25.653  0.00  0.00    +0.153 C 
ATOM     14  C   UNL     1      -1.352   0.183  24.519  0.00  0.00    +0.058 A 
ATOM     15  C   UNL     1      -1.991   0.666  24.323  0.00  0.00    +0.035 A 
ENDROOT
BRANCH  14  16
ATOM     16  C   UNL     1      -0.672   0.068  24.063  0.00  0.00    +0.056 C 
ATOM     17  C   UNL     1      -0.551  -0.646  23.779  0.00  0.00    +0.078 C 
ATOM     18  N   UNL     1      -0.065   0.012  23.668  0.00  0.00    -0.272 NA
ATOM     19  C   UNL     1      -0.508   0.814  24.177  0.00  0.00    +0.072 C 
ATOM     20  C   UNL     1      -0.507   1.441  24.360  0.00  0.00    +0.018 C 
ATOM     21  C   UNL     1      -0.191   0.709  23.949  0.00  0.00    +0.010 C 
ATOM     22  C   UNL     1       0.562   0.809  23.510  0.00  0.00    +0.018 C 
ATOM     23  C   UNL     1       0.719   0.123  23.213  0.00  0.00    +0.077 C 
BRANCH  23  24
ATOM     24  C   UNL     1       1.271  -0.280  22.752  0.00  0.00    +0.125 C 
ATOM     25  N   UNL     1       2.004   0.063  22.593  0.00  0.00    -0.130 NA
ENDBRANCH  23  24
ENDBRANCH  14  16
BRANCH  10   7
ATOM      4  C   UNL     1      -4.716   1.798  25.031  0.00  0.00    +0.048 A 
ATOM      5  C   UNL     1      -4.012   2.228  25.032  0.00  0.00    +0.015 A 
ATOM      6  C   UNL     1      -3.288   1.834  25.000  0.00  0.00    +0.003 A 
ATOM      7  C   UNL     1      -3.267   1.010  24.966  0.00  0.00    +0.019 A 
ATOM      8  C   UNL     1      -3.972   0.580  24.966  0.00  0.00    +0.003 A 
ATOM      9  C   UNL     1      -4.696   0.975  24.998  0.00  0.00    +0.015 A 
BRANCH   4   2
ATOM      1  C   UNL     1      -6.125   1.820  24.795  0.00  0.00    +0.112 C 
ATOM      2  N   UNL     1      -5.440   2.193  25.064  0.00  0.00    -0.304 N 
ATOM      3  C   UNL     1      -5.478   2.960  25.365  0.00  0.00    +0.112 C 
ENDBRANCH   4   2
ENDBRANCH  10   7
TORSDOF 4
ENDMDL
