MODEL 1
REMARK VINA RESULT:     -12.9      0.000      0.000
REMARK  Name = 
REMARK  5 active torsions:
REMARK  status: ('A' for Active; 'I' for Inactive)
REMARK    1  A    between atoms: S_2  and  C_3
REMARK    2  A    between atoms: C_3  and  C_4
REMARK    3  A    between atoms: N_6  and  C_7
REMARK    4  A    between atoms: N_19  and  C_20
REMARK    5  A    between atoms: C_23  and  C_26
REMARK                            x       y       z     vdW  Elec       q    Type
REMARK                         _______ _______ _______ _____ _____    ______ ____
ROOT
ATOM      7  C   UNL     1      -3.099  -0.451  25.053  0.00  0.00    +0.129 A 
ATOM      8  C   UNL     1      -3.902  -0.620  24.959  0.00  0.00    +0.023 A 
ATOM      9  C   UNL     1      -4.444  -0.007  24.859  0.00  0.00    +0.014 A 
ATOM     10  C   UNL     1      -4.184   0.776  24.852  0.00  0.00    +0.041 A 
ATOM     11  C   UNL     1      -4.503   1.634  24.768  0.00  0.00    +0.058 C 
ATOM     12  C   UNL     1      -5.099   1.992  24.674  0.00  0.00    +0.011 C 
ATOM     13  C   UNL     1      -4.306   2.155  24.767  0.00  0.00    +0.043 C 
ATOM     14  C   UNL     1      -3.405   2.550  24.861  0.00  0.00    +0.097 C 
ATOM     15  N   UNL     1      -2.956   1.851  24.954  0.00  0.00    -0.262 N 
ATOM     16  C   UNL     1      -3.639   2.030  24.858  0.00  0.00    +0.101 C 
ATOM     17  C   UNL     1      -2.294   1.371  25.063  0.00  0.00    +0.327 C 
ATOM     18  O   UNL     1      -2.379   0.551  25.093  0.00  0.00    -0.250 OA
ATOM     19  N   UNL     1      -1.546   1.711  25.140  0.00  0.00    -0.162 NA
ATOM     29  C   UNL     1      -3.963   1.263  24.856  0.00  0.00    +0.110 C 
ATOM     30  N   UNL     1      -3.381   0.945  24.946  0.00  0.00    -0.298 N 
ATOM     31  C   UNL     1      -2.839   0.331  25.046  0.00  0.00    +0.276 A 
ATOM     32  O   UNL     1      -2.026   0.243  25.154  0.00  0.00    -0.266 OA
ENDROOT
BRANCH  19  20
ATOM     20  C   UNL     1      -1.460   2.530  25.110  0.00  0.00    +0.075 A 
ATOM     21  C   UNL     1      -1.537   2.979  25.797  0.00  0.00    +0.017 A 
ATOM     22  C   UNL     1      -1.451   3.799  25.768  0.00  0.00    +0.004 A 
ATOM     23  C   UNL     1      -1.288   4.170  25.049  0.00  0.00    +0.035 A 
ATOM     24  C   UNL     1      -1.211   3.721  24.361  0.00  0.00    +0.004 A 
ATOM     25  C   UNL     1      -1.297   2.902  24.391  0.00  0.00    +0.017 A 
BRANCH  23  26
ATOM     26  C   UNL     1      -1.201   4.991  25.019  0.00  0.00    +0.173 C 
ATOM     27  C   UNL     1      -0.537   5.322  24.659  0.00  0.00    +0.077 C 
ATOM     28  O   UNL     1      -1.779   5.478  25.348  0.00  0.00    -0.291 OA
ENDBRANCH  23  26
ENDBRANCH  19  20
BRANCH   7   6
ATOM      4  C   UNL     1      -2.733  -1.820  24.869  0.00  0.00    +0.257 C 
ATOM      5  O   UNL     1      -2.191  -2.435  24.970  0.00  0.00    -0.272 OA
ATOM      6  N   UNL     1      -2.558  -1.066  25.153  0.00  0.00    -0.174 NA
BRANCH   4   3
ATOM      3  C   UNL     1      -3.450  -1.961  24.486  0.00  0.00    +0.145 C 
BRANCH   3   2
ATOM      1  C   UNL     1      -4.216  -2.831  23.650  0.00  0.00    +0.070 C 
ATOM      2  S   UNL     1      -3.637  -2.723  24.227  0.00  0.00    -0.130 S 
ENDBRANCH   3   2
ENDBRANCH   4   3
ENDBRANCH   7   6
TORSDOF 5
ENDMDL
MODEL 2
REMARK VINA RESULT:     -12.5      1.737      4.775
REMARK  Name = 
REMARK  5 active torsions:
REMARK  status: ('A' for Active; 'I' for Inactive)
REMARK    1  A    between atoms: S_2  and  C_3
REMARK    2  A    between atoms: C_3  and  C_4
REMARK    3  A    between atoms: N_6  and  C_7
REMARK    4  A    between atoms: N_19  and  C_20
REMARK    5  A    between atoms: C_23  and  C_26
REMARK                            x       y       z     vdW  Elec       q    Type
REMARK                         _______ _______ _______ _____ _____    ______ ____
ROOT
ATOM      7  C   UNL     1      -2.220   2.835  25.424  0.00  0.00    +0.129 A 
ATOM      8  C   UNL     1      -2.745   3.471  25.424  0.00  0.00    +0.023 A 
ATOM      9  C   UNL     1      -3.541   3.349  25.244  0.00  0.00    +0.014 A 
ATOM     10  C   UNL     1      -3.812   2.591  25.064  0.00  0.00    +0.041 A 
ATOM     11  C   UNL     1      -4.581   2.144  24.836  0.00  0.00    +0.058 C 
ATOM     12  C   UNL     1      -5.265   2.250  24.716  0.00  0.00    +0.011 C 
ATOM     13  C   UNL     1      -4.743   1.624  24.717  0.00  0.00    +0.043 C 
ATOM     14  C   UNL     1      -4.278   0.754  24.667  0.00  0.00    +0.097 C 
ATOM     15  N   UNL     1      -3.503   0.998  24.863  0.00  0.00    -0.262 N 
ATOM     16  C   UNL     1      -4.145   1.296  24.783  0.00  0.00    +0.101 C 
ATOM     17  C   UNL     1      -2.694   0.943  25.016  0.00  0.00    +0.327 C 
ATOM     18  O   UNL     1      -2.264   1.619  25.214  0.00  0.00    -0.250 OA
ATOM     19  N   UNL     1      -2.315   0.211  24.971  0.00  0.00    -0.162 NA
ATOM     29  C   UNL     1      -3.934   2.083  24.956  0.00  0.00    +0.110 C 
ATOM     30  N   UNL     1      -3.287   1.955  25.065  0.00  0.00    -0.298 N 
ATOM     31  C   UNL     1      -2.491   2.076  25.244  0.00  0.00    +0.276 A 
ATOM     32  O   UNL     1      -1.801   1.628  25.308  0.00  0.00    -0.266 OA
ENDROOT
BRANCH  19  20
ATOM     20  C   UNL     1      -2.745  -0.464  24.773  0.00  0.00    +0.075 A 
ATOM     21  C   UNL     1      -2.845  -0.672  23.981  0.00  0.00    +0.017 A 
ATOM     22  C   UNL     1      -3.274  -1.348  23.782  0.00  0.00    +0.004 A 
ATOM     23  C   UNL     1      -3.603  -1.817  24.377  0.00  0.00    +0.035 A 
ATOM     24  C   UNL     1      -3.503  -1.609  25.168  0.00  0.00    +0.004 A 
ATOM     25  C   UNL     1      -3.074  -0.933  25.367  0.00  0.00    +0.017 A 
BRANCH  23  26
ATOM     26  C   UNL     1      -4.033  -2.493  24.178  0.00  0.00    +0.173 C 
ATOM     27  C   UNL     1      -3.779  -3.233  24.437  0.00  0.00    +0.077 C 
ATOM     28  O   UNL     1      -4.716  -2.427  23.721  0.00  0.00    -0.291 OA
ENDBRANCH  23  26
ENDBRANCH  19  20
BRANCH   7   6
ATOM      4  C   UNL     1      -1.076   3.690  25.458  0.00  0.00    +0.257 C 
ATOM      5  O   UNL     1      -0.280   3.812  25.639  0.00  0.00    -0.272 OA
ATOM      6  N   UNL     1      -1.425   2.957  25.604  0.00  0.00    -0.174 NA
BRANCH   4   3
ATOM      3  C   UNL     1      -1.524   4.302  25.133  0.00  0.00    +0.145 C 
BRANCH   3   2
ATOM      1  C   UNL     1      -1.506   5.723  24.976  0.00  0.00    +0.070 C 
ATOM      2  S   UNL     1      -1.151   4.987  24.861  0.00  0.00    -0.130 S 
ENDBRANCH   3   2
ENDBRANCH   4   3
ENDBRANCH   7   6
TORSDOF 5
ENDMDL
MODEL 3
REMARK VINA RESULT:     -12.4      1.910      5.158
REMARK  Name = 
REMARK  5 active torsions:
REMARK  status: ('A' for Active; 'I' for Inactive)
REMARK    1  A    between atoms: S_2  and  C_3
REMARK    2  A    between atoms: C_3  and  C_4
REMARK    3  A    between atoms: N_6  and  C_7
REMARK    4  A    between atoms: N_19  and  C_20
REMARK    5  A    between atoms: C_23  and  C_26
REMARK                            x       y       z     vdW  Elec       q    Type
REMARK                         _______ _______ _______ _____ _____    ______ ____
ROOT
ATOM      7  C   UNL     1      -1.825   2.723  25.385  0.00  0.00    +0.129 A 
ATOM      8  C   UNL     1      -1.034   2.904  25.232  0.00  0.00    +0.023 A 
ATOM      9  C   UNL     1      -0.538   2.336  24.898  0.00  0.00    +0.014 A 
ATOM     10  C   UNL     1      -0.832   1.587  24.717  0.00  0.00    +0.041 A 
ATOM     11  C   UNL     1      -0.565   0.782  24.363  0.00  0.00    +0.058 C 
ATOM     12  C   UNL     1      -0.003   0.457  24.096  0.00  0.00    +0.011 C 
ATOM     13  C   UNL     1      -0.784   0.282  24.248  0.00  0.00    +0.043 C 
ATOM     14  C   UNL     1      -1.683  -0.115  24.355  0.00  0.00    +0.097 C 
ATOM     15  N   UNL     1      -2.084   0.536  24.691  0.00  0.00    -0.262 N 
ATOM     16  C   UNL     1      -1.428   0.384  24.460  0.00  0.00    +0.101 C 
ATOM     17  C   UNL     1      -2.705   0.974  25.014  0.00  0.00    +0.327 C 
ATOM     18  O   UNL     1      -2.578   1.755  25.252  0.00  0.00    -0.250 OA
ATOM     19  N   UNL     1      -3.451   0.633  25.098  0.00  0.00    -0.162 NA
ATOM     29  C   UNL     1      -1.072   1.120  24.619  0.00  0.00    +0.110 C 
ATOM     30  N   UNL     1      -1.623   1.406  24.870  0.00  0.00    -0.298 N 
ATOM     31  C   UNL     1      -2.119   1.975  25.204  0.00  0.00    +0.276 A 
ATOM     32  O   UNL     1      -2.906   2.037  25.440  0.00  0.00    -0.266 OA
ENDROOT
BRANCH  19  20
ATOM     20  C   UNL     1      -3.577  -0.146  24.861  0.00  0.00    +0.075 A 
ATOM     21  C   UNL     1      -3.837  -0.307  24.094  0.00  0.00    +0.017 A 
ATOM     22  C   UNL     1      -3.963  -1.086  23.856  0.00  0.00    +0.004 A 
ATOM     23  C   UNL     1      -3.831  -1.706  24.384  0.00  0.00    +0.035 A 
ATOM     24  C   UNL     1      -3.571  -1.545  25.151  0.00  0.00    +0.004 A 
ATOM     25  C   UNL     1      -3.445  -0.766  25.389  0.00  0.00    +0.017 A 
BRANCH  23  26
ATOM     26  C   UNL     1      -3.958  -2.486  24.146  0.00  0.00    +0.173 C 
ATOM     27  C   UNL     1      -3.555  -3.101  24.520  0.00  0.00    +0.077 C 
ATOM     28  O   UNL     1      -4.487  -2.649  23.535  0.00  0.00    -0.291 OA
ENDBRANCH  23  26
ENDBRANCH  19  20
BRANCH   7   6
ATOM      4  C   UNL     1      -2.156   4.094  25.616  0.00  0.00    +0.257 C 
ATOM      5  O   UNL     1      -2.653   4.663  25.951  0.00  0.00    -0.272 OA
ATOM      6  N   UNL     1      -2.320   3.292  25.719  0.00  0.00    -0.174 NA
BRANCH   4   3
ATOM      3  C   UNL     1      -1.496   4.327  25.180  0.00  0.00    +0.145 C 
BRANCH   3   2
ATOM      1  C   UNL     1      -0.678   5.366  24.637  0.00  0.00    +0.070 C 
ATOM      2  S   UNL     1      -1.365   5.128  25.028  0.00  0.00    -0.130 S 
ENDBRANCH   3   2
ENDBRANCH   4   3
ENDBRANCH   7   6
TORSDOF 5
ENDMDL
MODEL 4
REMARK VINA RESULT:     -12.2      2.269      4.956
REMARK  Name = 
REMARK  5 active torsions:
REMARK  status: ('A' for Active; 'I' for Inactive)
REMARK    1  A    between atoms: S_2  and  C_3
REMARK    2  A    between atoms: C_3  and  C_4
REMARK    3  A    between atoms: N_6  and  C_7
REMARK    4  A    between atoms: N_19  and  C_20
REMARK    5  A    between atoms: C_23  and  C_26
REMARK                            x       y       z     vdW  Elec       q    Type
REMARK                         _______ _______ _______ _____ _____    ______ ____
ROOT
ATOM      7  C   UNL     1      -4.522   2.733  24.524  0.00  0.00    +0.129 A 
ATOM      8  C   UNL     1      -4.133   3.275  24.039  0.00  0.00    +0.023 A 
ATOM      9  C   UNL     1      -3.537   3.019  23.529  0.00  0.00    +0.014 A 
ATOM     10  C   UNL     1      -3.330   2.221  23.504  0.00  0.00    +0.041 A 
ATOM     11  C   UNL     1      -2.753   1.646  23.079  0.00  0.00    +0.058 C 
ATOM     12  C   UNL     1      -2.242   1.635  22.597  0.00  0.00    +0.011 C 
ATOM     13  C   UNL     1      -2.628   1.103  23.078  0.00  0.00    +0.043 C 
ATOM     14  C   UNL     1      -2.971   0.319  23.572  0.00  0.00    +0.097 C 
ATOM     15  N   UNL     1      -3.552   0.693  24.043  0.00  0.00    -0.262 N 
ATOM     16  C   UNL     1      -3.073   0.879  23.549  0.00  0.00    +0.101 C 
ATOM     17  C   UNL     1      -4.156   0.775  24.598  0.00  0.00    +0.327 C 
ATOM     18  O   UNL     1      -4.482   1.519  24.747  0.00  0.00    -0.250 OA
ATOM     19  N   UNL     1      -4.435   0.114  25.005  0.00  0.00    -0.162 NA
ATOM     29  C   UNL     1      -3.236   1.695  23.527  0.00  0.00    +0.110 C 
ATOM     30  N   UNL     1      -3.719   1.679  23.989  0.00  0.00    -0.298 N 
ATOM     31  C   UNL     1      -4.315   1.935  24.500  0.00  0.00    +0.276 A 
ATOM     32  O   UNL     1      -4.828   1.607  25.056  0.00  0.00    -0.266 OA
ENDROOT
BRANCH  19  20
ATOM     20  C   UNL     1      -4.110  -0.629  24.857  0.00  0.00    +0.075 A 
ATOM     21  C   UNL     1      -3.494  -0.912  25.327  0.00  0.00    +0.017 A 
ATOM     22  C   UNL     1      -3.169  -1.655  25.180  0.00  0.00    +0.004 A 
ATOM     23  C   UNL     1      -3.460  -2.117  24.560  0.00  0.00    +0.035 A 
ATOM     24  C   UNL     1      -4.076  -1.834  24.090  0.00  0.00    +0.004 A 
ATOM     25  C   UNL     1      -4.401  -1.091  24.237  0.00  0.00    +0.017 A 
BRANCH  23  26
ATOM     26  C   UNL     1      -3.135  -2.861  24.412  0.00  0.00    +0.173 C 
ATOM     27  C   UNL     1      -2.316  -2.953  24.379  0.00  0.00    +0.077 C 
ATOM     28  O   UNL     1      -3.629  -3.511  24.298  0.00  0.00    -0.291 OA
ENDBRANCH  23  26
ENDBRANCH  19  20
BRANCH   7   6
ATOM      4  C   UNL     1      -4.956   3.568  25.599  0.00  0.00    +0.257 C 
ATOM      5  O   UNL     1      -5.552   3.825  26.109  0.00  0.00    -0.272 OA
ATOM      6  N   UNL     1      -5.117   2.989  25.034  0.00  0.00    -0.174 NA
BRANCH   4   3
ATOM      3  C   UNL     1      -4.199   3.891  25.654  0.00  0.00    +0.145 C 
BRANCH   3   2
ATOM      1  C   UNL     1      -3.202   4.478  26.493  0.00  0.00    +0.070 C 
ATOM      2  S   UNL     1      -3.996   4.357  26.304  0.00  0.00    -0.130 S 
ENDBRANCH   3   2
ENDBRANCH   4   3
ENDBRANCH   7   6
TORSDOF 5
ENDMDL
MODEL 5
REMARK VINA RESULT:     -11.4      1.425      2.350
REMARK  Name = 
REMARK  5 active torsions:
REMARK  status: ('A' for Active; 'I' for Inactive)
REMARK    1  A    between atoms: S_2  and  C_3
REMARK    2  A    between atoms: C_3  and  C_4
REMARK    3  A    between atoms: N_6  and  C_7
REMARK    4  A    between atoms: N_19  and  C_20
REMARK    5  A    between atoms: C_23  and  C_26
REMARK                            x       y       z     vdW  Elec       q    Type
REMARK                         _______ _______ _______ _____ _____    ______ ____
ROOT
ATOM      7  C   UNL     1      -1.900  -0.896  25.234  0.00  0.00    +0.129 A 
ATOM      8  C   UNL     1      -1.432  -1.426  24.808  0.00  0.00    +0.023 A 
ATOM      9  C   UNL     1      -0.822  -1.146  24.329  0.00  0.00    +0.014 A 
ATOM     10  C   UNL     1      -0.679  -0.335  24.276  0.00  0.00    +0.041 A 
ATOM     11  C   UNL     1      -0.119   0.265  23.863  0.00  0.00    +0.058 C 
ATOM     12  C   UNL     1       0.424   0.296  23.419  0.00  0.00    +0.011 C 
ATOM     13  C   UNL     1      -0.040   0.817  23.841  0.00  0.00    +0.043 C 
ATOM     14  C   UNL     1      -0.482   1.592  24.266  0.00  0.00    +0.097 C 
ATOM     15  N   UNL     1      -1.064   1.193  24.713  0.00  0.00    -0.262 N 
ATOM     16  C   UNL     1      -0.536   1.024  24.266  0.00  0.00    +0.101 C 
ATOM     17  C   UNL     1      -1.701   1.086  25.227  0.00  0.00    +0.327 C 
ATOM     18  O   UNL     1      -1.975   0.326  25.393  0.00  0.00    -0.250 OA
ATOM     19  N   UNL     1      -2.063   1.740  25.576  0.00  0.00    -0.162 NA
ATOM     29  C   UNL     1      -0.630   0.197  24.277  0.00  0.00    +0.110 C 
ATOM     30  N   UNL     1      -1.147   0.195  24.702  0.00  0.00    -0.298 N 
ATOM     31  C   UNL     1      -1.757  -0.086  25.181  0.00  0.00    +0.276 A 
ATOM     32  O   UNL     1      -2.335   0.224  25.680  0.00  0.00    -0.266 OA
ENDROOT
BRANCH  19  20
ATOM     20  C   UNL     1      -1.789   2.500  25.411  0.00  0.00    +0.075 A 
ATOM     21  C   UNL     1      -2.127   2.937  24.798  0.00  0.00    +0.017 A 
ATOM     22  C   UNL     1      -1.853   3.697  24.633  0.00  0.00    +0.004 A 
ATOM     23  C   UNL     1      -1.241   4.022  25.081  0.00  0.00    +0.035 A 
ATOM     24  C   UNL     1      -0.903   3.585  25.694  0.00  0.00    +0.004 A 
ATOM     25  C   UNL     1      -1.176   2.825  25.859  0.00  0.00    +0.017 A 
BRANCH  23  26
ATOM     26  C   UNL     1      -0.967   4.783  24.916  0.00  0.00    +0.173 C 
ATOM     27  C   UNL     1      -1.457   5.433  25.044  0.00  0.00    +0.077 C 
ATOM     28  O   UNL     1      -0.204   4.891  24.623  0.00  0.00    -0.291 OA
ENDBRANCH  23  26
ENDBRANCH  19  20
BRANCH   7   6
ATOM      4  C   UNL     1      -3.051  -1.723  25.413  0.00  0.00    +0.257 C 
ATOM      5  O   UNL     1      -3.661  -2.005  25.893  0.00  0.00    -0.272 OA
ATOM      6  N   UNL     1      -2.509  -1.178  25.712  0.00  0.00    -0.174 NA
BRANCH   4   3
ATOM      3  C   UNL     1      -2.983  -1.988  24.635  0.00  0.00    +0.145 C 
BRANCH   3   2
ATOM      1  C   UNL     1      -4.025  -2.384  23.741  0.00  0.00    +0.070 C 
ATOM      2  S   UNL     1      -3.498  -2.566  24.349  0.00  0.00    -0.130 S 
ENDBRANCH   3   2
ENDBRANCH   4   3
ENDBRANCH   7   6
TORSDOF 5
ENDMDL
