MODEL 1
REMARK VINA RESULT:     -12.1      0.000      0.000
REMARK  Name = 
REMARK  5 active torsions:
REMARK  status: ('A' for Active; 'I' for Inactive)
REMARK    1  A    between atoms: S_2  and  C_5
REMARK    2  A    between atoms: C_8  and  C_9
REMARK    3  A    between atoms: C_9  and  N_10
REMARK    4  A    between atoms: C_15  and  C_16
REMARK    5  A    between atoms: C_18  and  C_21
REMARK                            x       y       z     vdW  Elec       q    Type
REMARK                         _______ _______ _______ _____ _____    ______ ____
ROOT
ATOM     10  N   UNL     1      -4.443   1.342  24.865  0.00  0.00    -0.260 NA
ATOM     11  C   UNL     1      -5.101   0.995  25.221  0.00  0.00    +0.106 C 
ATOM     12  C   UNL     1      -5.576   1.600  25.521  0.00  0.00    +0.170 C 
ATOM     13  O   UNL     1      -6.290   1.502  25.922  0.00  0.00    -0.222 OA
ATOM     14  C   UNL     1      -5.210   2.320  25.350  0.00  0.00    +0.060 C 
ATOM     15  C   UNL     1      -4.510   2.160  24.944  0.00  0.00    +0.140 C 
ENDROOT
BRANCH  15  16
ATOM     16  C   UNL     1      -3.972   2.720  24.667  0.00  0.00    +0.251 A 
ATOM     17  N   UNL     1      -3.292   2.976  25.059  0.00  0.00    -0.188 NA
ATOM     18  C   UNL     1      -2.919   3.536  24.583  0.00  0.00    +0.221 A 
ATOM     19  N   UNL     1      -3.367   3.627  23.897  0.00  0.00    -0.054 NA
ATOM     20  O   UNL     1      -4.017   3.123  23.949  0.00  0.00    -0.336 OA
BRANCH  18  21
ATOM     21  C   UNL     1      -2.219   3.936  24.763  0.00  0.00    +0.120 A 
ATOM     22  N   UNL     1      -1.491   3.572  24.632  0.00  0.00    -0.241 NA
ATOM     23  C   UNL     1      -0.792   3.972  24.811  0.00  0.00    +0.099 A 
ATOM     24  C   UNL     1      -0.821   4.735  25.121  0.00  0.00    +0.021 A 
ATOM     25  C   UNL     1      -1.550   5.100  25.252  0.00  0.00    +0.003 A 
ATOM     26  C   UNL     1      -2.249   4.700  25.073  0.00  0.00    +0.022 A 
ENDBRANCH  18  21
ENDBRANCH  15  16
BRANCH  10   9
ATOM      9  C   UNL     1      -3.825   0.941  24.494  0.00  0.00    +0.100 C 
BRANCH   9   8
ATOM      5  C   UNL     1      -3.733  -1.532  24.571  0.00  0.00    +0.106 A 
ATOM      6  C   UNL     1      -4.092  -1.153  23.933  0.00  0.00    +0.018 A 
ATOM      7  C   UNL     1      -4.123  -0.329  23.906  0.00  0.00    -0.002 A 
ATOM      8  C   UNL     1      -3.794   0.116  24.520  0.00  0.00    -0.006 A 
ATOM     27  C   UNL     1      -3.435  -0.264  25.158  0.00  0.00    -0.002 A 
ATOM     28  C   UNL     1      -3.405  -1.088  25.183  0.00  0.00    +0.018 A 
BRANCH   5   2
ATOM      1  C   UNL     1      -3.672  -3.180  24.622  0.00  0.00    +0.182 C 
ATOM      2  S   UNL     1      -3.702  -2.356  24.596  0.00  0.00    +0.010 S 
ATOM      3  O   UNL     1      -3.320  -2.319  25.327  0.00  0.00    -0.169 OA
ATOM      4  O   UNL     1      -4.085  -2.393  23.866  0.00  0.00    -0.169 OA
ENDBRANCH   5   2
ENDBRANCH   9   8
ENDBRANCH  10   9
TORSDOF 5
ENDMDL
MODEL 2
REMARK VINA RESULT:     -11.3      2.248      3.288
REMARK  Name = 
REMARK  5 active torsions:
REMARK  status: ('A' for Active; 'I' for Inactive)
REMARK    1  A    between atoms: S_2  and  C_5
REMARK    2  A    between atoms: C_8  and  C_9
REMARK    3  A    between atoms: C_9  and  N_10
REMARK    4  A    between atoms: C_15  and  C_16
REMARK    5  A    between atoms: C_18  and  C_21
REMARK                            x       y       z     vdW  Elec       q    Type
REMARK                         _______ _______ _______ _____ _____    ______ ____
ROOT
ATOM     10  N   UNL     1      -0.542   0.425  24.577  0.00  0.00    -0.260 NA
ATOM     11  C   UNL     1      -0.247  -0.120  24.033  0.00  0.00    +0.106 C 
ATOM     12  C   UNL     1       0.344   0.254  23.594  0.00  0.00    +0.170 C 
ATOM     13  O   UNL     1       0.787  -0.087  22.988  0.00  0.00    -0.222 OA
ATOM     14  C   UNL     1       0.413   1.029  23.868  0.00  0.00    +0.060 C 
ATOM     15  C   UNL     1      -0.135   1.134  24.476  0.00  0.00    +0.140 C 
ENDROOT
BRANCH  15  16
ATOM     16  C   UNL     1      -0.254   1.827  24.907  0.00  0.00    +0.251 A 
ATOM     17  N   UNL     1      -0.729   2.463  24.681  0.00  0.00    -0.188 NA
ATOM     18  C   UNL     1      -0.688   3.035  25.273  0.00  0.00    +0.221 A 
ATOM     19  N   UNL     1      -0.189   2.754  25.865  0.00  0.00    -0.054 NA
ATOM     20  O   UNL     1       0.079   2.008  25.639  0.00  0.00    -0.336 OA
BRANCH  18  21
ATOM     21  C   UNL     1      -1.079   3.762  25.274  0.00  0.00    +0.120 A 
ATOM     22  N   UNL     1      -1.837   3.823  25.594  0.00  0.00    -0.241 NA
ATOM     23  C   UNL     1      -2.228   4.550  25.594  0.00  0.00    +0.099 A 
ATOM     24  C   UNL     1      -1.861   5.215  25.274  0.00  0.00    +0.021 A 
ATOM     25  C   UNL     1      -1.103   5.155  24.954  0.00  0.00    +0.003 A 
ATOM     26  C   UNL     1      -0.712   4.428  24.954  0.00  0.00    +0.022 A 
ENDBRANCH  18  21
ENDBRANCH  15  16
BRANCH  10   9
ATOM      9  C   UNL     1      -1.140   0.284  25.128  0.00  0.00    +0.100 C 
BRANCH   9   8
ATOM      5  C   UNL     1      -2.657  -1.651  24.838  0.00  0.00    +0.106 A 
ATOM      6  C   UNL     1      -2.858  -0.918  24.517  0.00  0.00    +0.018 A 
ATOM      7  C   UNL     1      -2.353  -0.273  24.613  0.00  0.00    -0.002 A 
ATOM      8  C   UNL     1      -1.646  -0.362  25.031  0.00  0.00    -0.006 A 
ATOM     27  C   UNL     1      -1.446  -1.095  25.352  0.00  0.00    -0.002 A 
ATOM     28  C   UNL     1      -1.952  -1.739  25.255  0.00  0.00    +0.018 A 
BRANCH   5   2
ATOM      1  C   UNL     1      -3.669  -2.940  24.644  0.00  0.00    +0.182 C 
ATOM      2  S   UNL     1      -3.163  -2.295  24.741  0.00  0.00    +0.010 S 
ATOM      3  O   UNL     1      -3.652  -2.002  25.337  0.00  0.00    -0.169 OA
ATOM      4  O   UNL     1      -2.675  -2.590  24.145  0.00  0.00    -0.169 OA
ENDBRANCH   5   2
ENDBRANCH   9   8
ENDBRANCH  10   9
TORSDOF 5
ENDMDL
MODEL 3
REMARK VINA RESULT:     -11.2      2.878      5.879
REMARK  Name = 
REMARK  5 active torsions:
REMARK  status: ('A' for Active; 'I' for Inactive)
REMARK    1  A    between atoms: S_2  and  C_5
REMARK    2  A    between atoms: C_8  and  C_9
REMARK    3  A    between atoms: C_9  and  N_10
REMARK    4  A    between atoms: C_15  and  C_16
REMARK    5  A    between atoms: C_18  and  C_21
REMARK                            x       y       z     vdW  Elec       q    Type
REMARK                         _______ _______ _______ _____ _____    ______ ____
ROOT
ATOM     10  N   UNL     1      -0.658   0.947  24.706  0.00  0.00    -0.260 NA
ATOM     11  C   UNL     1      -0.012   1.296  24.330  0.00  0.00    +0.106 C 
ATOM     12  C   UNL     1       0.361   0.716  23.876  0.00  0.00    +0.170 C 
ATOM     13  O   UNL     1       1.032   0.823  23.409  0.00  0.00    -0.222 OA
ATOM     14  C   UNL     1      -0.055   0.010  23.972  0.00  0.00    +0.060 C 
ATOM     15  C   UNL     1      -0.685   0.154  24.485  0.00  0.00    +0.140 C 
ENDROOT
BRANCH  15  16
ATOM     16  C   UNL     1      -1.244  -0.400  24.734  0.00  0.00    +0.251 A 
ATOM     17  N   UNL     1      -1.870  -0.693  24.283  0.00  0.00    -0.188 NA
ATOM     18  C   UNL     1      -2.288  -1.232  24.747  0.00  0.00    +0.221 A 
ATOM     19  N   UNL     1      -1.921  -1.271  25.484  0.00  0.00    -0.054 NA
ATOM     20  O   UNL     1      -1.277  -0.757  25.476  0.00  0.00    -0.336 OA
BRANCH  18  21
ATOM     21  C   UNL     1      -2.956  -1.657  24.514  0.00  0.00    +0.120 A 
ATOM     22  N   UNL     1      -2.945  -2.481  24.528  0.00  0.00    -0.241 NA
ATOM     23  C   UNL     1      -3.613  -2.906  24.295  0.00  0.00    +0.099 A 
ATOM     24  C   UNL     1      -4.292  -2.506  24.049  0.00  0.00    +0.021 A 
ATOM     25  C   UNL     1      -4.302  -1.681  24.036  0.00  0.00    +0.003 A 
ATOM     26  C   UNL     1      -3.634  -1.256  24.268  0.00  0.00    +0.022 A 
ENDBRANCH  18  21
ENDBRANCH  15  16
BRANCH  10   9
ATOM      9  C   UNL     1      -1.185   1.328  25.213  0.00  0.00    +0.100 C 
BRANCH   9   8
ATOM      5  C   UNL     1      -1.380   3.795  25.175  0.00  0.00    +0.106 A 
ATOM      6  C   UNL     1      -1.838   3.337  24.664  0.00  0.00    +0.018 A 
ATOM      7  C   UNL     1      -1.774   2.515  24.677  0.00  0.00    -0.002 A 
ATOM      8  C   UNL     1      -1.250   2.151  25.201  0.00  0.00    -0.006 A 
ATOM     27  C   UNL     1      -0.792   2.609  25.711  0.00  0.00    -0.002 A 
ATOM     28  C   UNL     1      -0.857   3.431  25.698  0.00  0.00    +0.018 A 
BRANCH   5   2
ATOM      1  C   UNL     1      -1.510   5.440  25.149  0.00  0.00    +0.182 C 
ATOM      2  S   UNL     1      -1.445   4.617  25.162  0.00  0.00    +0.010 S 
ATOM      3  O   UNL     1      -0.736   4.667  24.742  0.00  0.00    -0.169 OA
ATOM      4  O   UNL     1      -2.153   4.569  25.582  0.00  0.00    -0.169 OA
ENDBRANCH   5   2
ENDBRANCH   9   8
ENDBRANCH  10   9
TORSDOF 5
ENDMDL
MODEL 4
REMARK VINA RESULT:     -11.1      2.066      5.147
REMARK  Name = 
REMARK  5 active torsions:
REMARK  status: ('A' for Active; 'I' for Inactive)
REMARK    1  A    between atoms: S_2  and  C_5
REMARK    2  A    between atoms: C_8  and  C_9
REMARK    3  A    between atoms: C_9  and  N_10
REMARK    4  A    between atoms: C_15  and  C_16
REMARK    5  A    between atoms: C_18  and  C_21
REMARK                            x       y       z     vdW  Elec       q    Type
REMARK                         _______ _______ _______ _____ _____    ______ ____
ROOT
ATOM     10  N   UNL     1      -3.853   2.053  25.082  0.00  0.00    -0.260 NA
ATOM     11  C   UNL     1      -4.301   2.679  25.378  0.00  0.00    +0.106 C 
ATOM     12  C   UNL     1      -5.098   2.476  25.307  0.00  0.00    +0.170 C 
ATOM     13  O   UNL     1      -5.739   2.943  25.536  0.00  0.00    -0.222 OA
ATOM     14  C   UNL     1      -5.141   1.726  24.967  0.00  0.00    +0.060 C 
ATOM     15  C   UNL     1      -4.371   1.464  24.828  0.00  0.00    +0.140 C 
ENDROOT
BRANCH  15  16
ATOM     16  C   UNL     1      -4.157   0.742  24.494  0.00  0.00    +0.251 A 
ATOM     17  N   UNL     1      -4.127   0.016  24.886  0.00  0.00    -0.188 NA
ATOM     18  C   UNL     1      -3.887  -0.557  24.343  0.00  0.00    +0.221 A 
ATOM     19  N   UNL     1      -3.770  -0.186  23.616  0.00  0.00    -0.054 NA
ATOM     20  O   UNL     1      -3.937   0.615  23.709  0.00  0.00    -0.336 OA
BRANCH  18  21
ATOM     21  C   UNL     1      -3.783  -1.361  24.501  0.00  0.00    +0.120 A 
ATOM     22  N   UNL     1      -3.382  -1.599  25.181  0.00  0.00    -0.241 NA
ATOM     23  C   UNL     1      -3.278  -2.402  25.338  0.00  0.00    +0.099 A 
ATOM     24  C   UNL     1      -3.575  -2.967  24.815  0.00  0.00    +0.021 A 
ATOM     25  C   UNL     1      -3.976  -2.729  24.135  0.00  0.00    +0.003 A 
ATOM     26  C   UNL     1      -4.080  -1.925  23.978  0.00  0.00    +0.022 A 
ENDBRANCH  18  21
ENDBRANCH  15  16
BRANCH  10   9
ATOM      9  C   UNL     1      -3.029   2.022  25.046  0.00  0.00    +0.100 C 
BRANCH   9   8
ATOM      5  C   UNL     1      -1.711   4.117  25.032  0.00  0.00    +0.106 A 
ATOM      6  C   UNL     1      -2.042   3.834  24.332  0.00  0.00    +0.018 A 
ATOM      7  C   UNL     1      -2.482   3.136  24.336  0.00  0.00    -0.002 A 
ATOM      8  C   UNL     1      -2.589   2.721  25.041  0.00  0.00    -0.006 A 
ATOM     27  C   UNL     1      -2.258   3.004  25.742  0.00  0.00    -0.002 A 
ATOM     28  C   UNL     1      -1.818   3.703  25.736  0.00  0.00    +0.018 A 
BRANCH   5   2
ATOM      1  C   UNL     1      -0.831   5.514  25.022  0.00  0.00    +0.182 C 
ATOM      2  S   UNL     1      -1.272   4.815  25.027  0.00  0.00    +0.010 S 
ATOM      3  O   UNL     1      -0.624   4.406  24.719  0.00  0.00    -0.169 OA
ATOM      4  O   UNL     1      -1.918   5.225  25.335  0.00  0.00    -0.169 OA
ENDBRANCH   5   2
ENDBRANCH   9   8
ENDBRANCH  10   9
TORSDOF 5
ENDMDL
MODEL 5
REMARK VINA RESULT:      -9.9      2.164      3.476
REMARK  Name = 
REMARK  5 active torsions:
REMARK  status: ('A' for Active; 'I' for Inactive)
REMARK    1  A    between atoms: S_2  and  C_5
REMARK    2  A    between atoms: C_8  and  C_9
REMARK    3  A    between atoms: C_9  and  N_10
REMARK    4  A    between atoms: C_15  and  C_16
REMARK    5  A    between atoms: C_18  and  C_21
REMARK                            x       y       z     vdW  Elec       q    Type
REMARK                         _______ _______ _______ _____ _____    ______ ____
ROOT
ATOM     10  N   UNL     1      -1.024   1.928  25.083  0.00  0.00    -0.260 NA
ATOM     11  C   UNL     1      -0.293   1.848  25.457  0.00  0.00    +0.106 C 
ATOM     12  C   UNL     1      -0.179   2.509  25.937  0.00  0.00    +0.170 C 
ATOM     13  O   UNL     1       0.480   2.656  26.411  0.00  0.00    -0.222 OA
ATOM     14  C   UNL     1      -0.840   2.997  25.861  0.00  0.00    +0.060 C 
ATOM     15  C   UNL     1      -1.362   2.637  25.332  0.00  0.00    +0.140 C 
ENDROOT
BRANCH  15  16
ATOM     16  C   UNL     1      -2.094   2.935  25.096  0.00  0.00    +0.251 A 
ATOM     17  N   UNL     1      -2.823   2.767  25.445  0.00  0.00    -0.188 NA
ATOM     18  C   UNL     1      -3.404   3.181  25.033  0.00  0.00    +0.221 A 
ATOM     19  N   UNL     1      -3.036   3.605  24.430  0.00  0.00    -0.054 NA
ATOM     20  O   UNL     1      -2.227   3.453  24.468  0.00  0.00    -0.336 OA
BRANCH  18  21
ATOM     21  C   UNL     1      -4.213   3.173  25.197  0.00  0.00    +0.120 A 
ATOM     22  N   UNL     1      -4.571   3.830  25.544  0.00  0.00    -0.241 NA
ATOM     23  C   UNL     1      -5.380   3.822  25.707  0.00  0.00    +0.099 A 
ATOM     24  C   UNL     1      -5.830   3.156  25.524  0.00  0.00    +0.021 A 
ATOM     25  C   UNL     1      -5.473   2.498  25.177  0.00  0.00    +0.003 A 
ATOM     26  C   UNL     1      -4.664   2.507  25.013  0.00  0.00    +0.022 A 
ENDBRANCH  18  21
ENDBRANCH  15  16
BRANCH  10   9
ATOM      9  C   UNL     1      -1.359   1.392  24.553  0.00  0.00    +0.100 C 
BRANCH   9   8
ATOM      5  C   UNL     1      -0.977  -1.037  24.843  0.00  0.00    +0.106 A 
ATOM      6  C   UNL     1      -0.496  -0.602  24.333  0.00  0.00    +0.018 A 
ATOM      7  C   UNL     1      -0.623   0.207  24.236  0.00  0.00    -0.002 A 
ATOM      8  C   UNL     1      -1.232   0.582  24.650  0.00  0.00    -0.006 A 
ATOM     27  C   UNL     1      -1.713   0.146  25.159  0.00  0.00    -0.002 A 
ATOM     28  C   UNL     1      -1.585  -0.663  25.255  0.00  0.00    +0.018 A 
BRANCH   5   2
ATOM      1  C   UNL     1      -0.723  -2.656  25.035  0.00  0.00    +0.182 C 
ATOM      2  S   UNL     1      -0.850  -1.846  24.939  0.00  0.00    +0.010 S 
ATOM      3  O   UNL     1      -0.257  -1.688  25.490  0.00  0.00    -0.169 OA
ATOM      4  O   UNL     1      -1.443  -2.006  24.388  0.00  0.00    -0.169 OA
ENDBRANCH   5   2
ENDBRANCH   9   8
ENDBRANCH  10   9
TORSDOF 5
ENDMDL
MODEL 6
REMARK VINA RESULT:      -9.4      2.554      4.902
REMARK  Name = 
REMARK  5 active torsions:
REMARK  status: ('A' for Active; 'I' for Inactive)
REMARK    1  A    between atoms: S_2  and  C_5
REMARK    2  A    between atoms: C_8  and  C_9
REMARK    3  A    between atoms: C_9  and  N_10
REMARK    4  A    between atoms: C_15  and  C_16
REMARK    5  A    between atoms: C_18  and  C_21
REMARK                            x       y       z     vdW  Elec       q    Type
REMARK                         _______ _______ _______ _____ _____    ______ ____
ROOT
ATOM     10  N   UNL     1      -1.667   2.499  24.438  0.00  0.00    -0.260 NA
ATOM     11  C   UNL     1      -1.551   3.264  24.724  0.00  0.00    +0.106 C 
ATOM     12  C   UNL     1      -0.772   3.320  24.990  0.00  0.00    +0.170 C 
ATOM     13  O   UNL     1      -0.420   3.989  25.320  0.00  0.00    -0.222 OA
ATOM     14  C   UNL     1      -0.407   2.591  24.868  0.00  0.00    +0.060 C 
ATOM     15  C   UNL     1      -0.961   2.083  24.526  0.00  0.00    +0.140 C 
ENDROOT
BRANCH  15  16
ATOM     16  C   UNL     1      -0.831   1.298  24.311  0.00  0.00    +0.251 A 
ATOM     17  N   UNL     1      -1.017   0.633  24.764  0.00  0.00    -0.188 NA
ATOM     18  C   UNL     1      -0.793  -0.036  24.338  0.00  0.00    +0.221 A 
ATOM     19  N   UNL     1      -0.468   0.213  23.622  0.00  0.00    -0.054 NA
ATOM     20  O   UNL     1      -0.492   1.037  23.605  0.00  0.00    -0.336 OA
BRANCH  18  21
ATOM     21  C   UNL     1      -0.878  -0.819  24.585  0.00  0.00    +0.120 A 
ATOM     22  N   UNL     1      -0.287  -1.176  25.036  0.00  0.00    -0.241 NA
ATOM     23  C   UNL     1      -0.373  -1.959  25.283  0.00  0.00    +0.099 A 
ATOM     24  C   UNL     1      -1.049  -2.384  25.078  0.00  0.00    +0.021 A 
ATOM     25  C   UNL     1      -1.640  -2.028  24.627  0.00  0.00    +0.003 A 
ATOM     26  C   UNL     1      -1.555  -1.245  24.380  0.00  0.00    +0.022 A 
ENDBRANCH  18  21
ENDBRANCH  15  16
BRANCH  10   9
ATOM      9  C   UNL     1      -2.367   2.202  24.119  0.00  0.00    +0.100 C 
BRANCH   9   8
ATOM      5  C   UNL     1      -4.551   2.958  25.008  0.00  0.00    +0.106 A 
ATOM      6  C   UNL     1      -4.162   2.319  25.356  0.00  0.00    +0.018 A 
ATOM      7  C   UNL     1      -3.435   2.067  25.060  0.00  0.00    -0.002 A 
ATOM      8  C   UNL     1      -3.095   2.455  24.415  0.00  0.00    -0.006 A 
ATOM     27  C   UNL     1      -3.484   3.094  24.067  0.00  0.00    -0.002 A 
ATOM     28  C   UNL     1      -4.211   3.345  24.364  0.00  0.00    +0.018 A 
BRANCH   5   2
ATOM      1  C   UNL     1      -6.006   3.462  25.601  0.00  0.00    +0.182 C 
ATOM      2  S   UNL     1      -5.278   3.210  25.304  0.00  0.00    +0.010 S 
ATOM      3  O   UNL     1      -5.632   2.522  25.019  0.00  0.00    -0.169 OA
ATOM      4  O   UNL     1      -4.924   3.898  25.590  0.00  0.00    -0.169 OA
ENDBRANCH   5   2
ENDBRANCH   9   8
ENDBRANCH  10   9
TORSDOF 5
ENDMDL
