MODEL 1
REMARK VINA RESULT:     -12.9      0.000      0.000
REMARK  Name = 
REMARK  4 active torsions:
REMARK  status: ('A' for Active; 'I' for Inactive)
REMARK    1  A    between atoms: C_2  and  C_5
REMARK    2  A    between atoms: C_12  and  C_14
REMARK    3  A    between atoms: N_17  and  C_18
REMARK    4  A    between atoms: C_18  and  C_19
REMARK                            x       y       z     vdW  Elec       q    Type
REMARK                         _______ _______ _______ _____ _____    ______ ____
ROOT
ATOM      5  C   UNL     1      -1.436   4.335  25.136  0.00  0.00    +0.073 A 
ATOM      6  C   UNL     1      -2.116   4.019  24.794  0.00  0.00    +0.025 A 
ATOM      7  C   UNL     1      -2.211   3.201  24.742  0.00  0.00    +0.100 A 
ATOM      8  C   UNL     1      -1.624   2.699  25.032  0.00  0.00    +0.100 A 
ATOM      9  C   UNL     1      -0.942   3.015  25.375  0.00  0.00    +0.021 A 
ATOM     10  C   UNL     1      -0.849   3.833  25.427  0.00  0.00    +0.005 A 
ATOM     11  N   UNL     1      -1.868   1.922  24.906  0.00  0.00    -0.229 NA
ATOM     12  C   UNL     1      -2.605   1.942  24.537  0.00  0.00    +0.140 A 
ATOM     13  N   UNL     1      -2.817   2.733  24.436  0.00  0.00    -0.229 NA
ENDROOT
BRANCH  12  14
ATOM     14  C   UNL     1      -3.052   1.288  24.309  0.00  0.00    +0.076 C 
ATOM     15  C   UNL     1      -3.150   1.012  23.538  0.00  0.00    +0.026 C 
ATOM     16  C   UNL     1      -3.639   0.347  23.564  0.00  0.00    +0.073 C 
ATOM     17  N   UNL     1      -3.843   0.212  24.352  0.00  0.00    -0.267 NA
ATOM     25  C   UNL     1      -3.480   0.794  24.812  0.00  0.00    +0.080 C 
BRANCH  17  18
ATOM     18  C   UNL     1      -4.324  -0.396  24.631  0.00  0.00    +0.119 C 
BRANCH  18  19
ATOM     19  C   UNL     1      -4.040  -1.171  24.652  0.00  0.00    +0.075 A 
ATOM     20  N   UNL     1      -3.604  -1.434  25.302  0.00  0.00    -0.247 NA
ATOM     21  C   UNL     1      -3.321  -2.208  25.322  0.00  0.00    +0.098 A 
ATOM     22  C   UNL     1      -3.473  -2.720  24.694  0.00  0.00    +0.021 A 
ATOM     23  C   UNL     1      -3.909  -2.458  24.044  0.00  0.00    +0.003 A 
ATOM     24  C   UNL     1      -4.193  -1.683  24.023  0.00  0.00    +0.016 A 
ENDBRANCH  18  19
ENDBRANCH  17  18
ENDBRANCH  12  14
BRANCH   5   2
ATOM      1  F   UNL     1      -1.248   5.971  25.241  0.00  0.00    -0.166 F 
ATOM      2  C   UNL     1      -1.342   5.152  25.188  0.00  0.00    +0.419 C 
ATOM      3  F   UNL     1      -0.698   5.112  24.675  0.00  0.00    -0.166 F 
ATOM      4  F   UNL     1      -1.987   5.194  25.702  0.00  0.00    -0.166 F 
ENDBRANCH   5   2
TORSDOF 4
ENDMDL
MODEL 2
REMARK VINA RESULT:     -12.9      3.220      5.626
REMARK  Name = 
REMARK  4 active torsions:
REMARK  status: ('A' for Active; 'I' for Inactive)
REMARK    1  A    between atoms: C_2  and  C_5
REMARK    2  A    between atoms: C_12  and  C_14
REMARK    3  A    between atoms: N_17  and  C_18
REMARK    4  A    between atoms: C_18  and  C_19
REMARK                            x       y       z     vdW  Elec       q    Type
REMARK                         _______ _______ _______ _____ _____    ______ ____
ROOT
ATOM      5  C   UNL     1      -3.674  -2.184  24.501  0.00  0.00    +0.073 A 
ATOM      6  C   UNL     1      -3.976  -1.529  24.101  0.00  0.00    +0.025 A 
ATOM      7  C   UNL     1      -4.040  -0.802  24.488  0.00  0.00    +0.100 A 
ATOM      8  C   UNL     1      -3.801  -0.732  25.274  0.00  0.00    +0.100 A 
ATOM      9  C   UNL     1      -3.498  -1.388  25.675  0.00  0.00    +0.021 A 
ATOM     10  C   UNL     1      -3.435  -2.113  25.287  0.00  0.00    +0.005 A 
ATOM     11  N   UNL     1      -3.928   0.048  25.510  0.00  0.00    -0.229 NA
ATOM     12  C   UNL     1      -4.245   0.460  24.870  0.00  0.00    +0.140 A 
ATOM     13  N   UNL     1      -4.314  -0.066  24.239  0.00  0.00    -0.229 NA
ENDROOT
BRANCH  12  14
ATOM     14  C   UNL     1      -4.457   1.257  24.863  0.00  0.00    +0.076 C 
ATOM     15  C   UNL     1      -5.189   1.567  25.082  0.00  0.00    +0.026 C 
ATOM     16  C   UNL     1      -5.158   2.386  24.990  0.00  0.00    +0.073 C 
ATOM     17  N   UNL     1      -4.406   2.583  24.713  0.00  0.00    -0.267 NA
ATOM     25  C   UNL     1      -3.973   1.885  24.634  0.00  0.00    +0.080 C 
BRANCH  17  18
ATOM     18  C   UNL     1      -4.135   3.343  24.544  0.00  0.00    +0.119 C 
BRANCH  18  19
ATOM     19  C   UNL     1      -3.489   3.652  24.954  0.00  0.00    +0.075 A 
ATOM     20  N   UNL     1      -2.741   3.651  24.607  0.00  0.00    -0.247 NA
ATOM     21  C   UNL     1      -2.096   3.961  25.017  0.00  0.00    +0.098 A 
ATOM     22  C   UNL     1      -2.198   4.270  25.775  0.00  0.00    +0.021 A 
ATOM     23  C   UNL     1      -2.947   4.271  26.122  0.00  0.00    +0.003 A 
ATOM     24  C   UNL     1      -3.593   3.962  25.712  0.00  0.00    +0.016 A 
ENDBRANCH  18  19
ENDBRANCH  17  18
ENDBRANCH  12  14
BRANCH   5   2
ATOM      1  F   UNL     1      -3.546  -3.636  23.727  0.00  0.00    -0.166 F 
ATOM      2  C   UNL     1      -3.610  -2.909  24.114  0.00  0.00    +0.419 C 
ATOM      3  F   UNL     1      -2.789  -2.877  24.188  0.00  0.00    -0.166 F 
ATOM      4  F   UNL     1      -4.431  -2.942  24.040  0.00  0.00    -0.166 F 
ENDBRANCH   5   2
TORSDOF 4
ENDMDL
MODEL 3
REMARK VINA RESULT:     -12.6      3.116      5.756
REMARK  Name = 
REMARK  4 active torsions:
REMARK  status: ('A' for Active; 'I' for Inactive)
REMARK    1  A    between atoms: C_2  and  C_5
REMARK    2  A    between atoms: C_12  and  C_14
REMARK    3  A    between atoms: N_17  and  C_18
REMARK    4  A    between atoms: C_18  and  C_19
REMARK                            x       y       z     vdW  Elec       q    Type
REMARK                         _______ _______ _______ _____ _____    ______ ____
ROOT
ATOM      5  C   UNL     1      -3.508  -1.970  24.565  0.00  0.00    +0.073 A 
ATOM      6  C   UNL     1      -2.779  -1.645  24.772  0.00  0.00    +0.025 A 
ATOM      7  C   UNL     1      -2.636  -0.841  24.650  0.00  0.00    +0.100 A 
ATOM      8  C   UNL     1      -3.222  -0.363  24.321  0.00  0.00    +0.100 A 
ATOM      9  C   UNL     1      -3.952  -0.689  24.113  0.00  0.00    +0.021 A 
ATOM     10  C   UNL     1      -4.094  -1.492  24.235  0.00  0.00    +0.005 A 
ATOM     11  N   UNL     1      -2.925   0.404  24.266  0.00  0.00    -0.229 NA
ATOM     12  C   UNL     1      -2.155   0.401  24.561  0.00  0.00    +0.140 A 
ATOM     13  N   UNL     1      -1.977  -0.369  24.799  0.00  0.00    -0.229 NA
ENDROOT
BRANCH  12  14
ATOM     14  C   UNL     1      -1.652   1.052  24.611  0.00  0.00    +0.076 C 
ATOM     15  C   UNL     1      -1.123   1.302  24.029  0.00  0.00    +0.026 C 
ATOM     16  C   UNL     1      -0.733   1.973  24.309  0.00  0.00    +0.073 C 
ATOM     17  N   UNL     1      -1.021   2.138  25.064  0.00  0.00    -0.267 NA
ATOM     25  C   UNL     1      -1.589   1.569  25.250  0.00  0.00    +0.080 C 
BRANCH  17  18
ATOM     18  C   UNL     1      -0.784   2.763  25.548  0.00  0.00    +0.119 C 
BRANCH  18  19
ATOM     19  C   UNL     1      -1.104   3.515  25.439  0.00  0.00    +0.075 A 
ATOM     20  N   UNL     1      -1.862   3.686  25.719  0.00  0.00    -0.247 NA
ATOM     21  C   UNL     1      -2.181   4.438  25.609  0.00  0.00    +0.098 A 
ATOM     22  C   UNL     1      -1.745   5.020  25.220  0.00  0.00    +0.021 A 
ATOM     23  C   UNL     1      -0.987   4.849  24.940  0.00  0.00    +0.003 A 
ATOM     24  C   UNL     1      -0.667   4.097  25.049  0.00  0.00    +0.016 A 
ENDBRANCH  18  19
ENDBRANCH  17  18
ENDBRANCH  12  14
BRANCH   5   2
ATOM      1  F   UNL     1      -3.793  -3.577  24.809  0.00  0.00    -0.166 F 
ATOM      2  C   UNL     1      -3.650  -2.773  24.687  0.00  0.00    +0.419 C 
ATOM      3  F   UNL     1      -3.613  -2.904  23.873  0.00  0.00    -0.166 F 
ATOM      4  F   UNL     1      -3.688  -2.643  25.501  0.00  0.00    -0.166 F 
ENDBRANCH   5   2
TORSDOF 4
ENDMDL
