MODEL 1
REMARK VINA RESULT:     -11.8      0.000      0.000
REMARK  Name = 
REMARK  7 active torsions:
REMARK  status: ('A' for Active; 'I' for Inactive)
REMARK    1  A    between atoms: C_2  and  C_3
REMARK    2  A    between atoms: C_6  and  C_7
REMARK    3  A    between atoms: C_7  and  N_8
REMARK    4  A    between atoms: N_8  and  C_9
REMARK    5  A    between atoms: C_14  and  C_15
REMARK    6  A    between atoms: C_15  and  C_16
REMARK    7  A    between atoms: C_16  and  C_17
REMARK                            x       y       z     vdW  Elec       q    Type
REMARK                         _______ _______ _______ _____ _____    ______ ____
ROOT
ATOM      9  C   UNL     1      -2.832   3.914  25.662  0.00  0.00    +0.091 C 
ATOM     10  C   UNL     1      -2.343   4.508  25.367  0.00  0.00    +0.044 C 
ATOM     11  C   UNL     1      -1.578   4.204  25.310  0.00  0.00    +0.138 C 
ATOM     12  N   UNL     1      -1.595   3.422  25.570  0.00  0.00    -0.265 NA
ATOM     13  C   UNL     1      -2.369   3.241  25.787  0.00  0.00    +0.090 C 
ATOM     14  C   UNL     1      -0.901   2.974  25.575  0.00  0.00    +0.080 C 
ATOM     31  C   UNL     1      -0.192   3.309  25.320  0.00  0.00    +0.131 C 
ATOM     32  N   UNL     1      -0.176   4.092  25.060  0.00  0.00    -0.203 NA
ATOM     33  C   UNL     1      -0.868   4.540  25.055  0.00  0.00    +0.256 C 
ATOM     34  O   UNL     1      -0.852   5.323  24.795  0.00  0.00    -0.272 OA
ENDROOT
BRANCH   9   8
ATOM      8  N   UNL     1      -3.642   3.979  25.806  0.00  0.00    -0.210 NA
BRANCH   8   7
ATOM      7  C   UNL     1      -4.182   3.851  25.196  0.00  0.00    +0.153 C 
BRANCH   7   6
ATOM      3  C   UNL     1      -5.723   2.378  25.317  0.00  0.00    +0.156 A 
ATOM      4  C   UNL     1      -6.059   2.996  25.748  0.00  0.00    +0.038 A 
ATOM      5  C   UNL     1      -5.522   3.623  25.755  0.00  0.00    +0.037 A 
ATOM      6  C   UNL     1      -4.855   3.393  25.328  0.00  0.00    +0.140 A 
ATOM     35  O   UNL     1      -4.978   2.623  25.058  0.00  0.00    -0.458 OA
BRANCH   3   2
ATOM      1  O   UNL     1      -6.747   1.594  24.703  0.00  0.00    -0.212 OA
ATOM      2  C   UNL     1      -6.069   1.644  25.171  0.00  0.00    +0.246 C 
ENDBRANCH   3   2
ENDBRANCH   7   6
ENDBRANCH   8   7
ENDBRANCH   9   8
BRANCH  14  15
ATOM     15  C   UNL     1      -0.918   2.191  25.835  0.00  0.00    +0.027 C 
BRANCH  15  16
ATOM     16  C   UNL     1      -1.007   1.578  25.291  0.00  0.00    +0.087 C 
BRANCH  16  17
ATOM     17  C   UNL     1      -0.913   0.795  25.533  0.00  0.00    +0.226 C 
ATOM     18  O   UNL     1      -0.282   0.587  26.022  0.00  0.00    -0.275 OA
ATOM     19  N   UNL     1      -1.449   0.219  25.285  0.00  0.00    -0.276 N 
ATOM     20  C   UNL     1      -1.355  -0.564  25.527  0.00  0.00    +0.115 C 
ATOM     21  C   UNL     1      -1.892  -1.140  25.280  0.00  0.00    +0.114 C 
ATOM     22  N   UNL     1      -2.522  -0.932  24.790  0.00  0.00    -0.290 N 
ATOM     23  C   UNL     1      -2.616  -0.149  24.548  0.00  0.00    +0.114 C 
ATOM     24  C   UNL     1      -2.080   0.426  24.796  0.00  0.00    +0.115 C 
ATOM     25  C   UNL     1      -3.059  -1.508  24.542  0.00  0.00    +0.132 A 
ATOM     26  N   UNL     1      -2.965  -2.291  24.784  0.00  0.00    -0.229 NA
ATOM     27  C   UNL     1      -3.501  -2.866  24.537  0.00  0.00    +0.100 A 
ATOM     28  C   UNL     1      -4.132  -2.659  24.047  0.00  0.00    +0.021 A 
ATOM     29  C   UNL     1      -4.226  -1.876  23.805  0.00  0.00    +0.004 A 
ATOM     30  C   UNL     1      -3.689  -1.300  24.053  0.00  0.00    +0.034 A 
ENDBRANCH  16  17
ENDBRANCH  15  16
ENDBRANCH  14  15
TORSDOF 7
ENDMDL
MODEL 2
REMARK VINA RESULT:     -11.1      1.437      4.771
REMARK  Name = 
REMARK  7 active torsions:
REMARK  status: ('A' for Active; 'I' for Inactive)
REMARK    1  A    between atoms: C_2  and  C_3
REMARK    2  A    between atoms: C_6  and  C_7
REMARK    3  A    between atoms: C_7  and  N_8
REMARK    4  A    between atoms: N_8  and  C_9
REMARK    5  A    between atoms: C_14  and  C_15
REMARK    6  A    between atoms: C_15  and  C_16
REMARK    7  A    between atoms: C_16  and  C_17
REMARK                            x       y       z     vdW  Elec       q    Type
REMARK                         _______ _______ _______ _____ _____    ______ ____
ROOT
ATOM      9  C   UNL     1      -3.960  -0.489  24.653  0.00  0.00    +0.091 C 
ATOM     10  C   UNL     1      -3.983  -1.281  24.883  0.00  0.00    +0.044 C 
ATOM     11  C   UNL     1      -3.222  -1.590  24.813  0.00  0.00    +0.138 C 
ATOM     12  N   UNL     1      -2.727  -0.989  24.540  0.00  0.00    -0.265 NA
ATOM     13  C   UNL     1      -3.183  -0.309  24.441  0.00  0.00    +0.090 C 
ATOM     14  C   UNL     1      -1.926  -1.139  24.416  0.00  0.00    +0.080 C 
ATOM     31  C   UNL     1      -1.619  -1.890  24.566  0.00  0.00    +0.131 C 
ATOM     32  N   UNL     1      -2.113  -2.491  24.839  0.00  0.00    -0.203 NA
ATOM     33  C   UNL     1      -2.915  -2.341  24.963  0.00  0.00    +0.256 C 
ATOM     34  O   UNL     1      -3.410  -2.942  25.237  0.00  0.00    -0.272 OA
ENDROOT
BRANCH   9   8
ATOM      8  N   UNL     1      -4.600   0.031  24.638  0.00  0.00    -0.210 NA
BRANCH   8   7
ATOM      7  C   UNL     1      -4.787   0.475  25.307  0.00  0.00    +0.153 C 
BRANCH   7   6
ATOM      3  C   UNL     1      -5.365   2.530  25.272  0.00  0.00    +0.156 A 
ATOM      4  C   UNL     1      -6.026   2.173  24.931  0.00  0.00    +0.038 A 
ATOM      5  C   UNL     1      -5.890   1.359  24.903  0.00  0.00    +0.037 A 
ATOM      6  C   UNL     1      -5.145   1.214  25.226  0.00  0.00    +0.140 A 
ATOM     35  O   UNL     1      -4.820   1.938  25.454  0.00  0.00    -0.458 OA
BRANCH   3   2
ATOM      1  O   UNL     1      -5.865   3.771  25.774  0.00  0.00    -0.212 OA
ATOM      2  C   UNL     1      -5.266   3.338  25.406  0.00  0.00    +0.246 C 
ENDBRANCH   3   2
ENDBRANCH   7   6
ENDBRANCH   8   7
ENDBRANCH   9   8
BRANCH  14  15
ATOM     15  C   UNL     1      -1.431  -0.538  24.143  0.00  0.00    +0.027 C 
BRANCH  15  16
ATOM     16  C   UNL     1      -1.030  -0.057  24.680  0.00  0.00    +0.087 C 
BRANCH  16  17
ATOM     17  C   UNL     1      -0.477   0.492  24.409  0.00  0.00    +0.226 C 
ATOM     18  O   UNL     1       0.201   0.234  24.018  0.00  0.00    -0.275 OA
ATOM     19  N   UNL     1      -0.602   1.297  24.530  0.00  0.00    -0.276 N 
ATOM     20  C   UNL     1      -0.048   1.846  24.260  0.00  0.00    +0.115 C 
ATOM     21  C   UNL     1      -0.174   2.653  24.381  0.00  0.00    +0.114 C 
ATOM     22  N   UNL     1      -0.852   2.910  24.773  0.00  0.00    -0.290 N 
ATOM     23  C   UNL     1      -1.406   2.362  25.043  0.00  0.00    +0.114 C 
ATOM     24  C   UNL     1      -1.281   1.556  24.922  0.00  0.00    +0.115 C 
ATOM     25  C   UNL     1      -0.978   3.717  24.894  0.00  0.00    +0.132 A 
ATOM     26  N   UNL     1      -0.424   4.266  24.623  0.00  0.00    -0.229 NA
ATOM     27  C   UNL     1      -0.549   5.072  24.745  0.00  0.00    +0.100 A 
ATOM     28  C   UNL     1      -1.228   5.330  25.136  0.00  0.00    +0.021 A 
ATOM     29  C   UNL     1      -1.782   4.782  25.407  0.00  0.00    +0.004 A 
ATOM     30  C   UNL     1      -1.656   3.974  25.286  0.00  0.00    +0.034 A 
ENDBRANCH  16  17
ENDBRANCH  15  16
ENDBRANCH  14  15
TORSDOF 7
ENDMDL
MODEL 3
REMARK VINA RESULT:     -10.8      1.807      4.644
REMARK  Name = 
REMARK  7 active torsions:
REMARK  status: ('A' for Active; 'I' for Inactive)
REMARK    1  A    between atoms: C_2  and  C_3
REMARK    2  A    between atoms: C_6  and  C_7
REMARK    3  A    between atoms: C_7  and  N_8
REMARK    4  A    between atoms: N_8  and  C_9
REMARK    5  A    between atoms: C_14  and  C_15
REMARK    6  A    between atoms: C_15  and  C_16
REMARK    7  A    between atoms: C_16  and  C_17
REMARK                            x       y       z     vdW  Elec       q    Type
REMARK                         _______ _______ _______ _____ _____    ______ ____
ROOT
ATOM      9  C   UNL     1      -0.479  -0.698  24.251  0.00  0.00    +0.091 C 
ATOM     10  C   UNL     1       0.161  -0.708  23.731  0.00  0.00    +0.044 C 
ATOM     11  C   UNL     1       0.477   0.053  23.702  0.00  0.00    +0.138 C 
ATOM     12  N   UNL     1       0.033   0.534  24.205  0.00  0.00    -0.265 NA
ATOM     13  C   UNL     1      -0.558   0.070  24.544  0.00  0.00    +0.090 C 
ATOM     14  C   UNL     1       0.225   1.332  24.288  0.00  0.00    +0.080 C 
ATOM     31  C   UNL     1       0.860   1.649  23.869  0.00  0.00    +0.131 C 
ATOM     32  N   UNL     1       1.305   1.169  23.367  0.00  0.00    -0.203 NA
ATOM     33  C   UNL     1       1.114   0.371  23.283  0.00  0.00    +0.256 C 
ATOM     34  O   UNL     1       1.558  -0.110  22.781  0.00  0.00    -0.272 OA
ENDROOT
BRANCH   9   8
ATOM      8  N   UNL     1      -0.957  -1.342  24.445  0.00  0.00    -0.210 NA
BRANCH   8   7
ATOM      7  C   UNL     1      -1.661  -1.224  24.858  0.00  0.00    +0.153 C 
BRANCH   7   6
ATOM      3  C   UNL     1      -3.508  -2.142  24.305  0.00  0.00    +0.156 A 
ATOM      4  C   UNL     1      -3.119  -2.773  24.667  0.00  0.00    +0.038 A 
ATOM      5  C   UNL     1      -2.379  -2.506  24.918  0.00  0.00    +0.037 A 
ATOM      6  C   UNL     1      -2.312  -1.710  24.712  0.00  0.00    +0.140 A 
ATOM     35  O   UNL     1      -3.010  -1.485  24.333  0.00  0.00    -0.458 OA
BRANCH   3   2
ATOM      1  O   UNL     1      -4.721  -1.477  23.944  0.00  0.00    -0.212 OA
ATOM      2  C   UNL     1      -4.263  -2.164  23.974  0.00  0.00    +0.246 C 
ENDBRANCH   3   2
ENDBRANCH   7   6
ENDBRANCH   8   7
ENDBRANCH   9   8
BRANCH  14  15
ATOM     15  C   UNL     1      -0.219   1.812  24.790  0.00  0.00    +0.027 C 
BRANCH  15  16
ATOM     16  C   UNL     1      -0.750   2.359  24.475  0.00  0.00    +0.087 C 
BRANCH  16  17
ATOM     17  C   UNL     1      -1.110   2.916  24.966  0.00  0.00    +0.226 C 
ATOM     18  O   UNL     1      -0.649   3.459  25.381  0.00  0.00    -0.275 OA
ATOM     19  N   UNL     1      -1.931   2.928  25.043  0.00  0.00    -0.276 N 
ATOM     20  C   UNL     1      -2.291   3.485  25.535  0.00  0.00    +0.115 C 
ATOM     21  C   UNL     1      -3.113   3.497  25.612  0.00  0.00    +0.114 C 
ATOM     22  N   UNL     1      -3.573   2.953  25.197  0.00  0.00    -0.290 N 
ATOM     23  C   UNL     1      -3.214   2.397  24.705  0.00  0.00    +0.114 C 
ATOM     24  C   UNL     1      -2.393   2.384  24.629  0.00  0.00    +0.115 C 
ATOM     25  C   UNL     1      -4.395   2.966  25.274  0.00  0.00    +0.132 A 
ATOM     26  N   UNL     1      -4.755   3.522  25.765  0.00  0.00    -0.229 NA
ATOM     27  C   UNL     1      -5.576   3.535  25.842  0.00  0.00    +0.100 A 
ATOM     28  C   UNL     1      -6.038   2.991  25.428  0.00  0.00    +0.021 A 
ATOM     29  C   UNL     1      -5.678   2.435  24.936  0.00  0.00    +0.004 A 
ATOM     30  C   UNL     1      -4.856   2.422  24.859  0.00  0.00    +0.034 A 
ENDBRANCH  16  17
ENDBRANCH  15  16
ENDBRANCH  14  15
TORSDOF 7
ENDMDL
MODEL 4
REMARK VINA RESULT:     -10.5      2.667      4.862
REMARK  Name = 
REMARK  7 active torsions:
REMARK  status: ('A' for Active; 'I' for Inactive)
REMARK    1  A    between atoms: C_2  and  C_3
REMARK    2  A    between atoms: C_6  and  C_7
REMARK    3  A    between atoms: C_7  and  N_8
REMARK    4  A    between atoms: N_8  and  C_9
REMARK    5  A    between atoms: C_14  and  C_15
REMARK    6  A    between atoms: C_15  and  C_16
REMARK    7  A    between atoms: C_16  and  C_17
REMARK                            x       y       z     vdW  Elec       q    Type
REMARK                         _______ _______ _______ _____ _____    ______ ____
ROOT
ATOM      9  C   UNL     1      -4.199  -0.254  24.865  0.00  0.00    +0.091 C 
ATOM     10  C   UNL     1      -4.328  -1.032  24.623  0.00  0.00    +0.044 C 
ATOM     11  C   UNL     1      -3.594  -1.401  24.549  0.00  0.00    +0.138 C 
ATOM     12  N   UNL     1      -3.011  -0.851  24.745  0.00  0.00    -0.265 NA
ATOM     13  C   UNL     1      -3.385  -0.142  24.940  0.00  0.00    +0.090 C 
ATOM     14  C   UNL     1      -2.216  -1.067  24.719  0.00  0.00    +0.080 C 
ATOM     31  C   UNL     1      -2.003  -1.832  24.499  0.00  0.00    +0.131 C 
ATOM     32  N   UNL     1      -2.585  -2.382  24.303  0.00  0.00    -0.203 NA
ATOM     33  C   UNL     1      -3.381  -2.167  24.328  0.00  0.00    +0.256 C 
ATOM     34  O   UNL     1      -3.964  -2.717  24.132  0.00  0.00    -0.272 OA
ENDROOT
BRANCH   9   8
ATOM      8  N   UNL     1      -4.782   0.313  25.007  0.00  0.00    -0.210 NA
BRANCH   8   7
ATOM      7  C   UNL     1      -4.779   1.022  24.586  0.00  0.00    +0.153 C 
BRANCH   7   6
ATOM      3  C   UNL     1      -5.371   2.911  25.385  0.00  0.00    +0.156 A 
ATOM      4  C   UNL     1      -6.094   2.515  25.361  0.00  0.00    +0.038 A 
ATOM      5  C   UNL     1      -5.960   1.758  25.059  0.00  0.00    +0.037 A 
ATOM      6  C   UNL     1      -5.155   1.688  24.896  0.00  0.00    +0.140 A 
ATOM     35  O   UNL     1      -4.790   2.400  25.098  0.00  0.00    -0.458 OA
BRANCH   3   2
ATOM      1  O   UNL     1      -5.884   4.210  25.688  0.00  0.00    -0.212 OA
ATOM      2  C   UNL     1      -5.250   3.683  25.650  0.00  0.00    +0.246 C 
ENDBRANCH   3   2
ENDBRANCH   7   6
ENDBRANCH   8   7
ENDBRANCH   9   8
BRANCH  14  15
ATOM     15  C   UNL     1      -1.633  -0.517  24.915  0.00  0.00    +0.027 C 
BRANCH  15  16
ATOM     16  C   UNL     1      -1.030  -0.345  24.379  0.00  0.00    +0.087 C 
BRANCH  16  17
ATOM     17  C   UNL     1      -0.557   0.322  24.489  0.00  0.00    +0.226 C 
ATOM     18  O   UNL     1      -0.811   0.930  24.984  0.00  0.00    -0.275 OA
ATOM     19  N   UNL     1       0.169   0.380  24.104  0.00  0.00    -0.276 N 
ATOM     20  C   UNL     1       0.642   1.047  24.214  0.00  0.00    +0.115 C 
ATOM     21  C   UNL     1       1.370   1.105  23.828  0.00  0.00    +0.114 C 
ATOM     22  N   UNL     1       1.623   0.496  23.333  0.00  0.00    -0.290 N 
ATOM     23  C   UNL     1       1.150  -0.170  23.222  0.00  0.00    +0.114 C 
ATOM     24  C   UNL     1       0.424  -0.228  23.608  0.00  0.00    +0.115 C 
ATOM     25  C   UNL     1       2.351   0.555  22.947  0.00  0.00    +0.132 A 
ATOM     26  N   UNL     1       2.824   1.221  23.057  0.00  0.00    -0.229 NA
ATOM     27  C   UNL     1       3.551   1.279  22.672  0.00  0.00    +0.100 A 
ATOM     28  C   UNL     1       3.805   0.671  22.176  0.00  0.00    +0.021 A 
ATOM     29  C   UNL     1       3.332   0.004  22.066  0.00  0.00    +0.004 A 
ATOM     30  C   UNL     1       2.605  -0.054  22.452  0.00  0.00    +0.034 A 
ENDBRANCH  16  17
ENDBRANCH  15  16
ENDBRANCH  14  15
TORSDOF 7
ENDMDL
MODEL 5
REMARK VINA RESULT:     -10.5      1.397      3.924
REMARK  Name = 
REMARK  7 active torsions:
REMARK  status: ('A' for Active; 'I' for Inactive)
REMARK    1  A    between atoms: C_2  and  C_3
REMARK    2  A    between atoms: C_6  and  C_7
REMARK    3  A    between atoms: C_7  and  N_8
REMARK    4  A    between atoms: N_8  and  C_9
REMARK    5  A    between atoms: C_14  and  C_15
REMARK    6  A    between atoms: C_15  and  C_16
REMARK    7  A    between atoms: C_16  and  C_17
REMARK                            x       y       z     vdW  Elec       q    Type
REMARK                         _______ _______ _______ _____ _____    ______ ____
ROOT
ATOM      9  C   UNL     1      -3.876   3.620  24.910  0.00  0.00    +0.091 C 
ATOM     10  C   UNL     1      -4.529   3.914  25.319  0.00  0.00    +0.044 C 
ATOM     11  C   UNL     1      -5.093   3.314  25.364  0.00  0.00    +0.138 C 
ATOM     12  N   UNL     1      -4.789   2.649  24.982  0.00  0.00    -0.265 NA
ATOM     13  C   UNL     1      -4.037   2.838  24.701  0.00  0.00    +0.090 C 
ATOM     14  C   UNL     1      -5.237   1.958  24.940  0.00  0.00    +0.080 C 
ATOM     31  C   UNL     1      -5.988   1.931  25.279  0.00  0.00    +0.131 C 
ATOM     32  N   UNL     1      -6.292   2.596  25.661  0.00  0.00    -0.203 NA
ATOM     33  C   UNL     1      -5.845   3.288  25.704  0.00  0.00    +0.256 C 
ATOM     34  O   UNL     1      -6.149   3.953  26.086  0.00  0.00    -0.272 OA
ENDROOT
BRANCH   9   8
ATOM      8  N   UNL     1      -3.184   4.034  24.738  0.00  0.00    -0.210 NA
BRANCH   8   7
ATOM      7  C   UNL     1      -2.601   4.122  25.316  0.00  0.00    +0.153 C 
BRANCH   7   6
ATOM      3  C   UNL     1      -0.575   3.888  24.681  0.00  0.00    +0.156 A 
ATOM      4  C   UNL     1      -0.602   4.698  24.833  0.00  0.00    +0.038 A 
ATOM      5  C   UNL     1      -1.365   4.884  25.090  0.00  0.00    +0.037 A 
ATOM      6  C   UNL     1      -1.809   4.189  25.096  0.00  0.00    +0.140 A 
ATOM     35  O   UNL     1      -1.321   3.573  24.843  0.00  0.00    -0.458 OA
BRANCH   3   2
ATOM      1  O   UNL     1       0.039   2.646  24.332  0.00  0.00    -0.212 OA
ATOM      2  C   UNL     1       0.081   3.466  24.414  0.00  0.00    +0.246 C 
ENDBRANCH   3   2
ENDBRANCH   7   6
ENDBRANCH   8   7
ENDBRANCH   9   8
BRANCH  14  15
ATOM     15  C   UNL     1      -4.933   1.292  24.558  0.00  0.00    +0.027 C 
BRANCH  15  16
ATOM     16  C   UNL     1      -4.671   0.647  24.999  0.00  0.00    +0.087 C 
BRANCH  16  17
ATOM     17  C   UNL     1      -4.532  -0.077  24.629  0.00  0.00    +0.226 C 
ATOM     18  O   UNL     1      -5.121  -0.425  24.168  0.00  0.00    -0.275 OA
ATOM     19  N   UNL     1      -3.804  -0.453  24.719  0.00  0.00    -0.276 N 
ATOM     20  C   UNL     1      -3.665  -1.177  24.349  0.00  0.00    +0.115 C 
ATOM     21  C   UNL     1      -2.936  -1.554  24.440  0.00  0.00    +0.114 C 
ATOM     22  N   UNL     1      -2.347  -1.206  24.901  0.00  0.00    -0.290 N 
ATOM     23  C   UNL     1      -2.486  -0.482  25.271  0.00  0.00    +0.114 C 
ATOM     24  C   UNL     1      -3.214  -0.106  25.180  0.00  0.00    +0.115 C 
ATOM     25  C   UNL     1      -1.618  -1.583  24.991  0.00  0.00    +0.132 A 
ATOM     26  N   UNL     1      -1.478  -2.307  24.621  0.00  0.00    -0.229 NA
ATOM     27  C   UNL     1      -0.750  -2.683  24.712  0.00  0.00    +0.100 A 
ATOM     28  C   UNL     1      -0.160  -2.335  25.173  0.00  0.00    +0.021 A 
ATOM     29  C   UNL     1      -0.300  -1.611  25.543  0.00  0.00    +0.004 A 
ATOM     30  C   UNL     1      -1.029  -1.235  25.452  0.00  0.00    +0.034 A 
ENDBRANCH  16  17
ENDBRANCH  15  16
ENDBRANCH  14  15
TORSDOF 7
ENDMDL
MODEL 6
REMARK VINA RESULT:     -10.4      1.895      4.121
REMARK  Name = 
REMARK  7 active torsions:
REMARK  status: ('A' for Active; 'I' for Inactive)
REMARK    1  A    between atoms: C_2  and  C_3
REMARK    2  A    between atoms: C_6  and  C_7
REMARK    3  A    between atoms: C_7  and  N_8
REMARK    4  A    between atoms: N_8  and  C_9
REMARK    5  A    between atoms: C_14  and  C_15
REMARK    6  A    between atoms: C_15  and  C_16
REMARK    7  A    between atoms: C_16  and  C_17
REMARK                            x       y       z     vdW  Elec       q    Type
REMARK                         _______ _______ _______ _____ _____    ______ ____
ROOT
ATOM      9  C   UNL     1      -0.654   2.815  24.238  0.00  0.00    +0.091 C 
ATOM     10  C   UNL     1      -0.569   3.522  24.653  0.00  0.00    +0.044 C 
ATOM     11  C   UNL     1      -1.322   3.792  24.853  0.00  0.00    +0.138 C 
ATOM     12  N   UNL     1      -1.873   3.252  24.560  0.00  0.00    -0.265 NA
ATOM     13  C   UNL     1      -1.460   2.648  24.180  0.00  0.00    +0.090 C 
ATOM     14  C   UNL     1      -2.679   3.382  24.678  0.00  0.00    +0.080 C 
ATOM     31  C   UNL     1      -2.935   4.050  25.088  0.00  0.00    +0.131 C 
ATOM     32  N   UNL     1      -2.384   4.590  25.380  0.00  0.00    -0.203 NA
ATOM     33  C   UNL     1      -1.577   4.461  25.263  0.00  0.00    +0.256 C 
ATOM     34  O   UNL     1      -1.027   5.001  25.556  0.00  0.00    -0.272 OA
ENDROOT
BRANCH   9   8
ATOM      8  N   UNL     1      -0.041   2.354  23.933  0.00  0.00    -0.210 NA
BRANCH   8   7
ATOM      7  C   UNL     1       0.122   1.615  24.259  0.00  0.00    +0.153 C 
BRANCH   7   6
ATOM      3  C   UNL     1       1.468   0.411  23.120  0.00  0.00    +0.156 A 
ATOM      4  C   UNL     1       0.800  -0.073  23.141  0.00  0.00    +0.038 A 
ATOM      5  C   UNL     1       0.215   0.319  23.571  0.00  0.00    +0.037 A 
ATOM      6  C   UNL     1       0.520   1.045  23.815  0.00  0.00    +0.140 A 
ATOM     35  O   UNL     1       1.295   1.102  23.536  0.00  0.00    -0.458 OA
BRANCH   3   2
ATOM      1  O   UNL     1       2.184  -0.079  21.984  0.00  0.00    -0.212 OA
ATOM      2  C   UNL     1       2.183   0.235  22.748  0.00  0.00    +0.246 C 
ENDBRANCH   3   2
ENDBRANCH   7   6
ENDBRANCH   8   7
ENDBRANCH   9   8
BRANCH  14  15
ATOM     15  C   UNL     1      -3.230   2.842  24.385  0.00  0.00    +0.027 C 
BRANCH  15  16
ATOM     16  C   UNL     1      -3.557   2.273  24.885  0.00  0.00    +0.087 C 
BRANCH  16  17
ATOM     17  C   UNL     1      -4.155   1.775  24.610  0.00  0.00    +0.226 C 
ATOM     18  O   UNL     1      -4.871   2.093  24.355  0.00  0.00    -0.275 OA
ATOM     19  N   UNL     1      -4.034   0.960  24.590  0.00  0.00    -0.276 N 
ATOM     20  C   UNL     1      -4.632   0.462  24.315  0.00  0.00    +0.115 C 
ATOM     21  C   UNL     1      -4.512  -0.355  24.294  0.00  0.00    +0.114 C 
ATOM     22  N   UNL     1      -3.795  -0.672  24.549  0.00  0.00    -0.290 N 
ATOM     23  C   UNL     1      -3.197  -0.174  24.825  0.00  0.00    +0.114 C 
ATOM     24  C   UNL     1      -3.317   0.641  24.845  0.00  0.00    +0.115 C 
ATOM     25  C   UNL     1      -3.675  -1.489  24.529  0.00  0.00    +0.132 A 
ATOM     26  N   UNL     1      -4.272  -1.987  24.254  0.00  0.00    -0.229 NA
ATOM     27  C   UNL     1      -4.152  -2.802  24.233  0.00  0.00    +0.100 A 
ATOM     28  C   UNL     1      -3.435  -3.121  24.488  0.00  0.00    +0.021 A 
ATOM     29  C   UNL     1      -2.837  -2.623  24.764  0.00  0.00    +0.004 A 
ATOM     30  C   UNL     1      -2.957  -1.806  24.784  0.00  0.00    +0.034 A 
ENDBRANCH  16  17
ENDBRANCH  15  16
ENDBRANCH  14  15
TORSDOF 7
ENDMDL
MODEL 7
REMARK VINA RESULT:     -10.3      2.109      4.476
REMARK  Name = 
REMARK  7 active torsions:
REMARK  status: ('A' for Active; 'I' for Inactive)
REMARK    1  A    between atoms: C_2  and  C_3
REMARK    2  A    between atoms: C_6  and  C_7
REMARK    3  A    between atoms: C_7  and  N_8
REMARK    4  A    between atoms: N_8  and  C_9
REMARK    5  A    between atoms: C_14  and  C_15
REMARK    6  A    between atoms: C_15  and  C_16
REMARK    7  A    between atoms: C_16  and  C_17
REMARK                            x       y       z     vdW  Elec       q    Type
REMARK                         _______ _______ _______ _____ _____    ______ ____
ROOT
ATOM      9  C   UNL     1      -4.393   0.760  25.029  0.00  0.00    +0.091 C 
ATOM     10  C   UNL     1      -5.039   1.271  24.977  0.00  0.00    +0.044 C 
ATOM     11  C   UNL     1      -4.762   2.041  25.077  0.00  0.00    +0.138 C 
ATOM     12  N   UNL     1      -3.946   2.007  25.191  0.00  0.00    -0.265 NA
ATOM     13  C   UNL     1      -3.718   1.215  25.161  0.00  0.00    +0.090 C 
ATOM     14  C   UNL     1      -3.516   2.702  25.307  0.00  0.00    +0.080 C 
ATOM     31  C   UNL     1      -3.902   3.430  25.309  0.00  0.00    +0.131 C 
ATOM     32  N   UNL     1      -4.719   3.465  25.195  0.00  0.00    -0.203 NA
ATOM     33  C   UNL     1      -5.149   2.771  25.079  0.00  0.00    +0.256 C 
ATOM     34  O   UNL     1      -5.966   2.805  24.966  0.00  0.00    -0.272 OA
ENDROOT
BRANCH   9   8
ATOM      8  N   UNL     1      -4.419  -0.062  24.961  0.00  0.00    -0.210 NA
BRANCH   8   7
ATOM      7  C   UNL     1      -4.216  -0.423  24.248  0.00  0.00    +0.153 C 
BRANCH   7   6
ATOM      3  C   UNL     1      -3.211  -2.301  24.399  0.00  0.00    +0.156 A 
ATOM      4  C   UNL     1      -3.927  -2.530  24.058  0.00  0.00    +0.038 A 
ATOM      5  C   UNL     1      -4.390  -1.854  23.960  0.00  0.00    +0.037 A 
ATOM      6  C   UNL     1      -3.962  -1.208  24.240  0.00  0.00    +0.140 A 
ATOM     35  O   UNL     1      -3.232  -1.484  24.512  0.00  0.00    -0.458 OA
BRANCH   3   2
ATOM      1  O   UNL     1      -1.808  -2.565  24.445  0.00  0.00    -0.212 OA
ATOM      2  C   UNL     1      -2.585  -2.801  24.593  0.00  0.00    +0.246 C 
ENDBRANCH   3   2
ENDBRANCH   7   6
ENDBRANCH   8   7
ENDBRANCH   9   8
BRANCH  14  15
ATOM     15  C   UNL     1      -2.700   2.667  25.420  0.00  0.00    +0.027 C 
BRANCH  15  16
ATOM     16  C   UNL     1      -2.190   2.747  24.777  0.00  0.00    +0.087 C 
BRANCH  16  17
ATOM     17  C   UNL     1      -1.388   2.896  24.902  0.00  0.00    +0.226 C 
ATOM     18  O   UNL     1      -1.156   3.526  25.380  0.00  0.00    -0.275 OA
ATOM     19  N   UNL     1      -0.819   2.415  24.548  0.00  0.00    -0.276 N 
ATOM     20  C   UNL     1      -0.018   2.564  24.673  0.00  0.00    +0.115 C 
ATOM     21  C   UNL     1       0.552   2.082  24.319  0.00  0.00    +0.114 C 
ATOM     22  N   UNL     1       0.319   1.452  23.841  0.00  0.00    -0.290 N 
ATOM     23  C   UNL     1      -0.483   1.303  23.716  0.00  0.00    +0.114 C 
ATOM     24  C   UNL     1      -1.052   1.784  24.070  0.00  0.00    +0.115 C 
ATOM     25  C   UNL     1       0.888   0.970  23.487  0.00  0.00    +0.132 A 
ATOM     26  N   UNL     1       1.690   1.120  23.612  0.00  0.00    -0.229 NA
ATOM     27  C   UNL     1       2.259   0.639  23.258  0.00  0.00    +0.100 A 
ATOM     28  C   UNL     1       2.026   0.008  22.780  0.00  0.00    +0.021 A 
ATOM     29  C   UNL     1       1.225  -0.142  22.655  0.00  0.00    +0.004 A 
ATOM     30  C   UNL     1       0.655   0.340  23.009  0.00  0.00    +0.034 A 
ENDBRANCH  16  17
ENDBRANCH  15  16
ENDBRANCH  14  15
TORSDOF 7
ENDMDL
MODEL 8
REMARK VINA RESULT:     -10.0      2.044      6.215
REMARK  Name = 
REMARK  7 active torsions:
REMARK  status: ('A' for Active; 'I' for Inactive)
REMARK    1  A    between atoms: C_2  and  C_3
REMARK    2  A    between atoms: C_6  and  C_7
REMARK    3  A    between atoms: C_7  and  N_8
REMARK    4  A    between atoms: N_8  and  C_9
REMARK    5  A    between atoms: C_14  and  C_15
REMARK    6  A    between atoms: C_15  and  C_16
REMARK    7  A    between atoms: C_16  and  C_17
REMARK                            x       y       z     vdW  Elec       q    Type
REMARK                         _______ _______ _______ _____ _____    ______ ____
ROOT
ATOM      9  C   UNL     1      -1.544  -1.355  24.151  0.00  0.00    +0.091 C 
ATOM     10  C   UNL     1      -1.853  -2.053  24.463  0.00  0.00    +0.044 C 
ATOM     11  C   UNL     1      -2.647  -1.923  24.642  0.00  0.00    +0.138 C 
ATOM     12  N   UNL     1      -2.830  -1.144  24.441  0.00  0.00    -0.265 NA
ATOM     13  C   UNL     1      -2.148  -0.792  24.137  0.00  0.00    +0.090 C 
ATOM     14  C   UNL     1      -3.593  -0.855  24.561  0.00  0.00    +0.080 C 
ATOM     31  C   UNL     1      -4.174  -1.345  24.881  0.00  0.00    +0.131 C 
ATOM     32  N   UNL     1      -3.992  -2.124  25.082  0.00  0.00    -0.203 NA
ATOM     33  C   UNL     1      -3.229  -2.413  24.963  0.00  0.00    +0.256 C 
ATOM     34  O   UNL     1      -3.046  -3.192  25.164  0.00  0.00    -0.272 OA
ENDROOT
BRANCH   9   8
ATOM      8  N   UNL     1      -0.768  -1.239  23.897  0.00  0.00    -0.210 NA
BRANCH   8   7
ATOM      7  C   UNL     1      -0.308  -0.643  24.234  0.00  0.00    +0.153 C 
BRANCH   7   6
ATOM      3  C   UNL     1       1.277  -0.042  22.935  0.00  0.00    +0.156 A 
ATOM      4  C   UNL     1       1.043   0.684  23.247  0.00  0.00    +0.038 A 
ATOM      5  C   UNL     1       0.420   0.548  23.772  0.00  0.00    +0.037 A 
ATOM      6  C   UNL     1       0.270  -0.263  23.784  0.00  0.00    +0.140 A 
ATOM     35  O   UNL     1       0.800  -0.628  23.267  0.00  0.00    -0.458 OA
BRANCH   3   2
ATOM      1  O   UNL     1       2.614   0.205  22.495  0.00  0.00    -0.212 OA
ATOM      2  C   UNL     1       1.882  -0.163  22.388  0.00  0.00    +0.246 C 
ENDBRANCH   3   2
ENDBRANCH   7   6
ENDBRANCH   8   7
ENDBRANCH   9   8
BRANCH  14  15
ATOM     15  C   UNL     1      -3.776  -0.076  24.360  0.00  0.00    +0.027 C 
BRANCH  15  16
ATOM     16  C   UNL     1      -3.810   0.504  24.945  0.00  0.00    +0.087 C 
BRANCH  16  17
ATOM     17  C   UNL     1      -4.122   1.248  24.771  0.00  0.00    +0.226 C 
ATOM     18  O   UNL     1      -4.909   1.320  24.537  0.00  0.00    -0.275 OA
ATOM     19  N   UNL     1      -3.647   1.918  24.832  0.00  0.00    -0.276 N 
ATOM     20  C   UNL     1      -3.958   2.662  24.658  0.00  0.00    +0.115 C 
ATOM     21  C   UNL     1      -3.482   3.334  24.719  0.00  0.00    +0.114 C 
ATOM     22  N   UNL     1      -2.695   3.261  24.953  0.00  0.00    -0.290 N 
ATOM     23  C   UNL     1      -2.383   2.517  25.127  0.00  0.00    +0.114 C 
ATOM     24  C   UNL     1      -2.859   1.847  25.066  0.00  0.00    +0.115 C 
ATOM     25  C   UNL     1      -2.219   3.933  25.014  0.00  0.00    +0.132 A 
ATOM     26  N   UNL     1      -2.531   4.677  24.840  0.00  0.00    -0.229 NA
ATOM     27  C   UNL     1      -2.055   5.347  24.901  0.00  0.00    +0.100 A 
ATOM     28  C   UNL     1      -1.267   5.275  25.135  0.00  0.00    +0.021 A 
ATOM     29  C   UNL     1      -0.955   4.531  25.309  0.00  0.00    +0.004 A 
ATOM     30  C   UNL     1      -1.431   3.860  25.248  0.00  0.00    +0.034 A 
ENDBRANCH  16  17
ENDBRANCH  15  16
ENDBRANCH  14  15
TORSDOF 7
ENDMDL
MODEL 9
REMARK VINA RESULT:      -9.4      3.116      6.593
REMARK  Name = 
REMARK  7 active torsions:
REMARK  status: ('A' for Active; 'I' for Inactive)
REMARK    1  A    between atoms: C_2  and  C_3
REMARK    2  A    between atoms: C_6  and  C_7
REMARK    3  A    between atoms: C_7  and  N_8
REMARK    4  A    between atoms: N_8  and  C_9
REMARK    5  A    between atoms: C_14  and  C_15
REMARK    6  A    between atoms: C_15  and  C_16
REMARK    7  A    between atoms: C_16  and  C_17
REMARK                            x       y       z     vdW  Elec       q    Type
REMARK                         _______ _______ _______ _____ _____    ______ ____
ROOT
ATOM      9  C   UNL     1       1.115   0.121  23.157  0.00  0.00    +0.091 C 
ATOM     10  C   UNL     1       0.825  -0.629  23.340  0.00  0.00    +0.044 C 
ATOM     11  C   UNL     1       0.125  -0.535  23.764  0.00  0.00    +0.138 C 
ATOM     12  N   UNL     1      -0.019   0.273  23.844  0.00  0.00    -0.265 NA
ATOM     13  C   UNL     1       0.593   0.679  23.469  0.00  0.00    +0.090 C 
ATOM     14  C   UNL     1      -0.689   0.535  24.248  0.00  0.00    +0.080 C 
ATOM     31  C   UNL     1      -1.215  -0.011  24.572  0.00  0.00    +0.131 C 
ATOM     32  N   UNL     1      -1.071  -0.820  24.492  0.00  0.00    -0.203 NA
ATOM     33  C   UNL     1      -0.402  -1.082  24.088  0.00  0.00    +0.256 C 
ATOM     34  O   UNL     1      -0.258  -1.891  24.009  0.00  0.00    -0.272 OA
ENDROOT
BRANCH   9   8
ATOM      8  N   UNL     1       1.806   0.285  22.736  0.00  0.00    -0.210 NA
BRANCH   8   7
ATOM      7  C   UNL     1       2.465  -0.204  22.819  0.00  0.00    +0.153 C 
BRANCH   7   6
ATOM      3  C   UNL     1       4.515   0.339  23.070  0.00  0.00    +0.156 A 
ATOM      4  C   UNL     1       4.267   0.903  22.522  0.00  0.00    +0.038 A 
ATOM      5  C   UNL     1       3.469   0.768  22.361  0.00  0.00    +0.037 A 
ATOM      6  C   UNL     1       3.224   0.121  22.810  0.00  0.00    +0.140 A 
ATOM     35  O   UNL     1       3.870  -0.144  23.248  0.00  0.00    -0.458 OA
BRANCH   3   2
ATOM      1  O   UNL     1       5.449   0.610  24.117  0.00  0.00    -0.212 OA
ATOM      2  C   UNL     1       5.274   0.270  23.385  0.00  0.00    +0.246 C 
ENDBRANCH   3   2
ENDBRANCH   7   6
ENDBRANCH   8   7
ENDBRANCH   9   8
BRANCH  14  15
ATOM     15  C   UNL     1      -0.832   1.343  24.328  0.00  0.00    +0.027 C 
BRANCH  15  16
ATOM     16  C   UNL     1      -1.527   1.606  24.688  0.00  0.00    +0.087 C 
BRANCH  16  17
ATOM     17  C   UNL     1      -1.697   2.412  24.717  0.00  0.00    +0.226 C 
ATOM     18  O   UNL     1      -1.100   2.965  24.581  0.00  0.00    -0.275 OA
ATOM     19  N   UNL     1      -2.464   2.666  24.882  0.00  0.00    -0.276 N 
ATOM     20  C   UNL     1      -2.634   3.472  24.911  0.00  0.00    +0.115 C 
ATOM     21  C   UNL     1      -3.402   3.727  25.077  0.00  0.00    +0.114 C 
ATOM     22  N   UNL     1      -3.999   3.173  25.212  0.00  0.00    -0.290 N 
ATOM     23  C   UNL     1      -3.828   2.367  25.183  0.00  0.00    +0.114 C 
ATOM     24  C   UNL     1      -3.061   2.113  25.018  0.00  0.00    +0.115 C 
ATOM     25  C   UNL     1      -4.767   3.427  25.378  0.00  0.00    +0.132 A 
ATOM     26  N   UNL     1      -4.937   4.234  25.407  0.00  0.00    -0.229 NA
ATOM     27  C   UNL     1      -5.704   4.487  25.572  0.00  0.00    +0.100 A 
ATOM     28  C   UNL     1      -6.302   3.935  25.708  0.00  0.00    +0.021 A 
ATOM     29  C   UNL     1      -6.131   3.128  25.679  0.00  0.00    +0.004 A 
ATOM     30  C   UNL     1      -5.363   2.874  25.513  0.00  0.00    +0.034 A 
ENDBRANCH  16  17
ENDBRANCH  15  16
ENDBRANCH  14  15
TORSDOF 7
ENDMDL
MODEL 10
REMARK VINA RESULT:      -9.2     15.037     16.435
REMARK  Name = 
REMARK  7 active torsions:
REMARK  status: ('A' for Active; 'I' for Inactive)
REMARK    1  A    between atoms: C_2  and  C_3
REMARK    2  A    between atoms: C_6  and  C_7
REMARK    3  A    between atoms: C_7  and  N_8
REMARK    4  A    between atoms: N_8  and  C_9
REMARK    5  A    between atoms: C_14  and  C_15
REMARK    6  A    between atoms: C_15  and  C_16
REMARK    7  A    between atoms: C_16  and  C_17
REMARK                            x       y       z     vdW  Elec       q    Type
REMARK                         _______ _______ _______ _____ _____    ______ ____
ROOT
ATOM      9  C   UNL     1      -2.547 -10.639  13.762  0.00  0.00    +0.091 C 
ATOM     10  C   UNL     1      -1.990 -10.701  14.366  0.00  0.00    +0.044 C 
ATOM     11  C   UNL     1      -2.389 -10.653  15.087  0.00  0.00    +0.138 C 
ATOM     12  N   UNL     1      -3.193 -10.560  14.927  0.00  0.00    -0.265 NA
ATOM     13  C   UNL     1      -3.291 -10.552  14.109  0.00  0.00    +0.090 C 
ATOM     14  C   UNL     1      -3.731 -10.495  15.549  0.00  0.00    +0.080 C 
ATOM     31  C   UNL     1      -3.466 -10.523  16.329  0.00  0.00    +0.131 C 
ATOM     32  N   UNL     1      -2.662 -10.616  16.489  0.00  0.00    -0.203 NA
ATOM     33  C   UNL     1      -2.123 -10.681  15.868  0.00  0.00    +0.256 C 
ATOM     34  O   UNL     1      -1.319 -10.773  16.027  0.00  0.00    -0.272 OA
ENDROOT
BRANCH   9   8
ATOM      8  N   UNL     1      -2.390 -10.660  12.952  0.00  0.00    -0.210 NA
BRANCH   8   7
ATOM      7  C   UNL     1      -1.990 -10.035  12.593  0.00  0.00    +0.153 C 
BRANCH   7   6
ATOM      3  C   UNL     1      -2.790  -9.695  10.643  0.00  0.00    +0.156 A 
ATOM      4  C   UNL     1      -2.050  -9.337  10.576  0.00  0.00    +0.038 A 
ATOM      5  C   UNL     1      -1.660  -9.421  11.299  0.00  0.00    +0.037 A 
ATOM      6  C   UNL     1      -2.159  -9.831  11.812  0.00  0.00    +0.140 A 
ATOM     35  O   UNL     1      -2.858 -10.000  11.407  0.00  0.00    -0.458 OA
BRANCH   3   2
ATOM      1  O   UNL     1      -3.754  -9.057   9.803  0.00  0.00    -0.212 OA
ATOM      2  C   UNL     1      -3.363  -9.740  10.051  0.00  0.00    +0.246 C 
ENDBRANCH   3   2
ENDBRANCH   7   6
ENDBRANCH   8   7
ENDBRANCH   9   8
BRANCH  14  15
ATOM     15  C   UNL     1      -4.535 -10.403  15.390  0.00  0.00    +0.027 C 
BRANCH  15  16
ATOM     16  C   UNL     1      -5.055 -10.195  15.996  0.00  0.00    +0.087 C 
BRANCH  16  17
ATOM     17  C   UNL     1      -5.823  -9.953  15.817  0.00  0.00    +0.226 C 
ATOM     18  O   UNL     1      -5.988  -9.614  15.084  0.00  0.00    -0.275 OA
ATOM     19  N   UNL     1      -6.426 -10.051  16.371  0.00  0.00    -0.276 N 
ATOM     20  C   UNL     1      -7.194  -9.809  16.191  0.00  0.00    +0.115 C 
ATOM     21  C   UNL     1      -7.798  -9.907  16.746  0.00  0.00    +0.114 C 
ATOM     22  N   UNL     1      -7.633 -10.246  17.479  0.00  0.00    -0.290 N 
ATOM     23  C   UNL     1      -6.865 -10.488  17.658  0.00  0.00    +0.114 C 
ATOM     24  C   UNL     1      -6.262 -10.391  17.104  0.00  0.00    +0.115 C 
ATOM     25  C   UNL     1      -8.237 -10.344  18.033  0.00  0.00    +0.132 A 
ATOM     26  N   UNL     1      -9.005 -10.102  17.854  0.00  0.00    -0.229 NA
ATOM     27  C   UNL     1      -9.607 -10.199  18.408  0.00  0.00    +0.100 A 
ATOM     28  C   UNL     1      -9.443 -10.539  19.142  0.00  0.00    +0.021 A 
ATOM     29  C   UNL     1      -8.675 -10.781  19.321  0.00  0.00    +0.004 A 
ATOM     30  C   UNL     1      -8.071 -10.684  18.767  0.00  0.00    +0.034 A 
ENDBRANCH  16  17
ENDBRANCH  15  16
ENDBRANCH  14  15
TORSDOF 7
ENDMDL
