MODEL 1
REMARK VINA RESULT:      -9.5      0.000      0.000
REMARK  Name = 
REMARK  4 active torsions:
REMARK  status: ('A' for Active; 'I' for Inactive)
REMARK    1  A    between atoms: O_2  and  C_3
REMARK    2  A    between atoms: C_4  and  C_10
REMARK    3  A    between atoms: C_19  and  N_25
REMARK    4  A    between atoms: C_26  and  C_28
REMARK                            x       y       z     vdW  Elec       q    Type
REMARK                         _______ _______ _______ _____ _____    ______ ____
ROOT
ATOM     10  C   UNL     1      -3.844   1.143  25.082  0.00  0.00    +0.003 A 
ATOM     11  C   UNL     1      -3.214   1.351  24.591  0.00  0.00    +0.006 A 
ATOM     12  C   UNL     1      -2.538   0.877  24.568  0.00  0.00    +0.069 A 
ATOM     13  C   UNL     1      -2.493   0.199  25.034  0.00  0.00    +0.078 A 
ATOM     14  N   UNL     1      -1.875  -0.345  25.092  0.00  0.00    -0.178 NA
ATOM     15  C   UNL     1      -1.149  -0.343  24.699  0.00  0.00    +0.264 C 
ATOM     16  O   UNL     1      -0.644  -0.970  24.878  0.00  0.00    -0.271 OA
ATOM     17  C   UNL     1      -0.863   0.202  24.150  0.00  0.00    +0.156 C 
ATOM     18  C   UNL     1      -0.107  -0.002  23.889  0.00  0.00    +0.051 C 
ATOM     19  C   UNL     1       0.280   0.473  23.337  0.00  0.00    +0.100 C 
ATOM     20  C   UNL     1      -0.088   1.151  23.045  0.00  0.00    +0.043 C 
ATOM     21  C   UNL     1      -0.844   1.356  23.306  0.00  0.00    +0.096 C 
ATOM     22  N   UNL     1      -1.231   0.880  23.859  0.00  0.00    -0.269 N 
ATOM     23  C   UNL     1      -1.977   1.181  24.045  0.00  0.00    +0.251 C 
ATOM     24  O   UNL     1      -2.189   1.877  23.656  0.00  0.00    -0.270 OA
ATOM     33  C   UNL     1      -3.124  -0.008  25.524  0.00  0.00    +0.017 A 
ATOM     34  C   UNL     1      -3.800   0.464  25.548  0.00  0.00    +0.001 A 
ENDROOT
BRANCH  10   4
ATOM      3  C   UNL     1      -4.489   2.365  25.449  0.00  0.00    +0.139 A 
ATOM      4  C   UNL     1      -4.521   1.616  25.106  0.00  0.00    +0.035 A 
ATOM      5  C   UNL     1      -5.229   1.338  24.786  0.00  0.00    +0.014 A 
ATOM      6  C   UNL     1      -5.905   1.810  24.810  0.00  0.00    +0.058 A 
ATOM      7 CL   UNL     1      -6.613   1.533  24.490  0.00  0.00    -0.082 Cl
ATOM      8  C   UNL     1      -5.873   2.559  25.154  0.00  0.00    +0.015 A 
ATOM      9  C   UNL     1      -5.165   2.837  25.474  0.00  0.00    +0.038 A 
BRANCH   3   2
ATOM      1  C   UNL     1      -3.746   3.395  26.104  0.00  0.00    +0.252 C 
ATOM      2  O   UNL     1      -3.781   2.642  25.769  0.00  0.00    -0.471 OA
ENDBRANCH   3   2
ENDBRANCH  10   4
BRANCH  19  25
ATOM     25  N   UNL     1       1.036   0.269  23.075  0.00  0.00    -0.203 NA
ATOM     26  C   UNL     1       1.673   0.771  23.228  0.00  0.00    +0.271 C 
ATOM     27  O   UNL     1       1.555   1.474  23.642  0.00  0.00    -0.268 OA
BRANCH  26  28
ATOM     28  C   UNL     1       2.429   0.567  22.967  0.00  0.00    +0.084 A 
ATOM     29  C   UNL     1       3.123   0.984  23.121  0.00  0.00    +0.012 A 
ATOM     30  C   UNL     1       3.747   0.586  22.755  0.00  0.00    +0.008 A 
ATOM     31  C   UNL     1       3.437  -0.077  22.374  0.00  0.00    +0.036 A 
ATOM     32  S   UNL     1       2.623  -0.089  22.505  0.00  0.00    -0.082 S 
ENDBRANCH  26  28
ENDBRANCH  19  25
TORSDOF 4
ENDMDL
MODEL 2
REMARK VINA RESULT:      -9.1      1.316      1.723
REMARK  Name = 
REMARK  4 active torsions:
REMARK  status: ('A' for Active; 'I' for Inactive)
REMARK    1  A    between atoms: O_2  and  C_3
REMARK    2  A    between atoms: C_4  and  C_10
REMARK    3  A    between atoms: C_19  and  N_25
REMARK    4  A    between atoms: C_26  and  C_28
REMARK                            x       y       z     vdW  Elec       q    Type
REMARK                         _______ _______ _______ _____ _____    ______ ____
ROOT
ATOM     10  C   UNL     1      -3.129   2.321  25.076  0.00  0.00    +0.003 A 
ATOM     11  C   UNL     1      -2.586   1.916  24.606  0.00  0.00    +0.006 A 
ATOM     12  C   UNL     1      -1.776   2.023  24.727  0.00  0.00    +0.069 A 
ATOM     13  C   UNL     1      -1.512   2.535  25.318  0.00  0.00    +0.078 A 
ATOM     14  N   UNL     1      -0.735   2.720  25.528  0.00  0.00    -0.178 NA
ATOM     15  C   UNL     1      -0.032   2.438  25.200  0.00  0.00    +0.264 C 
ATOM     16  O   UNL     1       0.662   2.731  25.536  0.00  0.00    -0.271 OA
ATOM     17  C   UNL     1       0.068   1.902  24.581  0.00  0.00    +0.156 C 
ATOM     18  C   UNL     1       0.867   1.769  24.424  0.00  0.00    +0.051 C 
ATOM     19  C   UNL     1       1.088   1.249  23.824  0.00  0.00    +0.100 C 
ATOM     20  C   UNL     1       0.511   0.862  23.379  0.00  0.00    +0.043 C 
ATOM     21  C   UNL     1      -0.289   0.995  23.536  0.00  0.00    +0.096 C 
ATOM     22  N   UNL     1      -0.509   1.516  24.137  0.00  0.00    -0.269 N 
ATOM     23  C   UNL     1      -1.330   1.570  24.202  0.00  0.00    +0.251 C 
ATOM     24  O   UNL     1      -1.762   1.109  23.671  0.00  0.00    -0.270 OA
ATOM     33  C   UNL     1      -2.056   2.940  25.787  0.00  0.00    +0.017 A 
ATOM     34  C   UNL     1      -2.865   2.833  25.666  0.00  0.00    +0.001 A 
ENDROOT
BRANCH  10   4
ATOM      3  C   UNL     1      -4.370   2.776  24.534  0.00  0.00    +0.139 A 
ATOM      4  C   UNL     1      -3.938   2.214  24.955  0.00  0.00    +0.035 A 
ATOM      5  C   UNL     1      -4.316   1.544  25.257  0.00  0.00    +0.014 A 
ATOM      6  C   UNL     1      -5.125   1.438  25.136  0.00  0.00    +0.058 A 
ATOM      7 CL   UNL     1      -5.501   0.768  25.437  0.00  0.00    -0.082 Cl
ATOM      8  C   UNL     1      -5.557   1.999  24.715  0.00  0.00    +0.015 A 
ATOM      9  C   UNL     1      -5.180   2.669  24.413  0.00  0.00    +0.038 A 
BRANCH   3   2
ATOM      1  C   UNL     1      -4.417   3.987  23.777  0.00  0.00    +0.252 C 
ATOM      2  O   UNL     1      -3.994   3.445  24.232  0.00  0.00    -0.471 OA
ENDBRANCH   3   2
ENDBRANCH  10   4
BRANCH  19  25
ATOM     25  N   UNL     1       1.887   1.115  23.667  0.00  0.00    -0.203 NA
ATOM     26  C   UNL     1       2.108   0.563  23.094  0.00  0.00    +0.271 C 
ATOM     27  O   UNL     1       1.530   0.146  22.679  0.00  0.00    -0.268 OA
BRANCH  26  28
ATOM     28  C   UNL     1       2.907   0.430  22.937  0.00  0.00    +0.084 A 
ATOM     29  C   UNL     1       3.452   0.994  22.683  0.00  0.00    +0.012 A 
ATOM     30  C   UNL     1       4.183   0.622  22.596  0.00  0.00    +0.008 A 
ATOM     31  C   UNL     1       4.090  -0.172  22.795  0.00  0.00    +0.036 A 
ATOM     32  S   UNL     1       3.301  -0.292  23.006  0.00  0.00    -0.082 S 
ENDBRANCH  26  28
ENDBRANCH  19  25
TORSDOF 4
ENDMDL
MODEL 3
REMARK VINA RESULT:      -9.1      2.665      6.232
REMARK  Name = 
REMARK  4 active torsions:
REMARK  status: ('A' for Active; 'I' for Inactive)
REMARK    1  A    between atoms: O_2  and  C_3
REMARK    2  A    between atoms: C_4  and  C_10
REMARK    3  A    between atoms: C_19  and  N_25
REMARK    4  A    between atoms: C_26  and  C_28
REMARK                            x       y       z     vdW  Elec       q    Type
REMARK                         _______ _______ _______ _____ _____    ______ ____
ROOT
ATOM     10  C   UNL     1       1.007   0.078  23.363  0.00  0.00    +0.003 A 
ATOM     11  C   UNL     1       0.520   0.737  23.459  0.00  0.00    +0.006 A 
ATOM     12  C   UNL     1      -0.178   0.673  23.895  0.00  0.00    +0.069 A 
ATOM     13  C   UNL     1      -0.388  -0.050  24.234  0.00  0.00    +0.078 A 
ATOM     14  N   UNL     1      -1.055  -0.231  24.685  0.00  0.00    -0.178 NA
ATOM     15  C   UNL     1      -1.675   0.265  24.910  0.00  0.00    +0.264 C 
ATOM     16  O   UNL     1      -2.266  -0.085  25.366  0.00  0.00    -0.271 OA
ATOM     17  C   UNL     1      -1.782   1.064  24.738  0.00  0.00    +0.156 C 
ATOM     18  C   UNL     1      -2.480   1.353  25.070  0.00  0.00    +0.051 C 
ATOM     19  C   UNL     1      -2.692   2.143  24.963  0.00  0.00    +0.100 C 
ATOM     20  C   UNL     1      -2.206   2.645  24.524  0.00  0.00    +0.043 C 
ATOM     21  C   UNL     1      -1.507   2.356  24.192  0.00  0.00    +0.096 C 
ATOM     22  N   UNL     1      -1.296   1.566  24.299  0.00  0.00    -0.269 N 
ATOM     23  C   UNL     1      -0.582   1.391  23.924  0.00  0.00    +0.251 C 
ATOM     24  O   UNL     1      -0.224   2.019  23.525  0.00  0.00    -0.270 OA
ATOM     33  C   UNL     1       0.099  -0.708  24.137  0.00  0.00    +0.017 A 
ATOM     34  C   UNL     1       0.797  -0.644  23.701  0.00  0.00    +0.001 A 
ENDROOT
BRANCH  10   4
ATOM      3  C   UNL     1       1.742  -0.162  22.161  0.00  0.00    +0.139 A 
ATOM      4  C   UNL     1       1.705   0.141  22.927  0.00  0.00    +0.035 A 
ATOM      5  C   UNL     1       2.366   0.508  23.259  0.00  0.00    +0.014 A 
ATOM      6  C   UNL     1       3.064   0.571  22.823  0.00  0.00    +0.058 A 
ATOM      7 CL   UNL     1       3.724   0.938  23.154  0.00  0.00    -0.082 Cl
ATOM      8  C   UNL     1       3.101   0.268  22.057  0.00  0.00    +0.015 A 
ATOM      9  C   UNL     1       2.440  -0.099  21.725  0.00  0.00    +0.038 A 
BRANCH   3   2
ATOM      1  C   UNL     1       1.081  -0.736  21.032  0.00  0.00    +0.252 C 
ATOM      2  O   UNL     1       1.081  -0.529  21.830  0.00  0.00    -0.471 OA
ENDBRANCH   3   2
ENDBRANCH  10   4
BRANCH  19  25
ATOM     25  N   UNL     1      -3.390   2.432  25.294  0.00  0.00    -0.203 NA
ATOM     26  C   UNL     1      -4.045   2.577  24.814  0.00  0.00    +0.271 C 
ATOM     27  O   UNL     1      -4.002   2.434  24.002  0.00  0.00    -0.268 OA
BRANCH  26  28
ATOM     28  C   UNL     1      -4.744   2.867  25.146  0.00  0.00    +0.084 A 
ATOM     29  C   UNL     1      -4.901   3.654  25.333  0.00  0.00    +0.012 A 
ATOM     30  C   UNL     1      -5.661   3.693  25.651  0.00  0.00    +0.008 A 
ATOM     31  C   UNL     1      -5.973   2.930  25.660  0.00  0.00    +0.036 A 
ATOM     32  S   UNL     1      -5.406   2.419  25.348  0.00  0.00    -0.082 S 
ENDBRANCH  26  28
ENDBRANCH  19  25
TORSDOF 4
ENDMDL
MODEL 4
REMARK VINA RESULT:      -8.8      3.248      4.645
REMARK  Name = 
REMARK  4 active torsions:
REMARK  status: ('A' for Active; 'I' for Inactive)
REMARK    1  A    between atoms: O_2  and  C_3
REMARK    2  A    between atoms: C_4  and  C_10
REMARK    3  A    between atoms: C_19  and  N_25
REMARK    4  A    between atoms: C_26  and  C_28
REMARK                            x       y       z     vdW  Elec       q    Type
REMARK                         _______ _______ _______ _____ _____    ______ ____
ROOT
ATOM     10  C   UNL     1      -1.191   3.467  25.341  0.00  0.00    +0.003 A 
ATOM     11  C   UNL     1      -1.667   2.945  24.915  0.00  0.00    +0.006 A 
ATOM     12  C   UNL     1      -1.602   2.131  25.041  0.00  0.00    +0.069 A 
ATOM     13  C   UNL     1      -1.061   1.842  25.592  0.00  0.00    +0.078 A 
ATOM     14  N   UNL     1      -0.909   1.057  25.800  0.00  0.00    -0.178 NA
ATOM     15  C   UNL     1      -1.261   0.370  25.509  0.00  0.00    +0.264 C 
ATOM     16  O   UNL     1      -0.986  -0.337  25.832  0.00  0.00    -0.271 OA
ATOM     17  C   UNL     1      -1.852   0.298  24.938  0.00  0.00    +0.156 C 
ATOM     18  C   UNL     1      -2.048  -0.493  24.807  0.00  0.00    +0.051 C 
ATOM     19  C   UNL     1      -2.629  -0.687  24.255  0.00  0.00    +0.100 C 
ATOM     20  C   UNL     1      -3.014  -0.092  23.833  0.00  0.00    +0.043 C 
ATOM     21  C   UNL     1      -2.818   0.700  23.964  0.00  0.00    +0.096 C 
ATOM     22  N   UNL     1      -2.236   0.893  24.517  0.00  0.00    -0.269 N 
ATOM     23  C   UNL     1      -2.125   1.710  24.563  0.00  0.00    +0.251 C 
ATOM     24  O   UNL     1      -2.600   2.164  24.064  0.00  0.00    -0.270 OA
ATOM     33  C   UNL     1      -0.585   2.364  26.017  0.00  0.00    +0.017 A 
ATOM     34  C   UNL     1      -0.649   3.177  25.891  0.00  0.00    +0.001 A 
ENDROOT
BRANCH  10   4
ATOM      3  C   UNL     1      -1.888   4.698  25.540  0.00  0.00    +0.139 A 
ATOM      4  C   UNL     1      -1.256   4.279  25.215  0.00  0.00    +0.035 A 
ATOM      5  C   UNL     1      -0.687   4.674  24.764  0.00  0.00    +0.014 A 
ATOM      6  C   UNL     1      -0.752   5.487  24.639  0.00  0.00    +0.058 A 
ATOM      7 CL   UNL     1      -0.184   5.880  24.188  0.00  0.00    -0.082 Cl
ATOM      8  C   UNL     1      -1.384   5.905  24.963  0.00  0.00    +0.015 A 
ATOM      9  C   UNL     1      -1.953   5.511  25.414  0.00  0.00    +0.038 A 
BRANCH   3   2
ATOM      1  C   UNL     1      -3.100   4.718  26.295  0.00  0.00    +0.252 C 
ATOM      2  O   UNL     1      -2.456   4.304  25.990  0.00  0.00    -0.471 OA
ENDBRANCH   3   2
ENDBRANCH  10   4
BRANCH  19  25
ATOM     25  N   UNL     1      -2.826  -1.478  24.123  0.00  0.00    -0.203 NA
ATOM     26  C   UNL     1      -3.546  -1.775  24.398  0.00  0.00    +0.271 C 
ATOM     27  O   UNL     1      -4.068  -1.281  24.803  0.00  0.00    -0.268 OA
BRANCH  26  28
ATOM     28  C   UNL     1      -3.742  -2.566  24.266  0.00  0.00    +0.084 A 
ATOM     29  C   UNL     1      -4.311  -2.841  23.737  0.00  0.00    +0.012 A 
ATOM     30  C   UNL     1      -4.325  -3.665  23.784  0.00  0.00    +0.008 A 
ATOM     31  C   UNL     1      -3.765  -3.897  24.343  0.00  0.00    +0.036 A 
ATOM     32  S   UNL     1      -3.405  -3.218  24.641  0.00  0.00    -0.082 S 
ENDBRANCH  26  28
ENDBRANCH  19  25
TORSDOF 4
ENDMDL
MODEL 5
REMARK VINA RESULT:      -8.6     14.768     15.266
REMARK  Name = 
REMARK  4 active torsions:
REMARK  status: ('A' for Active; 'I' for Inactive)
REMARK    1  A    between atoms: O_2  and  C_3
REMARK    2  A    between atoms: C_4  and  C_10
REMARK    3  A    between atoms: C_19  and  N_25
REMARK    4  A    between atoms: C_26  and  C_28
REMARK                            x       y       z     vdW  Elec       q    Type
REMARK                         _______ _______ _______ _____ _____    ______ ____
ROOT
ATOM     10  C   UNL     1      -8.150  -9.262  16.881  0.00  0.00    +0.003 A 
ATOM     11  C   UNL     1      -8.033  -9.450  16.086  0.00  0.00    +0.006 A 
ATOM     12  C   UNL     1      -7.278  -9.647  15.816  0.00  0.00    +0.069 A 
ATOM     13  C   UNL     1      -6.642  -9.655  16.341  0.00  0.00    +0.078 A 
ATOM     14  N   UNL     1      -5.851  -9.834  16.188  0.00  0.00    -0.178 NA
ATOM     15  C   UNL     1      -5.502 -10.049  15.472  0.00  0.00    +0.264 C 
ATOM     16  O   UNL     1      -4.690 -10.194  15.499  0.00  0.00    -0.271 OA
ATOM     17  C   UNL     1      -5.857 -10.138  14.733  0.00  0.00    +0.156 C 
ATOM     18  C   UNL     1      -5.307 -10.360  14.159  0.00  0.00    +0.051 C 
ATOM     19  C   UNL     1      -5.549 -10.478  13.380  0.00  0.00    +0.100 C 
ATOM     20  C   UNL     1      -6.341 -10.374  13.173  0.00  0.00    +0.043 C 
ATOM     21  C   UNL     1      -6.892 -10.152  13.747  0.00  0.00    +0.096 C 
ATOM     22  N   UNL     1      -6.648 -10.034  14.526  0.00  0.00    -0.269 N 
ATOM     23  C   UNL     1      -7.281  -9.815  15.009  0.00  0.00    +0.251 C 
ATOM     24  O   UNL     1      -8.014  -9.758  14.634  0.00  0.00    -0.270 OA
ATOM     33  C   UNL     1      -6.760  -9.467  17.136  0.00  0.00    +0.017 A 
ATOM     34  C   UNL     1      -7.514  -9.270  17.406  0.00  0.00    +0.001 A 
ENDROOT
BRANCH  10   4
ATOM      3  C   UNL     1      -9.322  -9.592  17.629  0.00  0.00    +0.139 A 
ATOM      4  C   UNL     1      -8.905  -9.065  17.151  0.00  0.00    +0.035 A 
ATOM      5  C   UNL     1      -9.242  -8.341  16.942  0.00  0.00    +0.014 A 
ATOM      6  C   UNL     1      -9.996  -8.144  17.212  0.00  0.00    +0.058 A 
ATOM      7 CL   UNL     1     -10.333  -7.421  17.003  0.00  0.00    -0.082 Cl
ATOM      8  C   UNL     1     -10.414  -8.671  17.690  0.00  0.00    +0.015 A 
ATOM      9  C   UNL     1     -10.077  -9.395  17.899  0.00  0.00    +0.038 A 
BRANCH   3   2
ATOM      1  C   UNL     1      -9.337 -10.781  18.420  0.00  0.00    +0.252 C 
ATOM      2  O   UNL     1      -8.986 -10.315  17.838  0.00  0.00    -0.471 OA
ENDBRANCH   3   2
ENDBRANCH  10   4
BRANCH  19  25
ATOM     25  N   UNL     1      -4.999 -10.700  12.805  0.00  0.00    -0.203 NA
ATOM     26  C   UNL     1      -4.778 -10.165  12.218  0.00  0.00    +0.271 C 
ATOM     27  O   UNL     1      -5.106  -9.408  12.205  0.00  0.00    -0.268 OA
BRANCH  26  28
ATOM     28  C   UNL     1      -4.228 -10.387  11.644  0.00  0.00    +0.084 A 
ATOM     29  C   UNL     1      -3.444 -10.602  11.782  0.00  0.00    +0.012 A 
ATOM     30  C   UNL     1      -3.097 -10.781  11.055  0.00  0.00    +0.008 A 
ATOM     31  C   UNL     1      -3.667 -10.676  10.468  0.00  0.00    +0.036 A 
ATOM     32  S   UNL     1      -4.366 -10.433  10.832  0.00  0.00    -0.082 S 
ENDBRANCH  26  28
ENDBRANCH  19  25
TORSDOF 4
ENDMDL
MODEL 6
REMARK VINA RESULT:      -8.2      3.002      4.506
REMARK  Name = 
REMARK  4 active torsions:
REMARK  status: ('A' for Active; 'I' for Inactive)
REMARK    1  A    between atoms: O_2  and  C_3
REMARK    2  A    between atoms: C_4  and  C_10
REMARK    3  A    between atoms: C_19  and  N_25
REMARK    4  A    between atoms: C_26  and  C_28
REMARK                            x       y       z     vdW  Elec       q    Type
REMARK                         _______ _______ _______ _____ _____    ______ ____
ROOT
ATOM     10  C   UNL     1      -4.062  -1.045  24.532  0.00  0.00    +0.003 A 
ATOM     11  C   UNL     1      -3.437  -0.527  24.382  0.00  0.00    +0.006 A 
ATOM     12  C   UNL     1      -3.542   0.285  24.484  0.00  0.00    +0.069 A 
ATOM     13  C   UNL     1      -4.271   0.579  24.735  0.00  0.00    +0.078 A 
ATOM     14  N   UNL     1      -4.490   1.363  24.870  0.00  0.00    -0.178 NA
ATOM     15  C   UNL     1      -4.036   2.046  24.788  0.00  0.00    +0.264 C 
ATOM     16  O   UNL     1      -4.418   2.755  24.967  0.00  0.00    -0.271 OA
ATOM     17  C   UNL     1      -3.249   2.114  24.549  0.00  0.00    +0.156 C 
ATOM     18  C   UNL     1      -3.004   2.903  24.540  0.00  0.00    +0.051 C 
ATOM     19  C   UNL     1      -2.233   3.092  24.317  0.00  0.00    +0.100 C 
ATOM     20  C   UNL     1      -1.707   2.495  24.103  0.00  0.00    +0.043 C 
ATOM     21  C   UNL     1      -1.951   1.706  24.112  0.00  0.00    +0.096 C 
ATOM     22  N   UNL     1      -2.722   1.517  24.335  0.00  0.00    -0.269 N 
ATOM     23  C   UNL     1      -2.853   0.702  24.306  0.00  0.00    +0.251 C 
ATOM     24  O   UNL     1      -2.209   0.245  24.067  0.00  0.00    -0.270 OA
ATOM     33  C   UNL     1      -4.895   0.061  24.885  0.00  0.00    +0.017 A 
ATOM     34  C   UNL     1      -4.790  -0.751  24.783  0.00  0.00    +0.001 A 
ENDROOT
BRANCH  10   4
ATOM      3  C   UNL     1      -3.610  -2.306  25.029  0.00  0.00    +0.139 A 
ATOM      4  C   UNL     1      -3.957  -1.857  24.431  0.00  0.00    +0.035 A 
ATOM      5  C   UNL     1      -4.201  -2.219  23.730  0.00  0.00    +0.014 A 
ATOM      6  C   UNL     1      -4.096  -3.032  23.628  0.00  0.00    +0.058 A 
ATOM      7 CL   UNL     1      -4.339  -3.394  22.928  0.00  0.00    -0.082 Cl
ATOM      8  C   UNL     1      -3.749  -3.481  24.226  0.00  0.00    +0.015 A 
ATOM      9  C   UNL     1      -3.506  -3.118  24.927  0.00  0.00    +0.038 A 
BRANCH   3   2
ATOM      1  C   UNL     1      -2.963  -2.380  26.300  0.00  0.00    +0.252 C 
ATOM      2  O   UNL     1      -3.367  -1.944  25.729  0.00  0.00    -0.471 OA
ENDBRANCH   3   2
ENDBRANCH  10   4
BRANCH  19  25
ATOM     25  N   UNL     1      -1.988   3.880  24.309  0.00  0.00    -0.203 NA
ATOM     26  C   UNL     1      -1.531   4.177  24.929  0.00  0.00    +0.271 C 
ATOM     27  O   UNL     1      -1.320   3.685  25.558  0.00  0.00    -0.268 OA
BRANCH  26  28
ATOM     28  C   UNL     1      -1.286   4.965  24.920  0.00  0.00    +0.084 A 
ATOM     29  C   UNL     1      -1.738   5.615  25.150  0.00  0.00    +0.012 A 
ATOM     30  C   UNL     1      -1.278   6.293  25.052  0.00  0.00    +0.008 A 
ATOM     31  C   UNL     1      -0.542   6.061  24.762  0.00  0.00    +0.036 A 
ATOM     32  S   UNL     1      -0.546   5.240  24.680  0.00  0.00    -0.082 S 
ENDBRANCH  26  28
ENDBRANCH  19  25
TORSDOF 4
ENDMDL
MODEL 7
REMARK VINA RESULT:      -8.0     16.612     17.366
REMARK  Name = 
REMARK  4 active torsions:
REMARK  status: ('A' for Active; 'I' for Inactive)
REMARK    1  A    between atoms: O_2  and  C_3
REMARK    2  A    between atoms: C_4  and  C_10
REMARK    3  A    between atoms: C_19  and  N_25
REMARK    4  A    between atoms: C_26  and  C_28
REMARK                            x       y       z     vdW  Elec       q    Type
REMARK                         _______ _______ _______ _____ _____    ______ ____
ROOT
ATOM     10  C   UNL     1      -6.272  -9.063   9.814  0.00  0.00    +0.003 A 
ATOM     11  C   UNL     1      -6.509  -9.222  10.588  0.00  0.00    +0.006 A 
ATOM     12  C   UNL     1      -5.954  -9.477  11.145  0.00  0.00    +0.069 A 
ATOM     13  C   UNL     1      -5.165  -9.572  10.926  0.00  0.00    +0.078 A 
ATOM     14  N   UNL     1      -4.529  -9.818  11.391  0.00  0.00    -0.178 NA
ATOM     15  C   UNL     1      -4.526 -10.029  12.188  0.00  0.00    +0.264 C 
ATOM     16  O   UNL     1      -3.794 -10.253  12.497  0.00  0.00    -0.271 OA
ATOM     17  C   UNL     1      -5.158 -10.048  12.718  0.00  0.00    +0.156 C 
ATOM     18  C   UNL     1      -4.916 -10.293  13.468  0.00  0.00    +0.051 C 
ATOM     19  C   UNL     1      -5.465 -10.349  14.080  0.00  0.00    +0.100 C 
ATOM     20  C   UNL     1      -6.256 -10.160  13.944  0.00  0.00    +0.043 C 
ATOM     21  C   UNL     1      -6.499  -9.914  13.194  0.00  0.00    +0.096 C 
ATOM     22  N   UNL     1      -5.949  -9.859  12.582  0.00  0.00    -0.269 N 
ATOM     23  C   UNL     1      -6.303  -9.604  11.881  0.00  0.00    +0.251 C 
ATOM     24  O   UNL     1      -7.114  -9.459  11.923  0.00  0.00    -0.270 OA
ATOM     33  C   UNL     1      -4.929  -9.412  10.152  0.00  0.00    +0.017 A 
ATOM     34  C   UNL     1      -5.482  -9.158   9.596  0.00  0.00    +0.001 A 
ENDROOT
BRANCH  10   4
ATOM      3  C   UNL     1      -7.211  -9.358   8.779  0.00  0.00    +0.139 A 
ATOM      4  C   UNL     1      -6.826  -8.809   9.258  0.00  0.00    +0.035 A 
ATOM      5  C   UNL     1      -6.994  -8.004   9.182  0.00  0.00    +0.014 A 
ATOM      6  C   UNL     1      -7.547  -7.749   8.625  0.00  0.00    +0.058 A 
ATOM      7 CL   UNL     1      -7.715  -6.945   8.549  0.00  0.00    -0.082 Cl
ATOM      8  C   UNL     1      -7.933  -8.298   8.146  0.00  0.00    +0.015 A 
ATOM      9  C   UNL     1      -7.765  -9.103   8.222  0.00  0.00    +0.038 A 
BRANCH   3   2
ATOM      1  C   UNL     1      -7.409 -10.708   8.357  0.00  0.00    +0.252 C 
ATOM      2  O   UNL     1      -7.044 -10.162   8.855  0.00  0.00    -0.471 OA
ENDBRANCH   3   2
ENDBRANCH  10   4
BRANCH  19  25
ATOM     25  N   UNL     1      -5.223 -10.594  14.831  0.00  0.00    -0.203 NA
ATOM     26  C   UNL     1      -5.371 -10.117  15.487  0.00  0.00    +0.271 C 
ATOM     27  O   UNL     1      -5.759  -9.395  15.394  0.00  0.00    -0.268 OA
BRANCH  26  28
ATOM     28  C   UNL     1      -5.129 -10.362  16.238  0.00  0.00    +0.084 A 
ATOM     29  C   UNL     1      -4.349 -10.439  16.494  0.00  0.00    +0.012 A 
ATOM     30  C   UNL     1      -4.363 -10.698  17.277  0.00  0.00    +0.008 A 
ATOM     31  C   UNL     1      -5.151 -10.781  17.504  0.00  0.00    +0.036 A 
ATOM     32  S   UNL     1      -5.625 -10.574  16.862  0.00  0.00    -0.082 S 
ENDBRANCH  26  28
ENDBRANCH  19  25
TORSDOF 4
ENDMDL
MODEL 8
REMARK VINA RESULT:      -7.3     13.738     14.216
REMARK  Name = 
REMARK  4 active torsions:
REMARK  status: ('A' for Active; 'I' for Inactive)
REMARK    1  A    between atoms: O_2  and  C_3
REMARK    2  A    between atoms: C_4  and  C_10
REMARK    3  A    between atoms: C_19  and  N_25
REMARK    4  A    between atoms: C_26  and  C_28
REMARK                            x       y       z     vdW  Elec       q    Type
REMARK                         _______ _______ _______ _____ _____    ______ ____
ROOT
ATOM     10  C   UNL     1      -8.521  -9.398  17.014  0.00  0.00    +0.003 A 
ATOM     11  C   UNL     1      -7.901  -9.483  16.477  0.00  0.00    +0.006 A 
ATOM     12  C   UNL     1      -7.168  -9.763  16.734  0.00  0.00    +0.069 A 
ATOM     13  C   UNL     1      -7.057  -9.957  17.528  0.00  0.00    +0.078 A 
ATOM     14  N   UNL     1      -6.376 -10.242  17.896  0.00  0.00    -0.178 NA
ATOM     15  C   UNL     1      -5.639 -10.404  17.562  0.00  0.00    +0.264 C 
ATOM     16  O   UNL     1      -5.064 -10.687  18.081  0.00  0.00    -0.271 OA
ATOM     17  C   UNL     1      -5.401 -10.321  16.776  0.00  0.00    +0.156 C 
ATOM     18  C   UNL     1      -4.614 -10.545  16.674  0.00  0.00    +0.051 C 
ATOM     19  C   UNL     1      -4.267 -10.503  15.927  0.00  0.00    +0.100 C 
ATOM     20  C   UNL     1      -4.706 -10.238  15.282  0.00  0.00    +0.043 C 
ATOM     21  C   UNL     1      -5.494 -10.013  15.384  0.00  0.00    +0.096 C 
ATOM     22  N   UNL     1      -5.841 -10.055  16.131  0.00  0.00    -0.269 N 
ATOM     23  C   UNL     1      -6.628  -9.806  16.113  0.00  0.00    +0.251 C 
ATOM     24  O   UNL     1      -6.911  -9.570  15.375  0.00  0.00    -0.270 OA
ATOM     33  C   UNL     1      -7.677  -9.871  18.065  0.00  0.00    +0.017 A 
ATOM     34  C   UNL     1      -8.410  -9.592  17.808  0.00  0.00    +0.001 A 
ENDROOT
BRANCH  10   4
ATOM      3  C   UNL     1      -9.933  -9.571  16.878  0.00  0.00    +0.139 A 
ATOM      4  C   UNL     1      -9.254  -9.119  16.758  0.00  0.00    +0.035 A 
ATOM      5  C   UNL     1      -9.307  -8.386  16.380  0.00  0.00    +0.014 A 
ATOM      6  C   UNL     1     -10.040  -8.107  16.124  0.00  0.00    +0.058 A 
ATOM      7 CL   UNL     1     -10.092  -7.375  15.747  0.00  0.00    -0.082 Cl
ATOM      8  C   UNL     1     -10.719  -8.559  16.244  0.00  0.00    +0.015 A 
ATOM      9  C   UNL     1     -10.666  -9.292  16.621  0.00  0.00    +0.038 A 
BRANCH   3   2
ATOM      1  C   UNL     1     -10.565 -10.686  17.508  0.00  0.00    +0.252 C 
ATOM      2  O   UNL     1      -9.880 -10.303  17.255  0.00  0.00    -0.471 OA
ENDBRANCH   3   2
ENDBRANCH  10   4
BRANCH  19  25
ATOM     25  N   UNL     1      -3.479 -10.728  15.825  0.00  0.00    -0.203 NA
ATOM     26  C   UNL     1      -2.882 -10.159  15.852  0.00  0.00    +0.271 C 
ATOM     27  O   UNL     1      -3.072  -9.366  15.981  0.00  0.00    -0.268 OA
BRANCH  26  28
ATOM     28  C   UNL     1      -2.094 -10.383  15.750  0.00  0.00    +0.084 A 
ATOM     29  C   UNL     1      -1.731 -10.561  15.031  0.00  0.00    +0.012 A 
ATOM     30  C   UNL     1      -0.944 -10.757  15.185  0.00  0.00    +0.008 A 
ATOM     31  C   UNL     1      -0.822 -10.700  15.998  0.00  0.00    +0.036 A 
ATOM     32  S   UNL     1      -1.532 -10.469  16.348  0.00  0.00    -0.082 S 
ENDBRANCH  26  28
ENDBRANCH  19  25
TORSDOF 4
ENDMDL
MODEL 9
REMARK VINA RESULT:      -7.1     15.758     16.234
REMARK  Name = 
REMARK  4 active torsions:
REMARK  status: ('A' for Active; 'I' for Inactive)
REMARK    1  A    between atoms: O_2  and  C_3
REMARK    2  A    between atoms: C_4  and  C_10
REMARK    3  A    between atoms: C_19  and  N_25
REMARK    4  A    between atoms: C_26  and  C_28
REMARK                            x       y       z     vdW  Elec       q    Type
REMARK                         _______ _______ _______ _____ _____    ______ ____
ROOT
ATOM     10  C   UNL     1      -9.298  -9.567  15.335  0.00  0.00    +0.003 A 
ATOM     11  C   UNL     1      -8.518  -9.583  15.068  0.00  0.00    +0.006 A 
ATOM     12  C   UNL     1      -8.360  -9.644  14.259  0.00  0.00    +0.069 A 
ATOM     13  C   UNL     1      -8.983  -9.688  13.720  0.00  0.00    +0.078 A 
ATOM     14  N   UNL     1      -8.947  -9.750  12.898  0.00  0.00    -0.178 NA
ATOM     15  C   UNL     1      -8.281  -9.784  12.413  0.00  0.00    +0.264 C 
ATOM     16  O   UNL     1      -8.430  -9.846  11.604  0.00  0.00    -0.271 OA
ATOM     17  C   UNL     1      -7.485  -9.763  12.630  0.00  0.00    +0.156 C 
ATOM     18  C   UNL     1      -6.991  -9.811  11.970  0.00  0.00    +0.051 C 
ATOM     19  C   UNL     1      -6.173  -9.800  12.066  0.00  0.00    +0.100 C 
ATOM     20  C   UNL     1      -5.847  -9.741  12.821  0.00  0.00    +0.043 C 
ATOM     21  C   UNL     1      -6.340  -9.693  13.482  0.00  0.00    +0.096 C 
ATOM     22  N   UNL     1      -7.159  -9.704  13.385  0.00  0.00    -0.269 N 
ATOM     23  C   UNL     1      -7.549  -9.651  14.110  0.00  0.00    +0.251 C 
ATOM     24  O   UNL     1      -7.063  -9.598  14.775  0.00  0.00    -0.270 OA
ATOM     33  C   UNL     1      -9.763  -9.671  13.988  0.00  0.00    +0.017 A 
ATOM     34  C   UNL     1      -9.921  -9.611  14.795  0.00  0.00    +0.001 A 
ENDROOT
BRANCH  10   4
ATOM      3  C   UNL     1      -9.669  -8.779  16.468  0.00  0.00    +0.139 A 
ATOM      4  C   UNL     1      -9.456  -9.506  16.142  0.00  0.00    +0.035 A 
ATOM      5  C   UNL     1      -9.400 -10.174  16.624  0.00  0.00    +0.014 A 
ATOM      6  C   UNL     1      -9.558 -10.114  17.432  0.00  0.00    +0.058 A 
ATOM      7 CL   UNL     1      -9.503 -10.781  17.914  0.00  0.00    -0.082 Cl
ATOM      8  C   UNL     1      -9.771  -9.387  17.757  0.00  0.00    +0.015 A 
ATOM      9  C   UNL     1      -9.827  -8.719  17.275  0.00  0.00    +0.038 A 
BRANCH   3   2
ATOM      1  C   UNL     1      -9.968  -7.392  16.305  0.00  0.00    +0.252 C 
ATOM      2  O   UNL     1      -9.724  -8.112  15.986  0.00  0.00    -0.471 OA
ENDBRANCH   3   2
ENDBRANCH  10   4
BRANCH  19  25
ATOM     25  N   UNL     1      -5.679  -9.847  11.407  0.00  0.00    -0.203 NA
ATOM     26  C   UNL     1      -5.305  -9.168  11.122  0.00  0.00    +0.271 C 
ATOM     27  O   UNL     1      -5.425  -8.443  11.496  0.00  0.00    -0.268 OA
BRANCH  26  28
ATOM     28  C   UNL     1      -4.811  -9.216  10.462  0.00  0.00    +0.084 A 
ATOM     29  C   UNL     1      -4.051  -9.533  10.449  0.00  0.00    +0.012 A 
ATOM     30  C   UNL     1      -3.760  -9.468   9.680  0.00  0.00    +0.008 A 
ATOM     31  C   UNL     1      -4.342  -9.111   9.218  0.00  0.00    +0.036 A 
ATOM     32  S   UNL     1      -4.992  -8.955   9.701  0.00  0.00    -0.082 S 
ENDBRANCH  26  28
ENDBRANCH  19  25
TORSDOF 4
ENDMDL
MODEL 10
REMARK VINA RESULT:      -6.9     16.510     17.206
REMARK  Name = 
REMARK  4 active torsions:
REMARK  status: ('A' for Active; 'I' for Inactive)
REMARK    1  A    between atoms: O_2  and  C_3
REMARK    2  A    between atoms: C_4  and  C_10
REMARK    3  A    between atoms: C_19  and  N_25
REMARK    4  A    between atoms: C_26  and  C_28
REMARK                            x       y       z     vdW  Elec       q    Type
REMARK                         _______ _______ _______ _____ _____    ______ ____
ROOT
ATOM     10  C   UNL     1      -5.702  -9.770   9.893  0.00  0.00    +0.003 A 
ATOM     11  C   UNL     1      -5.577  -9.860  10.703  0.00  0.00    +0.006 A 
ATOM     12  C   UNL     1      -4.823 -10.043  10.986  0.00  0.00    +0.069 A 
ATOM     13  C   UNL     1      -4.196 -10.137  10.458  0.00  0.00    +0.078 A 
ATOM     14  N   UNL     1      -3.408 -10.318  10.623  0.00  0.00    -0.178 NA
ATOM     15  C   UNL     1      -3.053 -10.451  11.356  0.00  0.00    +0.264 C 
ATOM     16  O   UNL     1      -2.246 -10.622  11.337  0.00  0.00    -0.271 OA
ATOM     17  C   UNL     1      -3.398 -10.435  12.105  0.00  0.00    +0.156 C 
ATOM     18  C   UNL     1      -2.845 -10.600  12.695  0.00  0.00    +0.051 C 
ATOM     19  C   UNL     1      -3.078 -10.611  13.486  0.00  0.00    +0.100 C 
ATOM     20  C   UNL     1      -3.863 -10.459  13.688  0.00  0.00    +0.043 C 
ATOM     21  C   UNL     1      -4.417 -10.294  13.098  0.00  0.00    +0.096 C 
ATOM     22  N   UNL     1      -4.183 -10.283  12.306  0.00  0.00    -0.269 N 
ATOM     23  C   UNL     1      -4.818 -10.108  11.808  0.00  0.00    +0.251 C 
ATOM     24  O   UNL     1      -5.542  -9.982  12.182  0.00  0.00    -0.270 OA
ATOM     33  C   UNL     1      -4.322 -10.047   9.648  0.00  0.00    +0.017 A 
ATOM     34  C   UNL     1      -5.075  -9.864   9.365  0.00  0.00    +0.001 A 
ENDROOT
BRANCH  10   4
ATOM      3  C   UNL     1      -6.623  -8.823   9.349  0.00  0.00    +0.139 A 
ATOM      4  C   UNL     1      -6.455  -9.587   9.610  0.00  0.00    +0.035 A 
ATOM      5  C   UNL     1      -7.040 -10.169   9.588  0.00  0.00    +0.014 A 
ATOM      6  C   UNL     1      -7.793  -9.986   9.305  0.00  0.00    +0.058 A 
ATOM      7 CL   UNL     1      -8.378 -10.568   9.284  0.00  0.00    -0.082 Cl
ATOM      8  C   UNL     1      -7.961  -9.222   9.044  0.00  0.00    +0.015 A 
ATOM      9  C   UNL     1      -7.376  -8.640   9.066  0.00  0.00    +0.038 A 
BRANCH   3   2
ATOM      1  C   UNL     1      -6.233  -7.456   9.214  0.00  0.00    +0.252 C 
ATOM      2  O   UNL     1      -6.039  -8.242   9.370  0.00  0.00    -0.471 OA
ENDBRANCH   3   2
ENDBRANCH  10   4
BRANCH  19  25
ATOM     25  N   UNL     1      -2.525 -10.775  14.076  0.00  0.00    -0.203 NA
ATOM     26  C   UNL     1      -2.450 -10.268  14.723  0.00  0.00    +0.271 C 
ATOM     27  O   UNL     1      -2.927  -9.597  14.779  0.00  0.00    -0.268 OA
BRANCH  26  28
ATOM     28  C   UNL     1      -1.897 -10.432  15.314  0.00  0.00    +0.084 A 
ATOM     29  C   UNL     1      -1.078 -10.371  15.240  0.00  0.00    +0.012 A 
ATOM     30  C   UNL     1      -0.741 -10.587  15.962  0.00  0.00    +0.008 A 
ATOM     31  C   UNL     1      -1.352 -10.781  16.480  0.00  0.00    +0.036 A 
ATOM     32  S   UNL     1      -2.066 -10.685  16.080  0.00  0.00    -0.082 S 
ENDBRANCH  26  28
ENDBRANCH  19  25
TORSDOF 4
ENDMDL
