MODEL 1
REMARK VINA RESULT:     -11.7      0.000      0.000
REMARK  Name = 
REMARK  3 active torsions:
REMARK  status: ('A' for Active; 'I' for Inactive)
REMARK    1  A    between atoms: C_2  and  C_3
REMARK    2  A    between atoms: N_15  and  C_16
REMARK    3  A    between atoms: C_16  and  C_17
REMARK                            x       y       z     vdW  Elec       q    Type
REMARK                         _______ _______ _______ _____ _____    ______ ____
ROOT
ATOM      1  O   UNL     1      -0.697   2.298  25.618  0.00  0.00    -0.275 OA
ATOM      2  C   UNL     1      -1.302   2.740  25.271  0.00  0.00    +0.225 C 
ATOM      9  N   UNL     1      -2.024   2.382  25.092  0.00  0.00    -0.276 N 
ATOM     10  C   UNL     1      -2.628   2.824  24.745  0.00  0.00    +0.115 C 
ATOM     11  C   UNL     1      -3.349   2.466  24.566  0.00  0.00    +0.116 C 
ATOM     12  N   UNL     1      -3.467   1.667  24.734  0.00  0.00    -0.261 N 
ATOM     13  C   UNL     1      -2.863   1.225  25.081  0.00  0.00    +0.116 C 
ATOM     14  C   UNL     1      -3.136   0.454  25.182  0.00  0.00    +0.117 C 
ATOM     15  N   UNL     1      -3.909   0.418  24.898  0.00  0.00    -0.258 N 
ATOM     23  C   UNL     1      -4.113   1.168  24.621  0.00  0.00    +0.308 C 
ATOM     24  O   UNL     1      -4.838   1.382  24.289  0.00  0.00    -0.252 OA
ATOM     25  C   UNL     1      -2.140   1.583  25.260  0.00  0.00    +0.115 C 
ENDROOT
BRANCH   2   3
ATOM      3  C   UNL     1      -1.185   3.539  25.103  0.00  0.00    +0.082 C 
ATOM      4  C   UNL     1      -0.694   3.761  24.478  0.00  0.00    +0.041 C 
ATOM      5  C   UNL     1      -0.577   4.560  24.310  0.00  0.00    +0.143 C 
ATOM      6  O   UNL     1      -0.951   5.137  24.766  0.00  0.00    -0.354 OA
ATOM      7  C   UNL     1      -1.442   4.915  25.390  0.00  0.00    +0.143 C 
ATOM      8  C   UNL     1      -1.559   4.116  25.559  0.00  0.00    +0.041 C 
ENDBRANCH   2   3
BRANCH  15  16
ATOM     16  C   UNL     1      -4.394  -0.249  24.892  0.00  0.00    +0.122 C 
BRANCH  16  17
ATOM     17  C   UNL     1      -4.068  -0.995  24.754  0.00  0.00    -0.002 A 
ATOM     18  C   UNL     1      -3.716  -1.412  25.373  0.00  0.00    -0.003 A 
ATOM     19  C   UNL     1      -3.390  -2.157  25.235  0.00  0.00    -0.000 A 
ATOM     20  C   UNL     1      -3.416  -2.485  24.479  0.00  0.00    -0.000 A 
ATOM     21  C   UNL     1      -3.767  -2.068  23.860  0.00  0.00    -0.000 A 
ATOM     22  C   UNL     1      -4.093  -1.323  23.997  0.00  0.00    -0.003 A 
ENDBRANCH  16  17
ENDBRANCH  15  16
TORSDOF 3
ENDMDL
MODEL 2
REMARK VINA RESULT:     -11.6      1.229      5.248
REMARK  Name = 
REMARK  3 active torsions:
REMARK  status: ('A' for Active; 'I' for Inactive)
REMARK    1  A    between atoms: C_2  and  C_3
REMARK    2  A    between atoms: N_15  and  C_16
REMARK    3  A    between atoms: C_16  and  C_17
REMARK                            x       y       z     vdW  Elec       q    Type
REMARK                         _______ _______ _______ _____ _____    ______ ____
ROOT
ATOM      1  O   UNL     1      -4.369   0.042  25.182  0.00  0.00    -0.275 OA
ATOM      2  C   UNL     1      -3.694  -0.368  24.945  0.00  0.00    +0.225 C 
ATOM      9  N   UNL     1      -2.958   0.007  24.958  0.00  0.00    -0.276 N 
ATOM     10  C   UNL     1      -2.282  -0.403  24.721  0.00  0.00    +0.115 C 
ATOM     11  C   UNL     1      -1.548  -0.029  24.735  0.00  0.00    +0.116 C 
ATOM     12  N   UNL     1      -1.488   0.755  24.984  0.00  0.00    -0.261 N 
ATOM     13  C   UNL     1      -2.163   1.165  25.221  0.00  0.00    +0.116 C 
ATOM     14  C   UNL     1      -1.936   1.927  25.439  0.00  0.00    +0.117 C 
ATOM     15  N   UNL     1      -1.120   1.989  25.336  0.00  0.00    -0.258 N 
ATOM     23  C   UNL     1      -0.844   1.264  25.056  0.00  0.00    +0.308 C 
ATOM     24  O   UNL     1      -0.059   1.081  24.878  0.00  0.00    -0.252 OA
ATOM     25  C   UNL     1      -2.899   0.790  25.208  0.00  0.00    +0.115 C 
ENDROOT
BRANCH   2   3
ATOM      3  C   UNL     1      -3.752  -1.152  24.695  0.00  0.00    +0.082 C 
ATOM      4  C   UNL     1      -4.049  -1.324  23.944  0.00  0.00    +0.041 C 
ATOM      5  C   UNL     1      -4.107  -2.108  23.694  0.00  0.00    +0.143 C 
ATOM      6  O   UNL     1      -3.870  -2.720  24.194  0.00  0.00    -0.354 OA
ATOM      7  C   UNL     1      -3.574  -2.547  24.944  0.00  0.00    +0.143 C 
ATOM      8  C   UNL     1      -3.515  -1.764  25.195  0.00  0.00    +0.041 C 
ENDBRANCH   2   3
BRANCH  15  16
ATOM     16  C   UNL     1      -0.662   2.658  25.488  0.00  0.00    +0.122 C 
BRANCH  16  17
ATOM     17  C   UNL     1      -0.970   3.410  25.351  0.00  0.00    -0.002 A 
ATOM     18  C   UNL     1      -1.543   3.720  25.858  0.00  0.00    -0.003 A 
ATOM     19  C   UNL     1      -1.851   4.473  25.720  0.00  0.00    -0.000 A 
ATOM     20  C   UNL     1      -1.587   4.915  25.076  0.00  0.00    -0.000 A 
ATOM     21  C   UNL     1      -1.015   4.605  24.569  0.00  0.00    -0.000 A 
ATOM     22  C   UNL     1      -0.707   3.853  24.706  0.00  0.00    -0.003 A 
ENDBRANCH  16  17
ENDBRANCH  15  16
TORSDOF 3
ENDMDL
MODEL 3
REMARK VINA RESULT:     -11.6      1.652      5.012
REMARK  Name = 
REMARK  3 active torsions:
REMARK  status: ('A' for Active; 'I' for Inactive)
REMARK    1  A    between atoms: C_2  and  C_3
REMARK    2  A    between atoms: N_15  and  C_16
REMARK    3  A    between atoms: C_16  and  C_17
REMARK                            x       y       z     vdW  Elec       q    Type
REMARK                         _______ _______ _______ _____ _____    ______ ____
ROOT
ATOM      1  O   UNL     1      -2.071  -0.776  24.264  0.00  0.00    -0.275 OA
ATOM      2  C   UNL     1      -2.872  -0.844  24.451  0.00  0.00    +0.225 C 
ATOM      9  N   UNL     1      -3.325  -0.166  24.582  0.00  0.00    -0.276 N 
ATOM     10  C   UNL     1      -4.125  -0.235  24.769  0.00  0.00    +0.115 C 
ATOM     11  C   UNL     1      -4.577   0.442  24.900  0.00  0.00    +0.116 C 
ATOM     12  N   UNL     1      -4.230   1.188  24.844  0.00  0.00    -0.261 N 
ATOM     13  C   UNL     1      -3.429   1.257  24.658  0.00  0.00    +0.116 C 
ATOM     14  C   UNL     1      -3.239   2.059  24.641  0.00  0.00    +0.117 C 
ATOM     15  N   UNL     1      -3.921   2.486  24.818  0.00  0.00    -0.258 N 
ATOM     23  C   UNL     1      -4.533   1.948  24.943  0.00  0.00    +0.308 C 
ATOM     24  O   UNL     1      -5.314   2.137  25.135  0.00  0.00    -0.252 OA
ATOM     25  C   UNL     1      -2.976   0.579  24.526  0.00  0.00    +0.115 C 
ENDROOT
BRANCH   2   3
ATOM      3  C   UNL     1      -3.220  -1.590  24.507  0.00  0.00    +0.082 C 
ATOM      4  C   UNL     1      -3.120  -2.041  25.191  0.00  0.00    +0.041 C 
ATOM      5  C   UNL     1      -3.469  -2.787  25.246  0.00  0.00    +0.143 C 
ATOM      6  O   UNL     1      -3.917  -3.081  24.619  0.00  0.00    -0.354 OA
ATOM      7  C   UNL     1      -4.017  -2.630  23.937  0.00  0.00    +0.143 C 
ATOM      8  C   UNL     1      -3.669  -1.884  23.880  0.00  0.00    +0.041 C 
ENDBRANCH   2   3
BRANCH  15  16
ATOM     16  C   UNL     1      -3.982   3.308  24.862  0.00  0.00    +0.122 C 
BRANCH  16  17
ATOM     17  C   UNL     1      -3.356   3.753  25.163  0.00  0.00    -0.002 A 
ATOM     18  C   UNL     1      -3.300   3.891  25.974  0.00  0.00    -0.003 A 
ATOM     19  C   UNL     1      -2.673   4.336  26.275  0.00  0.00    -0.000 A 
ATOM     20  C   UNL     1      -2.103   4.642  25.765  0.00  0.00    -0.000 A 
ATOM     21  C   UNL     1      -2.158   4.504  24.953  0.00  0.00    -0.000 A 
ATOM     22  C   UNL     1      -2.784   4.059  24.652  0.00  0.00    -0.003 A 
ENDBRANCH  16  17
ENDBRANCH  15  16
TORSDOF 3
ENDMDL
MODEL 4
REMARK VINA RESULT:      -8.6     15.690     18.547
REMARK  Name = 
REMARK  3 active torsions:
REMARK  status: ('A' for Active; 'I' for Inactive)
REMARK    1  A    between atoms: C_2  and  C_3
REMARK    2  A    between atoms: N_15  and  C_16
REMARK    3  A    between atoms: C_16  and  C_17
REMARK                            x       y       z     vdW  Elec       q    Type
REMARK                         _______ _______ _______ _____ _____    ______ ____
ROOT
ATOM      1  O   UNL     1      11.800   6.529  19.851  0.00  0.00    -0.275 OA
ATOM      2  C   UNL     1      11.958   6.921  20.559  0.00  0.00    +0.225 C 
ATOM      9  N   UNL     1      12.729   7.157  20.737  0.00  0.00    -0.276 N 
ATOM     10  C   UNL     1      12.888   7.549  21.445  0.00  0.00    +0.115 C 
ATOM     11  C   UNL     1      13.658   7.784  21.623  0.00  0.00    +0.116 C 
ATOM     12  N   UNL     1      14.270   7.628  21.093  0.00  0.00    -0.261 N 
ATOM     13  C   UNL     1      14.112   7.235  20.384  0.00  0.00    +0.116 C 
ATOM     14  C   UNL     1      14.821   7.157  19.972  0.00  0.00    +0.117 C 
ATOM     15  N   UNL     1      15.419   7.501  20.425  0.00  0.00    -0.258 N 
ATOM     23  C   UNL     1      15.078   7.791  21.117  0.00  0.00    +0.308 C 
ATOM     24  O   UNL     1      15.475   8.178  21.728  0.00  0.00    -0.252 OA
ATOM     25  C   UNL     1      13.341   7.000  20.206  0.00  0.00    +0.115 C 
ENDROOT
BRANCH   2   3
ATOM      3  C   UNL     1      11.347   7.079  21.090  0.00  0.00    +0.082 C 
ATOM      4  C   UNL     1      11.090   6.490  21.609  0.00  0.00    +0.041 C 
ATOM      5  C   UNL     1      10.478   6.647  22.140  0.00  0.00    +0.143 C 
ATOM      6  O   UNL     1      10.124   7.392  22.152  0.00  0.00    -0.354 OA
ATOM      7  C   UNL     1      10.381   7.980  21.634  0.00  0.00    +0.143 C 
ATOM      8  C   UNL     1      10.992   7.824  21.103  0.00  0.00    +0.041 C 
ENDBRANCH   2   3
BRANCH  15  16
ATOM     16  C   UNL     1      16.217   7.546  20.221  0.00  0.00    +0.122 C 
BRANCH  16  17
ATOM     17  C   UNL     1      16.606   6.881  19.925  0.00  0.00    -0.002 A 
ATOM     18  C   UNL     1      16.585   6.716  19.117  0.00  0.00    -0.003 A 
ATOM     19  C   UNL     1      16.975   6.051  18.823  0.00  0.00    -0.000 A 
ATOM     20  C   UNL     1      17.385   5.552  19.335  0.00  0.00    -0.000 A 
ATOM     21  C   UNL     1      17.405   5.717  20.143  0.00  0.00    -0.000 A 
ATOM     22  C   UNL     1      17.016   6.382  20.439  0.00  0.00    -0.003 A 
ENDBRANCH  16  17
ENDBRANCH  15  16
TORSDOF 3
ENDMDL
MODEL 5
REMARK VINA RESULT:      -7.9     15.508     18.231
REMARK  Name = 
REMARK  3 active torsions:
REMARK  status: ('A' for Active; 'I' for Inactive)
REMARK    1  A    between atoms: C_2  and  C_3
REMARK    2  A    between atoms: N_15  and  C_16
REMARK    3  A    between atoms: C_16  and  C_17
REMARK                            x       y       z     vdW  Elec       q    Type
REMARK                         _______ _______ _______ _____ _____    ______ ____
ROOT
ATOM      1  O   UNL     1      15.757   7.726  21.499  0.00  0.00    -0.275 OA
ATOM      2  C   UNL     1      15.591   7.285  20.822  0.00  0.00    +0.225 C 
ATOM      9  N   UNL     1      14.822   7.260  20.523  0.00  0.00    -0.276 N 
ATOM     10  C   UNL     1      14.656   6.819  19.846  0.00  0.00    +0.115 C 
ATOM     11  C   UNL     1      13.887   6.795  19.548  0.00  0.00    +0.116 C 
ATOM     12  N   UNL     1      13.284   7.212  19.927  0.00  0.00    -0.261 N 
ATOM     13  C   UNL     1      13.450   7.653  20.604  0.00  0.00    +0.116 C 
ATOM     14  C   UNL     1      12.749   8.005  20.857  0.00  0.00    +0.117 C 
ATOM     15  N   UNL     1      12.149   7.782  20.337  0.00  0.00    -0.258 N 
ATOM     23  C   UNL     1      12.480   7.292  19.763  0.00  0.00    +0.308 C 
ATOM     24  O   UNL     1      12.078   6.942  19.133  0.00  0.00    -0.252 OA
ATOM     25  C   UNL     1      14.220   7.677  20.902  0.00  0.00    +0.115 C 
ENDROOT
BRANCH   2   3
ATOM      3  C   UNL     1      16.193   6.867  20.442  0.00  0.00    +0.082 C 
ATOM      4  C   UNL     1      16.385   6.104  20.691  0.00  0.00    +0.041 C 
ATOM      5  C   UNL     1      16.987   5.687  20.312  0.00  0.00    +0.143 C 
ATOM      6  O   UNL     1      17.398   6.032  19.685  0.00  0.00    -0.354 OA
ATOM      7  C   UNL     1      17.206   6.794  19.437  0.00  0.00    +0.143 C 
ATOM      8  C   UNL     1      16.604   7.213  19.815  0.00  0.00    +0.041 C 
ENDBRANCH   2   3
BRANCH  15  16
ATOM     16  C   UNL     1      11.357   8.009  20.384  0.00  0.00    +0.122 C 
BRANCH  16  17
ATOM     17  C   UNL     1      11.007   8.137  21.120  0.00  0.00    -0.002 A 
ATOM     18  C   UNL     1      10.990   8.896  21.443  0.00  0.00    -0.003 A 
ATOM     19  C   UNL     1      10.639   9.022  22.179  0.00  0.00    -0.000 A 
ATOM     20  C   UNL     1      10.306   8.391  22.591  0.00  0.00    -0.000 A 
ATOM     21  C   UNL     1      10.323   7.632  22.268  0.00  0.00    -0.000 A 
ATOM     22  C   UNL     1      10.673   7.504  21.533  0.00  0.00    -0.003 A 
ENDBRANCH  16  17
ENDBRANCH  15  16
TORSDOF 3
ENDMDL
