MODEL 1
REMARK VINA RESULT:      -9.2      0.000      0.000
REMARK  Name = 
REMARK  2 active torsions:
REMARK  status: ('A' for Active; 'I' for Inactive)
REMARK    1  A    between atoms: C_14  and  O_16
REMARK    2  A    between atoms: O_16  and  C_17
REMARK                            x       y       z     vdW  Elec       q    Type
REMARK                         _______ _______ _______ _____ _____    ______ ____
ROOT
ATOM      1  O   UNL     1      -1.768   1.046  23.791  0.00  0.00    -0.252 OA
ATOM      2  C   UNL     1      -1.956   0.406  24.277  0.00  0.00    +0.307 C 
ATOM      3  N   UNL     1      -1.377  -0.149  24.471  0.00  0.00    -0.259 N 
ATOM      4  C   UNL     1      -0.611  -0.066  24.179  0.00  0.00    +0.127 C 
ATOM      5  C   UNL     1      -0.033  -0.621  24.372  0.00  0.00    +0.164 C 
ATOM      6  O   UNL     1      -0.221  -1.261  24.858  0.00  0.00    -0.350 OA
ATOM      7  C   UNL     1      -0.988  -1.344  25.151  0.00  0.00    +0.164 C 
ATOM      8  C   UNL     1      -1.566  -0.789  24.958  0.00  0.00    +0.127 C 
ATOM      9  N   UNL     1      -2.723   0.323  24.570  0.00  0.00    -0.258 N 
ATOM     10  C   UNL     1      -2.852  -0.335  25.051  0.00  0.00    +0.127 C 
ATOM     11  C   UNL     1      -3.550  -0.571  25.424  0.00  0.00    +0.164 C 
ATOM     12  O   UNL     1      -4.290  -0.206  25.408  0.00  0.00    -0.348 OA
ATOM     13  C   UNL     1      -4.515   0.484  25.016  0.00  0.00    +0.187 C 
ATOM     14  C   UNL     1      -4.056   0.979  24.542  0.00  0.00    +0.217 C 
ATOM     15  C   UNL     1      -3.258   0.908  24.344  0.00  0.00    +0.141 C 
ENDROOT
BRANCH  14  16
ATOM     16  O   UNL     1      -4.446   1.634  24.225  0.00  0.00    -0.459 OA
BRANCH  16  17
ATOM     17  C   UNL     1      -4.690   2.248  24.719  0.00  0.00    +0.245 A 
ATOM     18  C   UNL     1      -5.458   2.252  25.023  0.00  0.00    +0.156 A 
ATOM     19  N   UNL     1      -5.701   2.865  25.517  0.00  0.00    -0.236 NA
ATOM     20  C   UNL     1      -5.178   3.474  25.708  0.00  0.00    +0.120 A 
ATOM     21  C   UNL     1      -4.412   3.470  25.405  0.00  0.00    +0.123 A 
ATOM     22  N   UNL     1      -4.168   2.857  24.910  0.00  0.00    -0.207 NA
ENDBRANCH  16  17
ENDBRANCH  14  16
TORSDOF 2
ENDMDL
MODEL 2
REMARK VINA RESULT:      -9.1      1.309      2.040
REMARK  Name = 
REMARK  2 active torsions:
REMARK  status: ('A' for Active; 'I' for Inactive)
REMARK    1  A    between atoms: C_14  and  O_16
REMARK    2  A    between atoms: O_16  and  C_17
REMARK                            x       y       z     vdW  Elec       q    Type
REMARK                         _______ _______ _______ _____ _____    ______ ____
ROOT
ATOM      1  O   UNL     1      -4.602  -0.670  23.942  0.00  0.00    -0.252 OA
ATOM      2  C   UNL     1      -3.824  -0.674  24.216  0.00  0.00    +0.307 C 
ATOM      3  N   UNL     1      -3.445  -1.389  24.373  0.00  0.00    -0.259 N 
ATOM      4  C   UNL     1      -3.843  -2.102  24.257  0.00  0.00    +0.127 C 
ATOM      5  C   UNL     1      -3.465  -2.817  24.414  0.00  0.00    +0.164 C 
ATOM      6  O   UNL     1      -2.687  -2.820  24.688  0.00  0.00    -0.350 OA
ATOM      7  C   UNL     1      -2.287  -2.107  24.805  0.00  0.00    +0.164 C 
ATOM      8  C   UNL     1      -2.666  -1.392  24.648  0.00  0.00    +0.127 C 
ATOM      9  N   UNL     1      -3.425   0.040  24.333  0.00  0.00    -0.258 N 
ATOM     10  C   UNL     1      -2.650  -0.025  24.608  0.00  0.00    +0.127 C 
ATOM     11  C   UNL     1      -2.112   0.577  24.778  0.00  0.00    +0.164 C 
ATOM     12  O   UNL     1      -2.217   1.393  24.714  0.00  0.00    -0.348 OA
ATOM     13  C   UNL     1      -2.885   1.808  24.465  0.00  0.00    +0.187 C 
ATOM     14  C   UNL     1      -3.613   1.509  24.218  0.00  0.00    +0.217 C 
ATOM     15  C   UNL     1      -3.854   0.722  24.160  0.00  0.00    +0.141 C 
ENDROOT
BRANCH  14  16
ATOM     16  O   UNL     1      -4.176   2.073  24.001  0.00  0.00    -0.459 OA
BRANCH  16  17
ATOM     17  C   UNL     1      -4.538   2.537  24.580  0.00  0.00    +0.245 A 
ATOM     18  C   UNL     1      -4.244   3.289  24.749  0.00  0.00    +0.156 A 
ATOM     19  N   UNL     1      -4.605   3.753  25.327  0.00  0.00    -0.236 NA
ATOM     20  C   UNL     1      -5.261   3.465  25.736  0.00  0.00    +0.120 A 
ATOM     21  C   UNL     1      -5.555   2.714  25.568  0.00  0.00    +0.123 A 
ATOM     22  N   UNL     1      -5.194   2.250  24.990  0.00  0.00    -0.207 NA
ENDBRANCH  16  17
ENDBRANCH  14  16
TORSDOF 2
ENDMDL
MODEL 3
REMARK VINA RESULT:      -8.8      1.976      3.740
REMARK  Name = 
REMARK  2 active torsions:
REMARK  status: ('A' for Active; 'I' for Inactive)
REMARK    1  A    between atoms: C_14  and  O_16
REMARK    2  A    between atoms: O_16  and  C_17
REMARK                            x       y       z     vdW  Elec       q    Type
REMARK                         _______ _______ _______ _____ _____    ______ ____
ROOT
ATOM      1  O   UNL     1      -1.343   2.256  24.083  0.00  0.00    -0.252 OA
ATOM      2  C   UNL     1      -1.952   2.660  24.466  0.00  0.00    +0.307 C 
ATOM      3  N   UNL     1      -1.814   3.409  24.784  0.00  0.00    -0.259 N 
ATOM      4  C   UNL     1      -1.068   3.755  24.720  0.00  0.00    +0.127 C 
ATOM      5  C   UNL     1      -0.931   4.502  25.037  0.00  0.00    +0.164 C 
ATOM      6  O   UNL     1      -1.539   4.907  25.420  0.00  0.00    -0.350 OA
ATOM      7  C   UNL     1      -2.286   4.561  25.485  0.00  0.00    +0.164 C 
ATOM      8  C   UNL     1      -2.424   3.813  25.168  0.00  0.00    +0.127 C 
ATOM      9  N   UNL     1      -2.699   2.315  24.531  0.00  0.00    -0.258 N 
ATOM     10  C   UNL     1      -3.267   2.765  24.924  0.00  0.00    +0.127 C 
ATOM     11  C   UNL     1      -4.056   2.577  25.078  0.00  0.00    +0.164 C 
ATOM     12  O   UNL     1      -4.470   1.892  24.876  0.00  0.00    -0.348 OA
ATOM     13  C   UNL     1      -4.198   1.227  24.472  0.00  0.00    +0.187 C 
ATOM     14  C   UNL     1      -3.444   1.082  24.168  0.00  0.00    +0.217 C 
ATOM     15  C   UNL     1      -2.777   1.566  24.195  0.00  0.00    +0.141 C 
ENDROOT
BRANCH  14  16
ATOM     16  O   UNL     1      -3.345   0.356  23.788  0.00  0.00    -0.459 OA
BRANCH  16  17
ATOM     17  C   UNL     1      -3.394  -0.345  24.221  0.00  0.00    +0.245 A 
ATOM     18  C   UNL     1      -4.076  -0.808  24.179  0.00  0.00    +0.156 A 
ATOM     19  N   UNL     1      -4.125  -1.509  24.611  0.00  0.00    -0.236 NA
ATOM     20  C   UNL     1      -3.492  -1.747  25.084  0.00  0.00    +0.120 A 
ATOM     21  C   UNL     1      -2.811  -1.285  25.125  0.00  0.00    +0.123 A 
ATOM     22  N   UNL     1      -2.762  -0.584  24.693  0.00  0.00    -0.207 NA
ENDBRANCH  16  17
ENDBRANCH  14  16
TORSDOF 2
ENDMDL
MODEL 4
REMARK VINA RESULT:      -8.7      1.642      4.202
REMARK  Name = 
REMARK  2 active torsions:
REMARK  status: ('A' for Active; 'I' for Inactive)
REMARK    1  A    between atoms: C_14  and  O_16
REMARK    2  A    between atoms: O_16  and  C_17
REMARK                            x       y       z     vdW  Elec       q    Type
REMARK                         _______ _______ _______ _____ _____    ______ ____
ROOT
ATOM      1  O   UNL     1      -4.835   1.507  25.142  0.00  0.00    -0.252 OA
ATOM      2  C   UNL     1      -4.047   1.699  24.990  0.00  0.00    +0.307 C 
ATOM      3  N   UNL     1      -3.840   2.476  24.804  0.00  0.00    -0.259 N 
ATOM      4  C   UNL     1      -4.421   3.061  24.770  0.00  0.00    +0.127 C 
ATOM      5  C   UNL     1      -4.214   3.837  24.585  0.00  0.00    +0.164 C 
ATOM      6  O   UNL     1      -3.427   4.029  24.432  0.00  0.00    -0.350 OA
ATOM      7  C   UNL     1      -2.845   3.444  24.466  0.00  0.00    +0.164 C 
ATOM      8  C   UNL     1      -3.052   2.668  24.652  0.00  0.00    +0.127 C 
ATOM      9  N   UNL     1      -3.466   1.114  25.024  0.00  0.00    -0.258 N 
ATOM     10  C   UNL     1      -2.697   1.364  24.862  0.00  0.00    +0.127 C 
ATOM     11  C   UNL     1      -2.002   0.919  24.852  0.00  0.00    +0.164 C 
ATOM     12  O   UNL     1      -1.907   0.113  25.000  0.00  0.00    -0.348 OA
ATOM     13  C   UNL     1      -2.480  -0.446  25.195  0.00  0.00    +0.187 C 
ATOM     14  C   UNL     1      -3.293  -0.337  25.290  0.00  0.00    +0.217 C 
ATOM     15  C   UNL     1      -3.732   0.357  25.214  0.00  0.00    +0.141 C 
ENDROOT
BRANCH  14  16
ATOM     16  O   UNL     1      -3.723  -1.013  25.488  0.00  0.00    -0.459 OA
BRANCH  16  17
ATOM     17  C   UNL     1      -3.773  -1.641  24.954  0.00  0.00    +0.245 A 
ATOM     18  C   UNL     1      -3.365  -2.343  25.105  0.00  0.00    +0.156 A 
ATOM     19  N   UNL     1      -3.414  -2.970  24.572  0.00  0.00    -0.236 NA
ATOM     20  C   UNL     1      -3.871  -2.896  23.888  0.00  0.00    +0.120 A 
ATOM     21  C   UNL     1      -4.278  -2.195  23.738  0.00  0.00    +0.123 A 
ATOM     22  N   UNL     1      -4.229  -1.568  24.271  0.00  0.00    -0.207 NA
ENDBRANCH  16  17
ENDBRANCH  14  16
TORSDOF 2
ENDMDL
MODEL 5
REMARK VINA RESULT:      -8.7      1.873      2.456
REMARK  Name = 
REMARK  2 active torsions:
REMARK  status: ('A' for Active; 'I' for Inactive)
REMARK    1  A    between atoms: C_14  and  O_16
REMARK    2  A    between atoms: O_16  and  C_17
REMARK                            x       y       z     vdW  Elec       q    Type
REMARK                         _______ _______ _______ _____ _____    ______ ____
ROOT
ATOM      1  O   UNL     1      -2.329   1.337  23.502  0.00  0.00    -0.252 OA
ATOM      2  C   UNL     1      -1.833   1.816  23.955  0.00  0.00    +0.307 C 
ATOM      3  N   UNL     1      -1.032   1.632  24.025  0.00  0.00    -0.259 N 
ATOM      4  C   UNL     1      -0.725   0.969  23.642  0.00  0.00    +0.127 C 
ATOM      5  C   UNL     1       0.075   0.785  23.712  0.00  0.00    +0.164 C 
ATOM      6  O   UNL     1       0.571   1.264  24.165  0.00  0.00    -0.350 OA
ATOM      7  C   UNL     1       0.265   1.928  24.548  0.00  0.00    +0.164 C 
ATOM      8  C   UNL     1      -0.536   2.112  24.478  0.00  0.00    +0.127 C 
ATOM      9  N   UNL     1      -2.139   2.480  24.338  0.00  0.00    -0.258 N 
ATOM     10  C   UNL     1      -1.597   2.921  24.776  0.00  0.00    +0.127 C 
ATOM     11  C   UNL     1      -1.728   3.606  25.218  0.00  0.00    +0.164 C 
ATOM     12  O   UNL     1      -2.434   4.018  25.329  0.00  0.00    -0.348 OA
ATOM     13  C   UNL     1      -3.182   3.848  25.027  0.00  0.00    +0.187 C 
ATOM     14  C   UNL     1      -3.410   3.223  24.539  0.00  0.00    +0.217 C 
ATOM     15  C   UNL     1      -2.945   2.614  24.233  0.00  0.00    +0.141 C 
ENDROOT
BRANCH  14  16
ATOM     16  O   UNL     1      -4.208   3.205  24.330  0.00  0.00    -0.459 OA
BRANCH  16  17
ATOM     17  C   UNL     1      -4.767   2.913  24.863  0.00  0.00    +0.245 A 
ATOM     18  C   UNL     1      -5.082   3.410  25.442  0.00  0.00    +0.156 A 
ATOM     19  N   UNL     1      -5.640   3.120  25.975  0.00  0.00    -0.236 NA
ATOM     20  C   UNL     1      -5.884   2.333  25.930  0.00  0.00    +0.120 A 
ATOM     21  C   UNL     1      -5.569   1.836  25.351  0.00  0.00    +0.123 A 
ATOM     22  N   UNL     1      -5.011   2.127  24.818  0.00  0.00    -0.207 NA
ENDBRANCH  16  17
ENDBRANCH  14  16
TORSDOF 2
ENDMDL
MODEL 6
REMARK VINA RESULT:      -8.7      2.322      3.698
REMARK  Name = 
REMARK  2 active torsions:
REMARK  status: ('A' for Active; 'I' for Inactive)
REMARK    1  A    between atoms: C_14  and  O_16
REMARK    2  A    between atoms: O_16  and  C_17
REMARK                            x       y       z     vdW  Elec       q    Type
REMARK                         _______ _______ _______ _____ _____    ______ ____
ROOT
ATOM      1  O   UNL     1      -2.410   1.510  25.150  0.00  0.00    -0.252 OA
ATOM      2  C   UNL     1      -1.659   1.233  24.950  0.00  0.00    +0.307 C 
ATOM      3  N   UNL     1      -1.066   1.765  24.737  0.00  0.00    -0.259 N 
ATOM      4  C   UNL     1      -1.223   2.575  24.723  0.00  0.00    +0.127 C 
ATOM      5  C   UNL     1      -0.631   3.107  24.509  0.00  0.00    +0.164 C 
ATOM      6  O   UNL     1       0.120   2.830  24.309  0.00  0.00    -0.350 OA
ATOM      7  C   UNL     1       0.278   2.019  24.323  0.00  0.00    +0.164 C 
ATOM      8  C   UNL     1      -0.315   1.488  24.537  0.00  0.00    +0.127 C 
ATOM      9  N   UNL     1      -1.501   0.423  24.964  0.00  0.00    -0.258 N 
ATOM     10  C   UNL     1      -0.734   0.205  24.755  0.00  0.00    +0.127 C 
ATOM     11  C   UNL     1      -0.407  -0.552  24.716  0.00  0.00    +0.164 C 
ATOM     12  O   UNL     1      -0.768  -1.277  24.875  0.00  0.00    -0.348 OA
ATOM     13  C   UNL     1      -1.543  -1.424  25.114  0.00  0.00    +0.187 C 
ATOM     14  C   UNL     1      -2.151  -0.882  25.252  0.00  0.00    +0.217 C 
ATOM     15  C   UNL     1      -2.132  -0.060  25.185  0.00  0.00    +0.141 C 
ENDROOT
BRANCH  14  16
ATOM     16  O   UNL     1      -2.872  -1.206  25.488  0.00  0.00    -0.459 OA
BRANCH  16  17
ATOM     17  C   UNL     1      -3.328  -1.634  24.948  0.00  0.00    +0.245 A 
ATOM     18  C   UNL     1      -3.281  -2.458  24.932  0.00  0.00    +0.156 A 
ATOM     19  N   UNL     1      -3.736  -2.886  24.393  0.00  0.00    -0.236 NA
ATOM     20  C   UNL     1      -4.237  -2.490  23.871  0.00  0.00    +0.120 A 
ATOM     21  C   UNL     1      -4.283  -1.667  23.887  0.00  0.00    +0.123 A 
ATOM     22  N   UNL     1      -3.828  -1.239  24.426  0.00  0.00    -0.207 NA
ENDBRANCH  16  17
ENDBRANCH  14  16
TORSDOF 2
ENDMDL
MODEL 7
REMARK VINA RESULT:      -8.6      1.111      4.588
REMARK  Name = 
REMARK  2 active torsions:
REMARK  status: ('A' for Active; 'I' for Inactive)
REMARK    1  A    between atoms: C_14  and  O_16
REMARK    2  A    between atoms: O_16  and  C_17
REMARK                            x       y       z     vdW  Elec       q    Type
REMARK                         _______ _______ _______ _____ _____    ______ ____
ROOT
ATOM      1  O   UNL     1      -4.543   0.873  24.614  0.00  0.00    -0.252 OA
ATOM      2  C   UNL     1      -4.178   1.589  24.795  0.00  0.00    +0.307 C 
ATOM      3  N   UNL     1      -4.623   2.218  25.090  0.00  0.00    -0.259 N 
ATOM      4  C   UNL     1      -5.436   2.130  25.205  0.00  0.00    +0.127 C 
ATOM      5  C   UNL     1      -5.881   2.757  25.500  0.00  0.00    +0.164 C 
ATOM      6  O   UNL     1      -5.515   3.474  25.681  0.00  0.00    -0.350 OA
ATOM      7  C   UNL     1      -4.702   3.563  25.566  0.00  0.00    +0.164 C 
ATOM      8  C   UNL     1      -4.257   2.935  25.271  0.00  0.00    +0.127 C 
ATOM      9  N   UNL     1      -3.365   1.678  24.680  0.00  0.00    -0.258 N 
ATOM     10  C   UNL     1      -3.054   2.416  24.878  0.00  0.00    +0.127 C 
ATOM     11  C   UNL     1      -2.272   2.675  24.828  0.00  0.00    +0.164 C 
ATOM     12  O   UNL     1      -1.609   2.260  24.567  0.00  0.00    -0.348 OA
ATOM     13  C   UNL     1      -1.563   1.484  24.292  0.00  0.00    +0.187 C 
ATOM     14  C   UNL     1      -2.170   0.931  24.210  0.00  0.00    +0.217 C 
ATOM     15  C   UNL     1      -2.972   1.017  24.383  0.00  0.00    +0.141 C 
ENDROOT
BRANCH  14  16
ATOM     16  O   UNL     1      -1.944   0.193  23.917  0.00  0.00    -0.459 OA
BRANCH  16  17
ATOM     17  C   UNL     1      -1.493  -0.316  24.385  0.00  0.00    +0.245 A 
ATOM     18  C   UNL     1      -0.675  -0.356  24.280  0.00  0.00    +0.156 A 
ATOM     19  N   UNL     1      -0.225  -0.865  24.748  0.00  0.00    -0.236 NA
ATOM     20  C   UNL     1      -0.591  -1.333  25.319  0.00  0.00    +0.120 A 
ATOM     21  C   UNL     1      -1.408  -1.294  25.423  0.00  0.00    +0.123 A 
ATOM     22  N   UNL     1      -1.859  -0.785  24.956  0.00  0.00    -0.207 NA
ENDBRANCH  16  17
ENDBRANCH  14  16
TORSDOF 2
ENDMDL
MODEL 8
REMARK VINA RESULT:      -8.0     15.893     17.731
REMARK  Name = 
REMARK  2 active torsions:
REMARK  status: ('A' for Active; 'I' for Inactive)
REMARK    1  A    between atoms: C_14  and  O_16
REMARK    2  A    between atoms: O_16  and  C_17
REMARK                            x       y       z     vdW  Elec       q    Type
REMARK                         _______ _______ _______ _____ _____    ______ ____
ROOT
ATOM      1  O   UNL     1      10.824   8.574  20.159  0.00  0.00    -0.252 OA
ATOM      2  C   UNL     1      11.316   7.911  20.156  0.00  0.00    +0.307 C 
ATOM      3  N   UNL     1      11.268   7.359  20.767  0.00  0.00    -0.259 N 
ATOM      4  C   UNL     1      10.728   7.468  21.381  0.00  0.00    +0.127 C 
ATOM      5  C   UNL     1      10.681   6.917  21.992  0.00  0.00    +0.164 C 
ATOM      6  O   UNL     1      11.172   6.254  21.989  0.00  0.00    -0.350 OA
ATOM      7  C   UNL     1      11.712   6.144  21.374  0.00  0.00    +0.164 C 
ATOM      8  C   UNL     1      11.760   6.696  20.764  0.00  0.00    +0.127 C 
ATOM      9  N   UNL     1      11.856   7.801  19.541  0.00  0.00    -0.258 N 
ATOM     10  C   UNL     1      12.320   7.122  19.591  0.00  0.00    +0.127 C 
ATOM     11  C   UNL     1      12.904   6.858  19.070  0.00  0.00    +0.164 C 
ATOM     12  O   UNL     1      13.166   7.210  18.371  0.00  0.00    -0.348 OA
ATOM     13  C   UNL     1      12.910   7.910  18.021  0.00  0.00    +0.187 C 
ATOM     14  C   UNL     1      12.328   8.434  18.282  0.00  0.00    +0.217 C 
ATOM     15  C   UNL     1      11.858   8.385  18.959  0.00  0.00    +0.141 C 
ENDROOT
BRANCH  14  16
ATOM     16  O   UNL     1      12.198   9.093  17.803  0.00  0.00    -0.459 OA
BRANCH  16  17
ATOM     17  C   UNL     1      11.826   9.004  17.072  0.00  0.00    +0.245 A 
ATOM     18  C   UNL     1      12.260   9.093  16.375  0.00  0.00    +0.156 A 
ATOM     19  N   UNL     1      11.888   9.004  15.644  0.00  0.00    -0.236 NA
ATOM     20  C   UNL     1      11.083   8.826  15.610  0.00  0.00    +0.120 A 
ATOM     21  C   UNL     1      10.650   8.737  16.306  0.00  0.00    +0.123 A 
ATOM     22  N   UNL     1      11.022   8.826  17.036  0.00  0.00    -0.207 NA
ENDBRANCH  16  17
ENDBRANCH  14  16
TORSDOF 2
ENDMDL
MODEL 9
REMARK VINA RESULT:      -8.0     17.088     19.365
REMARK  Name = 
REMARK  2 active torsions:
REMARK  status: ('A' for Active; 'I' for Inactive)
REMARK    1  A    between atoms: C_14  and  O_16
REMARK    2  A    between atoms: O_16  and  C_17
REMARK                            x       y       z     vdW  Elec       q    Type
REMARK                         _______ _______ _______ _____ _____    ______ ____
ROOT
ATOM      1  O   UNL     1      12.742   6.602  20.969  0.00  0.00    -0.252 OA
ATOM      2  C   UNL     1      12.678   7.180  20.384  0.00  0.00    +0.307 C 
ATOM      3  N   UNL     1      12.001   7.649  20.339  0.00  0.00    -0.259 N 
ATOM      4  C   UNL     1      11.387   7.540  20.879  0.00  0.00    +0.127 C 
ATOM      5  C   UNL     1      10.711   8.009  20.834  0.00  0.00    +0.164 C 
ATOM      6  O   UNL     1      10.646   8.587  20.249  0.00  0.00    -0.350 OA
ATOM      7  C   UNL     1      11.261   8.695  19.708  0.00  0.00    +0.164 C 
ATOM      8  C   UNL     1      11.937   8.227  19.753  0.00  0.00    +0.127 C 
ATOM      9  N   UNL     1      13.293   7.289  19.843  0.00  0.00    -0.258 N 
ATOM     10  C   UNL     1      13.173   7.880  19.281  0.00  0.00    +0.127 C 
ATOM     11  C   UNL     1      13.676   8.121  18.673  0.00  0.00    +0.164 C 
ATOM     12  O   UNL     1      14.423   7.830  18.478  0.00  0.00    -0.348 OA
ATOM     13  C   UNL     1      14.850   7.226  18.841  0.00  0.00    +0.187 C 
ATOM     14  C   UNL     1      14.637   6.764  19.491  0.00  0.00    +0.217 C 
ATOM     15  C   UNL     1      13.944   6.792  19.937  0.00  0.00    +0.141 C 
ENDROOT
BRANCH  14  16
ATOM     16  O   UNL     1      15.191   6.198  19.725  0.00  0.00    -0.459 OA
BRANCH  16  17
ATOM     17  C   UNL     1      15.923   6.438  20.022  0.00  0.00    +0.245 A 
ATOM     18  C   UNL     1      16.585   6.446  19.529  0.00  0.00    +0.156 A 
ATOM     19  N   UNL     1      17.317   6.685  19.825  0.00  0.00    -0.236 NA
ATOM     20  C   UNL     1      17.387   6.916  20.614  0.00  0.00    +0.120 A 
ATOM     21  C   UNL     1      16.725   6.907  21.107  0.00  0.00    +0.123 A 
ATOM     22  N   UNL     1      15.994   6.668  20.810  0.00  0.00    -0.207 NA
ENDBRANCH  16  17
ENDBRANCH  14  16
TORSDOF 2
ENDMDL
MODEL 10
REMARK VINA RESULT:      -7.9     16.763     18.672
REMARK  Name = 
REMARK  2 active torsions:
REMARK  status: ('A' for Active; 'I' for Inactive)
REMARK    1  A    between atoms: C_14  and  O_16
REMARK    2  A    between atoms: O_16  and  C_17
REMARK                            x       y       z     vdW  Elec       q    Type
REMARK                         _______ _______ _______ _____ _____    ______ ____
ROOT
ATOM      1  O   UNL     1      14.557   6.510  19.193  0.00  0.00    -0.252 OA
ATOM      2  C   UNL     1      14.972   6.712  19.877  0.00  0.00    +0.307 C 
ATOM      3  N   UNL     1      15.783   6.570  19.925  0.00  0.00    -0.259 N 
ATOM      4  C   UNL     1      16.180   6.224  19.290  0.00  0.00    +0.127 C 
ATOM      5  C   UNL     1      16.990   6.082  19.339  0.00  0.00    +0.164 C 
ATOM      6  O   UNL     1      17.405   6.284  20.022  0.00  0.00    -0.350 OA
ATOM      7  C   UNL     1      17.008   6.629  20.659  0.00  0.00    +0.164 C 
ATOM      8  C   UNL     1      16.198   6.772  20.610  0.00  0.00    +0.127 C 
ATOM      9  N   UNL     1      14.574   7.058  20.513  0.00  0.00    -0.258 N 
ATOM     10  C   UNL     1      15.040   7.238  21.169  0.00  0.00    +0.127 C 
ATOM     11  C   UNL     1      14.811   7.583  21.884  0.00  0.00    +0.164 C 
ATOM     12  O   UNL     1      14.059   7.831  22.116  0.00  0.00    -0.348 OA
ATOM     13  C   UNL     1      13.352   7.797  21.694  0.00  0.00    +0.187 C 
ATOM     14  C   UNL     1      13.221   7.505  20.933  0.00  0.00    +0.217 C 
ATOM     15  C   UNL     1      13.765   7.176  20.407  0.00  0.00    +0.141 C 
ENDROOT
BRANCH  14  16
ATOM     16  O   UNL     1      12.443   7.549  20.662  0.00  0.00    -0.459 OA
BRANCH  16  17
ATOM     17  C   UNL     1      11.845   7.142  21.060  0.00  0.00    +0.245 A 
ATOM     18  C   UNL     1      11.323   7.553  21.551  0.00  0.00    +0.156 A 
ATOM     19  N   UNL     1      10.726   7.147  21.949  0.00  0.00    -0.236 NA
ATOM     20  C   UNL     1      10.650   6.331  21.857  0.00  0.00    +0.120 A 
ATOM     21  C   UNL     1      11.171   5.920  21.367  0.00  0.00    +0.123 A 
ATOM     22  N   UNL     1      11.768   6.326  20.969  0.00  0.00    -0.207 NA
ENDBRANCH  16  17
ENDBRANCH  14  16
TORSDOF 2
ENDMDL
