MODEL 1
REMARK VINA RESULT:     -13.9      0.000      0.000
REMARK  Name = 
REMARK  6 active torsions:
REMARK  status: ('A' for Active; 'I' for Inactive)
REMARK    1  A    between atoms: N_2  and  C_4
REMARK    2  A    between atoms: C_7  and  C_10
REMARK    3  A    between atoms: N_14  and  C_15
REMARK    4  A    between atoms: C_19  and  N_23
REMARK    5  A    between atoms: N_26  and  C_27
REMARK    6  A    between atoms: C_29  and  C_33
REMARK                            x       y       z     vdW  Elec       q    Type
REMARK                         _______ _______ _______ _____ _____    ______ ____
ROOT
ATOM     15  C   UNL     1      -1.362   2.996  24.487  0.00  0.00    +0.167 C 
ATOM     16  C   UNL     1      -1.653   2.769  23.750  0.00  0.00    +0.169 C 
ATOM     17  O   UNL     1      -1.596   1.948  23.696  0.00  0.00    -0.350 OA
ATOM     18  C   UNL     1      -1.270   1.668  24.400  0.00  0.00    +0.167 C 
ATOM     19  C   UNL     1      -1.033   0.988  24.803  0.00  0.00    +0.156 C 
ATOM     20  C   UNL     1      -0.742   1.216  25.540  0.00  0.00    +0.166 C 
ATOM     21  O   UNL     1      -0.799   2.037  25.593  0.00  0.00    -0.350 OA
ATOM     22  C   UNL     1      -1.125   2.316  24.889  0.00  0.00    +0.169 C 
ENDROOT
BRANCH  15  14
ATOM     10  C   UNL     1      -1.944   4.218  25.062  0.00  0.00    +0.184 A 
ATOM     11  N   UNL     1      -1.649   4.955  25.287  0.00  0.00    -0.108 NA
ATOM     12  N   UNL     1      -0.838   4.962  25.137  0.00  0.00    -0.023 NA
ATOM     13  N   UNL     1      -0.631   4.229  24.819  0.00  0.00    -0.043 NA
ATOM     14  N   UNL     1      -1.315   3.770  24.773  0.00  0.00    -0.210 N 
BRANCH  10   7
ATOM      4  C   UNL     1      -4.301   3.483  25.225  0.00  0.00    +0.048 A 
ATOM      5  C   UNL     1      -3.821   3.479  25.896  0.00  0.00    +0.015 A 
ATOM      6  C   UNL     1      -3.035   3.725  25.842  0.00  0.00    +0.004 A 
ATOM      7  C   UNL     1      -2.730   3.973  25.116  0.00  0.00    +0.037 A 
ATOM      8  C   UNL     1      -3.210   3.976  24.446  0.00  0.00    +0.004 A 
ATOM      9  C   UNL     1      -3.996   3.731  24.500  0.00  0.00    +0.015 A 
BRANCH   4   2
ATOM      1  C   UNL     1      -5.654   3.740  25.604  0.00  0.00    +0.112 C 
ATOM      2  N   UNL     1      -5.088   3.237  25.280  0.00  0.00    -0.304 N 
ATOM      3  C   UNL     1      -5.305   2.489  25.009  0.00  0.00    +0.112 C 
ENDBRANCH   4   2
ENDBRANCH  10   7
ENDBRANCH  15  14
BRANCH  19  23
ATOM     23  N   UNL     1      -1.080   0.215  24.517  0.00  0.00    -0.184 NA
ATOM     24  C   UNL     1      -1.692  -0.280  24.764  0.00  0.00    +0.344 C 
ATOM     25  O   UNL     1      -2.258  -0.002  25.296  0.00  0.00    -0.249 OA
ATOM     26  N   UNL     1      -1.738  -1.052  24.479  0.00  0.00    -0.161 NA
BRANCH  26  27
ATOM     27  C   UNL     1      -2.351  -1.547  24.725  0.00  0.00    +0.075 A 
ATOM     28  C   UNL     1      -2.964  -1.735  24.207  0.00  0.00    +0.021 A 
ATOM     29  C   UNL     1      -3.576  -2.229  24.453  0.00  0.00    +0.073 A 
ATOM     30  C   UNL     1      -3.575  -2.538  25.219  0.00  0.00    +0.004 A 
ATOM     31  C   UNL     1      -2.961  -2.350  25.738  0.00  0.00    +0.001 A 
ATOM     32  C   UNL     1      -2.349  -1.855  25.490  0.00  0.00    +0.017 A 
BRANCH  29  33
ATOM     33  C   UNL     1      -4.189  -2.417  23.934  0.00  0.00    +0.419 C 
ATOM     34  F   UNL     1      -4.803  -2.604  23.415  0.00  0.00    -0.166 F 
ATOM     35  F   UNL     1      -4.528  -1.676  24.067  0.00  0.00    -0.166 F 
ATOM     36  F   UNL     1      -3.851  -3.157  23.801  0.00  0.00    -0.166 F 
ENDBRANCH  29  33
ENDBRANCH  26  27
ENDBRANCH  19  23
TORSDOF 6
ENDMDL
MODEL 2
REMARK VINA RESULT:     -12.5      1.727      3.090
REMARK  Name = 
REMARK  6 active torsions:
REMARK  status: ('A' for Active; 'I' for Inactive)
REMARK    1  A    between atoms: N_2  and  C_4
REMARK    2  A    between atoms: C_7  and  C_10
REMARK    3  A    between atoms: N_14  and  C_15
REMARK    4  A    between atoms: C_19  and  N_23
REMARK    5  A    between atoms: N_26  and  C_27
REMARK    6  A    between atoms: C_29  and  C_33
REMARK                            x       y       z     vdW  Elec       q    Type
REMARK                         _______ _______ _______ _____ _____    ______ ____
ROOT
ATOM     15  C   UNL     1      -4.710   2.789  24.807  0.00  0.00    +0.167 C 
ATOM     16  C   UNL     1      -4.354   2.830  24.064  0.00  0.00    +0.169 C 
ATOM     17  O   UNL     1      -4.256   2.060  23.787  0.00  0.00    -0.350 OA
ATOM     18  C   UNL     1      -4.551   1.543  24.357  0.00  0.00    +0.167 C 
ATOM     19  C   UNL     1      -4.673   0.748  24.539  0.00  0.00    +0.156 C 
ATOM     20  C   UNL     1      -5.029   0.707  25.282  0.00  0.00    +0.166 C 
ATOM     21  O   UNL     1      -5.127   1.477  25.560  0.00  0.00    -0.350 OA
ATOM     22  C   UNL     1      -4.832   1.994  24.988  0.00  0.00    +0.169 C 
ENDROOT
BRANCH  15  14
ATOM     10  C   UNL     1      -4.380   3.965  25.626  0.00  0.00    +0.184 A 
ATOM     11  N   UNL     1      -4.817   4.517  26.058  0.00  0.00    -0.108 NA
ATOM     12  N   UNL     1      -5.616   4.324  25.984  0.00  0.00    -0.023 NA
ATOM     13  N   UNL     1      -5.673   3.653  25.506  0.00  0.00    -0.043 NA
ATOM     14  N   UNL     1      -4.909   3.432  25.285  0.00  0.00    -0.210 N 
BRANCH  10   7
ATOM      4  C   UNL     1      -1.918   3.920  25.394  0.00  0.00    +0.048 A 
ATOM      5  C   UNL     1      -2.275   3.589  26.061  0.00  0.00    +0.015 A 
ATOM      6  C   UNL     1      -3.096   3.604  26.138  0.00  0.00    +0.004 A 
ATOM      7  C   UNL     1      -3.559   3.950  25.549  0.00  0.00    +0.037 A 
ATOM      8  C   UNL     1      -3.202   4.280  24.883  0.00  0.00    +0.004 A 
ATOM      9  C   UNL     1      -2.380   4.265  24.806  0.00  0.00    +0.015 A 
BRANCH   4   2
ATOM      1  C   UNL     1      -0.671   3.238  25.554  0.00  0.00    +0.112 C 
ATOM      2  N   UNL     1      -1.095   3.905  25.317  0.00  0.00    -0.304 N 
ATOM      3  C   UNL     1      -0.699   4.557  25.003  0.00  0.00    +0.112 C 
ENDBRANCH   4   2
ENDBRANCH  10   7
ENDBRANCH  15  14
BRANCH  19  23
ATOM     23  N   UNL     1      -4.473   0.105  24.061  0.00  0.00    -0.184 NA
ATOM     24  C   UNL     1      -4.058  -0.533  24.379  0.00  0.00    +0.344 C 
ATOM     25  O   UNL     1      -3.842  -0.528  25.176  0.00  0.00    -0.249 OA
ATOM     26  N   UNL     1      -3.859  -1.175  23.902  0.00  0.00    -0.161 NA
BRANCH  26  27
ATOM     27  C   UNL     1      -3.443  -1.813  24.220  0.00  0.00    +0.075 A 
ATOM     28  C   UNL     1      -2.621  -1.783  24.277  0.00  0.00    +0.021 A 
ATOM     29  C   UNL     1      -2.206  -2.421  24.595  0.00  0.00    +0.073 A 
ATOM     30  C   UNL     1      -2.614  -3.089  24.856  0.00  0.00    +0.004 A 
ATOM     31  C   UNL     1      -3.436  -3.119  24.799  0.00  0.00    +0.001 A 
ATOM     32  C   UNL     1      -3.851  -2.481  24.481  0.00  0.00    +0.017 A 
BRANCH  29  33
ATOM     33  C   UNL     1      -1.383  -2.391  24.652  0.00  0.00    +0.419 C 
ATOM     34  F   UNL     1      -0.562  -2.361  24.709  0.00  0.00    -0.166 F 
ATOM     35  F   UNL     1      -1.447  -2.138  25.435  0.00  0.00    -0.166 F 
ATOM     36  F   UNL     1      -1.320  -2.643  23.870  0.00  0.00    -0.166 F 
ENDBRANCH  29  33
ENDBRANCH  26  27
ENDBRANCH  19  23
TORSDOF 6
ENDMDL
MODEL 3
REMARK VINA RESULT:     -11.8      2.771      6.025
REMARK  Name = 
REMARK  6 active torsions:
REMARK  status: ('A' for Active; 'I' for Inactive)
REMARK    1  A    between atoms: N_2  and  C_4
REMARK    2  A    between atoms: C_7  and  C_10
REMARK    3  A    between atoms: N_14  and  C_15
REMARK    4  A    between atoms: C_19  and  N_23
REMARK    5  A    between atoms: N_26  and  C_27
REMARK    6  A    between atoms: C_29  and  C_33
REMARK                            x       y       z     vdW  Elec       q    Type
REMARK                         _______ _______ _______ _____ _____    ______ ____
ROOT
ATOM     15  C   UNL     1      -3.880  -0.798  23.868  0.00  0.00    +0.167 C 
ATOM     16  C   UNL     1      -3.441  -0.494  23.240  0.00  0.00    +0.169 C 
ATOM     17  O   UNL     1      -3.471   0.329  23.282  0.00  0.00    -0.350 OA
ATOM     18  C   UNL     1      -3.930   0.534  23.935  0.00  0.00    +0.167 C 
ATOM     19  C   UNL     1      -4.232   1.169  24.366  0.00  0.00    +0.156 C 
ATOM     20  C   UNL     1      -4.672   0.866  24.994  0.00  0.00    +0.166 C 
ATOM     21  O   UNL     1      -4.642   0.043  24.952  0.00  0.00    -0.350 OA
ATOM     22  C   UNL     1      -4.183  -0.162  24.298  0.00  0.00    +0.169 C 
ENDROOT
BRANCH  15  14
ATOM     10  C   UNL     1      -3.431  -2.118  24.333  0.00  0.00    +0.184 A 
ATOM     11  N   UNL     1      -3.785  -2.859  24.418  0.00  0.00    -0.108 NA
ATOM     12  N   UNL     1      -4.571  -2.795  24.174  0.00  0.00    -0.023 NA
ATOM     13  N   UNL     1      -4.702  -2.016  23.938  0.00  0.00    -0.043 NA
ATOM     14  N   UNL     1      -3.997  -1.597  24.036  0.00  0.00    -0.210 N 
BRANCH  10   7
ATOM      4  C   UNL     1      -1.082  -1.559  24.873  0.00  0.00    +0.048 A 
ATOM      5  C   UNL     1      -1.668  -1.477  25.449  0.00  0.00    +0.015 A 
ATOM      6  C   UNL     1      -2.451  -1.663  25.269  0.00  0.00    +0.004 A 
ATOM      7  C   UNL     1      -2.648  -1.931  24.513  0.00  0.00    +0.037 A 
ATOM      8  C   UNL     1      -2.062  -2.013  23.939  0.00  0.00    +0.004 A 
ATOM      9  C   UNL     1      -1.279  -1.826  24.119  0.00  0.00    +0.015 A 
BRANCH   4   2
ATOM      1  C   UNL     1       0.048  -0.695  24.736  0.00  0.00    +0.112 C 
ATOM      2  N   UNL     1      -0.298  -1.372  25.054  0.00  0.00    -0.304 N 
ATOM      3  C   UNL     1       0.138  -1.864  25.552  0.00  0.00    +0.112 C 
ENDBRANCH   4   2
ENDBRANCH  10   7
ENDBRANCH  15  14
BRANCH  19  23
ATOM     23  N   UNL     1      -4.115   1.969  24.197  0.00  0.00    -0.184 NA
ATOM     24  C   UNL     1      -3.681   2.441  24.716  0.00  0.00    +0.344 C 
ATOM     25  O   UNL     1      -3.363   2.114  25.403  0.00  0.00    -0.249 OA
ATOM     26  N   UNL     1      -3.564   3.239  24.548  0.00  0.00    -0.161 NA
BRANCH  26  27
ATOM     27  C   UNL     1      -3.129   3.712  25.067  0.00  0.00    +0.075 A 
ATOM     28  C   UNL     1      -2.394   4.007  24.839  0.00  0.00    +0.021 A 
ATOM     29  C   UNL     1      -1.960   4.478  25.357  0.00  0.00    +0.073 A 
ATOM     30  C   UNL     1      -2.261   4.656  26.105  0.00  0.00    +0.004 A 
ATOM     31  C   UNL     1      -2.997   4.360  26.333  0.00  0.00    +0.001 A 
ATOM     32  C   UNL     1      -3.431   3.888  25.814  0.00  0.00    +0.017 A 
BRANCH  29  33
ATOM     33  C   UNL     1      -1.224   4.773  25.128  0.00  0.00    +0.419 C 
ATOM     34  F   UNL     1      -0.488   5.068  24.900  0.00  0.00    -0.166 F 
ATOM     35  F   UNL     1      -0.874   4.052  25.324  0.00  0.00    -0.166 F 
ATOM     36  F   UNL     1      -1.573   5.494  24.933  0.00  0.00    -0.166 F 
ENDBRANCH  29  33
ENDBRANCH  26  27
ENDBRANCH  19  23
TORSDOF 6
ENDMDL
MODEL 4
REMARK VINA RESULT:     -11.7      2.569      5.228
REMARK  Name = 
REMARK  6 active torsions:
REMARK  status: ('A' for Active; 'I' for Inactive)
REMARK    1  A    between atoms: N_2  and  C_4
REMARK    2  A    between atoms: C_7  and  C_10
REMARK    3  A    between atoms: N_14  and  C_15
REMARK    4  A    between atoms: C_19  and  N_23
REMARK    5  A    between atoms: N_26  and  C_27
REMARK    6  A    between atoms: C_29  and  C_33
REMARK                            x       y       z     vdW  Elec       q    Type
REMARK                         _______ _______ _______ _____ _____    ______ ____
ROOT
ATOM     15  C   UNL     1      -1.398  -0.873  25.113  0.00  0.00    +0.167 C 
ATOM     16  C   UNL     1      -1.466  -0.622  25.895  0.00  0.00    +0.169 C 
ATOM     17  O   UNL     1      -1.095   0.111  25.960  0.00  0.00    -0.350 OA
ATOM     18  C   UNL     1      -0.797   0.314  25.219  0.00  0.00    +0.167 C 
ATOM     19  C   UNL     1      -0.383   0.891  24.800  0.00  0.00    +0.156 C 
ATOM     20  C   UNL     1      -0.314   0.640  24.017  0.00  0.00    +0.166 C 
ATOM     21  O   UNL     1      -0.686  -0.093  23.952  0.00  0.00    -0.350 OA
ATOM     22  C   UNL     1      -0.984  -0.295  24.695  0.00  0.00    +0.169 C 
ENDROOT
BRANCH  15  14
ATOM     10  C   UNL     1      -2.475  -1.726  24.589  0.00  0.00    +0.184 A 
ATOM     11  N   UNL     1      -2.521  -2.500  24.306  0.00  0.00    -0.108 NA
ATOM     12  N   UNL     1      -1.766  -2.831  24.345  0.00  0.00    -0.023 NA
ATOM     13  N   UNL     1      -1.254  -2.263  24.652  0.00  0.00    -0.043 NA
ATOM     14  N   UNL     1      -1.692  -1.579  24.802  0.00  0.00    -0.210 N 
BRANCH  10   7
ATOM      4  C   UNL     1      -4.354  -0.127  24.764  0.00  0.00    +0.048 A 
ATOM      5  C   UNL     1      -3.978  -0.242  24.039  0.00  0.00    +0.015 A 
ATOM      6  C   UNL     1      -3.351  -0.775  23.980  0.00  0.00    +0.004 A 
ATOM      7  C   UNL     1      -3.101  -1.193  24.647  0.00  0.00    +0.037 A 
ATOM      8  C   UNL     1      -3.478  -1.077  25.371  0.00  0.00    +0.004 A 
ATOM      9  C   UNL     1      -4.104  -0.544  25.430  0.00  0.00    +0.015 A 
BRANCH   4   2
ATOM      1  C   UNL     1      -5.742   0.175  24.605  0.00  0.00    +0.112 C 
ATOM      2  N   UNL     1      -4.982   0.407  24.823  0.00  0.00    -0.304 N 
ATOM      3  C   UNL     1      -4.847   1.173  25.099  0.00  0.00    +0.112 C 
ENDBRANCH   4   2
ENDBRANCH  10   7
ENDBRANCH  15  14
BRANCH  19  23
ATOM     23  N   UNL     1      -0.089   1.597  25.110  0.00  0.00    -0.184 NA
ATOM     24  C   UNL     1      -0.514   2.298  25.017  0.00  0.00    +0.344 C 
ATOM     25  O   UNL     1      -1.233   2.293  24.613  0.00  0.00    -0.249 OA
ATOM     26  N   UNL     1      -0.221   3.004  25.326  0.00  0.00    -0.161 NA
BRANCH  26  27
ATOM     27  C   UNL     1      -0.646   3.704  25.233  0.00  0.00    +0.075 A 
ATOM     28  C   UNL     1      -1.400   3.776  25.558  0.00  0.00    +0.021 A 
ATOM     29  C   UNL     1      -1.825   4.476  25.465  0.00  0.00    +0.073 A 
ATOM     30  C   UNL     1      -1.496   5.106  25.046  0.00  0.00    +0.004 A 
ATOM     31  C   UNL     1      -0.741   5.035  24.720  0.00  0.00    +0.001 A 
ATOM     32  C   UNL     1      -0.316   4.334  24.814  0.00  0.00    +0.017 A 
BRANCH  29  33
ATOM     33  C   UNL     1      -2.580   4.547  25.791  0.00  0.00    +0.419 C 
ATOM     34  F   UNL     1      -3.334   4.619  26.117  0.00  0.00    -0.166 F 
ATOM     35  F   UNL     1      -2.901   4.609  25.033  0.00  0.00    -0.166 F 
ATOM     36  F   UNL     1      -2.259   4.486  26.548  0.00  0.00    -0.166 F 
ENDBRANCH  29  33
ENDBRANCH  26  27
ENDBRANCH  19  23
TORSDOF 6
ENDMDL
MODEL 5
REMARK VINA RESULT:     -11.5      1.522      3.150
REMARK  Name = 
REMARK  6 active torsions:
REMARK  status: ('A' for Active; 'I' for Inactive)
REMARK    1  A    between atoms: N_2  and  C_4
REMARK    2  A    between atoms: C_7  and  C_10
REMARK    3  A    between atoms: N_14  and  C_15
REMARK    4  A    between atoms: C_19  and  N_23
REMARK    5  A    between atoms: N_26  and  C_27
REMARK    6  A    between atoms: C_29  and  C_33
REMARK                            x       y       z     vdW  Elec       q    Type
REMARK                         _______ _______ _______ _____ _____    ______ ____
ROOT
ATOM     15  C   UNL     1      -2.341   3.524  25.437  0.00  0.00    +0.167 C 
ATOM     16  C   UNL     1      -2.289   3.068  26.122  0.00  0.00    +0.169 C 
ATOM     17  O   UNL     1      -2.849   2.465  26.069  0.00  0.00    -0.350 OA
ATOM     18  C   UNL     1      -3.247   2.547  25.352  0.00  0.00    +0.167 C 
ATOM     19  C   UNL     1      -3.839   2.226  24.875  0.00  0.00    +0.156 C 
ATOM     20  C   UNL     1      -3.891   2.681  24.190  0.00  0.00    +0.166 C 
ATOM     21  O   UNL     1      -3.331   3.285  24.243  0.00  0.00    -0.350 OA
ATOM     22  C   UNL     1      -2.933   3.202  24.961  0.00  0.00    +0.169 C 
ENDROOT
BRANCH  15  14
ATOM     10  C   UNL     1      -1.120   4.176  24.943  0.00  0.00    +0.184 A 
ATOM     11  N   UNL     1      -0.871   4.958  24.854  0.00  0.00    -0.108 NA
ATOM     12  N   UNL     1      -1.479   5.451  25.114  0.00  0.00    -0.023 NA
ATOM     13  N   UNL     1      -2.104   4.973  25.364  0.00  0.00    -0.043 NA
ATOM     14  N   UNL     1      -1.882   4.186  25.258  0.00  0.00    -0.210 N 
BRANCH  10   7
ATOM      4  C   UNL     1       0.191   2.158  24.367  0.00  0.00    +0.048 A 
ATOM      5  C   UNL     1      -0.209   2.573  23.776  0.00  0.00    +0.015 A 
ATOM      6  C   UNL     1      -0.646   3.246  23.968  0.00  0.00    +0.004 A 
ATOM      7  C   UNL     1      -0.683   3.503  24.751  0.00  0.00    +0.037 A 
ATOM      8  C   UNL     1      -0.283   3.088  25.341  0.00  0.00    +0.004 A 
ATOM      9  C   UNL     1       0.153   2.416  25.149  0.00  0.00    +0.015 A 
BRANCH   4   2
ATOM      1  C   UNL     1       0.291   0.737  24.256  0.00  0.00    +0.112 C 
ATOM      2  N   UNL     1       0.628   1.484  24.174  0.00  0.00    -0.304 N 
ATOM      3  C   UNL     1       1.403   1.561  23.900  0.00  0.00    +0.112 C 
ENDBRANCH   4   2
ENDBRANCH  10   7
ENDBRANCH  15  14
BRANCH  19  23
ATOM     23  N   UNL     1      -4.298   1.564  25.054  0.00  0.00    -0.184 NA
ATOM     24  C   UNL     1      -4.088   0.823  24.756  0.00  0.00    +0.344 C 
ATOM     25  O   UNL     1      -3.419   0.745  24.280  0.00  0.00    -0.249 OA
ATOM     26  N   UNL     1      -4.547   0.162  24.934  0.00  0.00    -0.161 NA
BRANCH  26  27
ATOM     27  C   UNL     1      -4.338  -0.579  24.636  0.00  0.00    +0.075 A 
ATOM     28  C   UNL     1      -3.854  -1.079  25.079  0.00  0.00    +0.021 A 
ATOM     29  C   UNL     1      -3.645  -1.819  24.782  0.00  0.00    +0.073 A 
ATOM     30  C   UNL     1      -3.919  -2.059  24.041  0.00  0.00    +0.004 A 
ATOM     31  C   UNL     1      -4.402  -1.558  23.598  0.00  0.00    +0.001 A 
ATOM     32  C   UNL     1      -4.612  -0.818  23.896  0.00  0.00    +0.017 A 
BRANCH  29  33
ATOM     33  C   UNL     1      -3.161  -2.320  25.224  0.00  0.00    +0.419 C 
ATOM     34  F   UNL     1      -2.678  -2.821  25.666  0.00  0.00    -0.166 F 
ATOM     35  F   UNL     1      -2.546  -2.200  24.688  0.00  0.00    -0.166 F 
ATOM     36  F   UNL     1      -3.776  -2.441  25.760  0.00  0.00    -0.166 F 
ENDBRANCH  29  33
ENDBRANCH  26  27
ENDBRANCH  19  23
TORSDOF 6
ENDMDL
MODEL 6
REMARK VINA RESULT:     -11.1      1.856      4.827
REMARK  Name = 
REMARK  6 active torsions:
REMARK  status: ('A' for Active; 'I' for Inactive)
REMARK    1  A    between atoms: N_2  and  C_4
REMARK    2  A    between atoms: C_7  and  C_10
REMARK    3  A    between atoms: N_14  and  C_15
REMARK    4  A    between atoms: C_19  and  N_23
REMARK    5  A    between atoms: N_26  and  C_27
REMARK    6  A    between atoms: C_29  and  C_33
REMARK                            x       y       z     vdW  Elec       q    Type
REMARK                         _______ _______ _______ _____ _____    ______ ____
ROOT
ATOM     15  C   UNL     1      -0.512   0.872  24.623  0.00  0.00    +0.167 C 
ATOM     16  C   UNL     1      -0.592   0.801  25.440  0.00  0.00    +0.169 C 
ATOM     17  O   UNL     1      -1.087   1.408  25.700  0.00  0.00    -0.350 OA
ATOM     18  C   UNL     1      -1.312   1.853  25.044  0.00  0.00    +0.167 C 
ATOM     19  C   UNL     1      -1.756   2.503  24.798  0.00  0.00    +0.156 C 
ATOM     20  C   UNL     1      -1.676   2.574  23.980  0.00  0.00    +0.166 C 
ATOM     21  O   UNL     1      -1.182   1.967  23.720  0.00  0.00    -0.350 OA
ATOM     22  C   UNL     1      -0.957   1.521  24.378  0.00  0.00    +0.169 C 
ENDROOT
BRANCH  15  14
ATOM     10  C   UNL     1      -0.237  -0.407  23.952  0.00  0.00    +0.184 A 
ATOM     11  N   UNL     1       0.354  -0.688  23.449  0.00  0.00    -0.108 NA
ATOM     12  N   UNL     1       0.892  -0.075  23.321  0.00  0.00    -0.023 NA
ATOM     13  N   UNL     1       0.633   0.584  23.745  0.00  0.00    -0.043 NA
ATOM     14  N   UNL     1      -0.065   0.378  24.135  0.00  0.00    -0.210 N 
BRANCH  10   7
ATOM      4  C   UNL     1      -2.184  -1.698  24.768  0.00  0.00    +0.048 A 
ATOM      5  C   UNL     1      -1.482  -1.693  25.201  0.00  0.00    +0.015 A 
ATOM      6  C   UNL     1      -0.833  -1.262  24.930  0.00  0.00    +0.004 A 
ATOM      7  C   UNL     1      -0.886  -0.838  24.224  0.00  0.00    +0.037 A 
ATOM      8  C   UNL     1      -1.588  -0.843  23.791  0.00  0.00    +0.004 A 
ATOM      9  C   UNL     1      -2.237  -1.274  24.063  0.00  0.00    +0.015 A 
BRANCH   4   2
ATOM      1  C   UNL     1      -3.290  -1.838  25.662  0.00  0.00    +0.112 C 
ATOM      2  N   UNL     1      -2.834  -2.129  25.040  0.00  0.00    -0.304 N 
ATOM      3  C   UNL     1      -3.027  -2.850  24.688  0.00  0.00    +0.112 C 
ENDBRANCH   4   2
ENDBRANCH  10   7
ENDBRANCH  15  14
BRANCH  19  23
ATOM     23  N   UNL     1      -2.204   2.997  25.286  0.00  0.00    -0.184 NA
ATOM     24  C   UNL     1      -3.025   3.017  25.211  0.00  0.00    +0.344 C 
ATOM     25  O   UNL     1      -3.399   2.543  24.649  0.00  0.00    -0.249 OA
ATOM     26  N   UNL     1      -3.472   3.510  25.698  0.00  0.00    -0.161 NA
BRANCH  26  27
ATOM     27  C   UNL     1      -4.293   3.530  25.623  0.00  0.00    +0.075 A 
ATOM     28  C   UNL     1      -4.747   2.890  25.878  0.00  0.00    +0.021 A 
ATOM     29  C   UNL     1      -5.567   2.910  25.804  0.00  0.00    +0.073 A 
ATOM     30  C   UNL     1      -5.936   3.570  25.474  0.00  0.00    +0.004 A 
ATOM     31  C   UNL     1      -5.483   4.211  25.219  0.00  0.00    +0.001 A 
ATOM     32  C   UNL     1      -4.661   4.190  25.293  0.00  0.00    +0.017 A 
BRANCH  29  33
ATOM     33  C   UNL     1      -6.021   2.269  26.060  0.00  0.00    +0.419 C 
ATOM     34  F   UNL     1      -6.474   1.629  26.315  0.00  0.00    -0.166 F 
ATOM     35  F   UNL     1      -5.857   2.466  26.844  0.00  0.00    -0.166 F 
ATOM     36  F   UNL     1      -6.184   2.072  25.276  0.00  0.00    -0.166 F 
ENDBRANCH  29  33
ENDBRANCH  26  27
ENDBRANCH  19  23
TORSDOF 6
ENDMDL
MODEL 7
REMARK VINA RESULT:     -10.9      4.029      5.644
REMARK  Name = 
REMARK  6 active torsions:
REMARK  status: ('A' for Active; 'I' for Inactive)
REMARK    1  A    between atoms: N_2  and  C_4
REMARK    2  A    between atoms: C_7  and  C_10
REMARK    3  A    between atoms: N_14  and  C_15
REMARK    4  A    between atoms: C_19  and  N_23
REMARK    5  A    between atoms: N_26  and  C_27
REMARK    6  A    between atoms: C_29  and  C_33
REMARK                            x       y       z     vdW  Elec       q    Type
REMARK                         _______ _______ _______ _____ _____    ______ ____
ROOT
ATOM     15  C   UNL     1      -1.295   0.606  24.726  0.00  0.00    +0.167 C 
ATOM     16  C   UNL     1      -1.035  -0.055  25.145  0.00  0.00    +0.169 C 
ATOM     17  O   UNL     1      -0.368  -0.353  24.762  0.00  0.00    -0.350 OA
ATOM     18  C   UNL     1      -0.215   0.123  24.107  0.00  0.00    +0.167 C 
ATOM     19  C   UNL     1       0.290   0.234  23.465  0.00  0.00    +0.156 C 
ATOM     20  C   UNL     1       0.031   0.895  23.046  0.00  0.00    +0.166 C 
ATOM     21  O   UNL     1      -0.636   1.193  23.429  0.00  0.00    -0.350 OA
ATOM     22  C   UNL     1      -0.789   0.716  24.085  0.00  0.00    +0.169 C 
ENDROOT
BRANCH  15  14
ATOM     10  C   UNL     1      -2.732   0.823  24.947  0.00  0.00    +0.184 A 
ATOM     11  N   UNL     1      -3.199   1.470  25.158  0.00  0.00    -0.108 NA
ATOM     12  N   UNL     1      -2.702   2.121  25.257  0.00  0.00    -0.023 NA
ATOM     13  N   UNL     1      -1.928   1.877  25.107  0.00  0.00    -0.043 NA
ATOM     14  N   UNL     1      -1.947   1.074  24.916  0.00  0.00    -0.210 N 
BRANCH  10   7
ATOM      4  C   UNL     1      -3.545  -1.468  24.488  0.00  0.00    +0.048 A 
ATOM      5  C   UNL     1      -3.566  -0.897  23.893  0.00  0.00    +0.015 A 
ATOM      6  C   UNL     1      -3.295  -0.133  24.046  0.00  0.00    +0.004 A 
ATOM      7  C   UNL     1      -3.003   0.059  24.794  0.00  0.00    +0.037 A 
ATOM      8  C   UNL     1      -2.981  -0.513  25.387  0.00  0.00    +0.004 A 
ATOM      9  C   UNL     1      -3.252  -1.277  25.234  0.00  0.00    +0.015 A 
BRANCH   4   2
ATOM      1  C   UNL     1      -3.516  -2.870  24.764  0.00  0.00    +0.112 C 
ATOM      2  N   UNL     1      -3.816  -2.233  24.335  0.00  0.00    -0.304 N 
ATOM      3  C   UNL     1      -4.387  -2.359  23.752  0.00  0.00    +0.112 C 
ENDBRANCH   4   2
ENDBRANCH  10   7
ENDBRANCH  15  14
BRANCH  19  23
ATOM     23  N   UNL     1       0.943  -0.235  23.275  0.00  0.00    -0.184 NA
ATOM     24  C   UNL     1       1.686   0.111  23.180  0.00  0.00    +0.344 C 
ATOM     25  O   UNL     1       1.777   0.925  23.274  0.00  0.00    -0.249 OA
ATOM     26  N   UNL     1       2.338  -0.357  22.991  0.00  0.00    -0.161 NA
BRANCH  26  27
ATOM     27  C   UNL     1       3.081  -0.011  22.895  0.00  0.00    +0.075 A 
ATOM     28  C   UNL     1       3.697  -0.209  23.407  0.00  0.00    +0.021 A 
ATOM     29  C   UNL     1       4.439   0.136  23.311  0.00  0.00    +0.073 A 
ATOM     30  C   UNL     1       4.567   0.680  22.704  0.00  0.00    +0.004 A 
ATOM     31  C   UNL     1       3.950   0.878  22.192  0.00  0.00    +0.001 A 
ATOM     32  C   UNL     1       3.208   0.532  22.288  0.00  0.00    +0.017 A 
BRANCH  29  33
ATOM     33  C   UNL     1       5.055  -0.062  23.823  0.00  0.00    +0.419 C 
ATOM     34  F   UNL     1       5.671  -0.260  24.335  0.00  0.00    -0.166 F 
ATOM     35  F   UNL     1       5.012  -0.847  23.572  0.00  0.00    -0.166 F 
ATOM     36  F   UNL     1       5.099   0.722  24.075  0.00  0.00    -0.166 F 
ENDBRANCH  29  33
ENDBRANCH  26  27
ENDBRANCH  19  23
TORSDOF 6
ENDMDL
