REMARK  Name = 
REMARK  3 active torsions:
REMARK  status: ('A' for Active; 'I' for Inactive)
REMARK    1  A    between atoms: O_2  and  C_3
REMARK    2  A    between atoms: C_3  and  C_5
REMARK    3  A    between atoms: C_14  and  C_16
REMARK                            x       y       z     vdW  Elec       q    Type
REMARK                         _______ _______ _______ _____ _____    ______ ____
ROOT
ATOM      5  C   UNL     1       2.143  -1.238   0.000  0.00  0.00    +0.195 C 
ATOM      6  C   UNL     1       2.858  -1.650   0.000  0.00  0.00    +0.125 C 
ATOM      7  N   UNL     1       2.858  -2.475   0.000  0.00  0.00    -0.272 N 
ATOM      8  C   UNL     1       2.143  -2.888   0.000  0.00  0.00    +0.115 C 
ATOM      9  C   UNL     1       1.429  -2.475   0.000  0.00  0.00    +0.115 C 
ATOM     10  N   UNL     1       1.429  -1.650   0.000  0.00  0.00    -0.268 N 
ATOM     11  C   UNL     1       0.715  -1.238   0.000  0.00  0.00    +0.227 C 
ATOM     12  C   UNL     1       0.715  -0.412   0.000  0.00  0.00    +0.095 C 
ATOM     13  O   UNL     1       0.000  -1.650   0.000  0.00  0.00    -0.275 OA
ATOM     14  C   UNL     1       3.572  -2.888   0.000  0.00  0.00    +0.251 C 
ATOM     15  O   UNL     1       4.287  -2.475   0.000  0.00  0.00    -0.270 OA
ENDROOT
BRANCH  14  16
ATOM     16  C   UNL     1       3.572  -3.712   0.000  0.00  0.00    +0.073 A 
ATOM     17  C   UNL     1       4.287  -4.125   0.000  0.00  0.00    +0.103 A 
ATOM     18  N   UNL     1       4.287  -4.950   0.000  0.00  0.00    -0.242 NA
ATOM     19  C   UNL     1       3.572  -5.362   0.000  0.00  0.00    +0.099 A 
ATOM     20  C   UNL     1       2.858  -4.950   0.000  0.00  0.00    +0.021 A 
ATOM     21  C   UNL     1       2.858  -4.125   0.000  0.00  0.00    +0.008 A 
ENDBRANCH  14  16
BRANCH   5   3
ATOM      3  C   UNL     1       2.143  -0.412   0.000  0.00  0.00    +0.337 C 
ATOM      4  O   UNL     1       2.858   0.000   0.000  0.00  0.00    -0.248 OA
BRANCH   3   2
ATOM      1  C   UNL     1       1.429   0.825   0.000  0.00  0.00    +0.256 C 
ATOM      2  O   UNL     1       1.429   0.000   0.000  0.00  0.00    -0.443 OA
ENDBRANCH   3   2
ENDBRANCH   5   3
TORSDOF 3
