MODEL 1
REMARK VINA RESULT:     -11.8      0.000      0.000
REMARK  Name = 
REMARK  8 active torsions:
REMARK  status: ('A' for Active; 'I' for Inactive)
REMARK    1  A    between atoms: O_2  and  C_3
REMARK    2  A    between atoms: C_3  and  C_4
REMARK    3  A    between atoms: C_4  and  N_5
REMARK    4  A    between atoms: C_6  and  C_8
REMARK    5  A    between atoms: C_8  and  C_9
REMARK    6  A    between atoms: C_14  and  C_16
REMARK    7  A    between atoms: C_27  and  C_29
REMARK    8  A    between atoms: C_32  and  O_33
REMARK                            x       y       z     vdW  Elec       q    Type
REMARK                         _______ _______ _______ _____ _____    ______ ____
ROOT
ATOM      9  C   UNL     1      -3.658  -0.235  24.394  0.00  0.00    +0.050 C 
ATOM     10  C   UNL     1      -2.969   0.197  24.540  0.00  0.00    +0.063 A 
ATOM     11  C   UNL     1      -2.259  -0.196  24.685  0.00  0.00    +0.023 A 
ATOM     12  C   UNL     1      -2.236  -1.020  24.684  0.00  0.00    +0.034 C 
ATOM     13  C   UNL     1      -2.924  -1.452  24.539  0.00  0.00    +0.010 C 
ATOM     14  C   UNL     1      -2.901  -2.277  24.538  0.00  0.00    +0.059 C 
ATOM     15  C   UNL     1      -2.110  -2.112  24.703  0.00  0.00    +0.005 C 
ATOM     18  C   UNL     1      -3.589  -2.708  24.392  0.00  0.00    +0.154 C 
ATOM     19  O   UNL     1      -3.566  -3.534  24.391  0.00  0.00    -0.223 OA
ATOM     20  C   UNL     1      -4.299  -2.316  24.247  0.00  0.00    +0.033 C 
ATOM     21  C   UNL     1      -4.322  -1.491  24.248  0.00  0.00    +0.003 C 
ATOM     22  C   UNL     1      -3.635  -1.059  24.394  0.00  0.00    +0.006 C 
ATOM     23  C   UNL     1      -4.345  -0.666  24.249  0.00  0.00    +0.000 C 
ATOM     24  S   UNL     1      -1.675   0.373  24.810  0.00  0.00    -0.054 S 
ATOM     25  C   UNL     1      -2.023   1.117  24.742  0.00  0.00    +0.185 A 
ATOM     26  N   UNL     1      -1.640   1.842  24.827  0.00  0.00    -0.151 NA
ATOM     27  C   UNL     1      -2.063   2.545  24.744  0.00  0.00    +0.271 C 
ATOM     28  O   UNL     1      -2.871   2.523  24.576  0.00  0.00    -0.268 OA
ATOM     37  N   UNL     1      -2.825   1.008  24.575  0.00  0.00    -0.227 NA
ENDROOT
BRANCH  27  29
ATOM     29  C   UNL     1      -1.680   3.271  24.828  0.00  0.00    +0.056 A 
ATOM     30  C   UNL     1      -0.957   3.402  24.454  0.00  0.00    +0.008 A 
ATOM     31  C   UNL     1      -0.573   4.128  24.539  0.00  0.00    +0.037 A 
ATOM     32  C   UNL     1      -0.914   4.723  24.998  0.00  0.00    +0.139 A 
ATOM     35  C   UNL     1      -1.638   4.592  25.372  0.00  0.00    +0.037 A 
ATOM     36  C   UNL     1      -2.021   3.866  25.287  0.00  0.00    +0.008 A 
BRANCH  32  33
ATOM     33  O   UNL     1      -0.532   5.449  25.083  0.00  0.00    -0.471 OA
ATOM     34  C   UNL     1      -0.766   6.094  24.623  0.00  0.00    +0.252 C 
ENDBRANCH  32  33
ENDBRANCH  27  29
BRANCH  14  16
ATOM     16  C   UNL     1      -2.603  -3.044  24.594  0.00  0.00    +0.184 C 
ATOM     17  O   UNL     1      -1.788  -3.171  24.588  0.00  0.00    -0.220 OA
ENDBRANCH  14  16
BRANCH   9   8
ATOM      8  C   UNL     1      -4.368   0.158  24.250  0.00  0.00    +0.093 C 
BRANCH   8   6
ATOM      5  N   UNL     1      -5.233   1.189  24.730  0.00  0.00    -0.203 NA
ATOM      6  C   UNL     1      -4.774   0.519  24.872  0.00  0.00    +0.242 C 
ATOM      7  O   UNL     1      -4.719   0.209  25.634  0.00  0.00    -0.273 OA
BRANCH   5   4
ATOM      4  C   UNL     1      -5.639   1.550  25.353  0.00  0.00    +0.147 C 
BRANCH   4   3
ATOM      3  C   UNL     1      -5.922   2.320  25.268  0.00  0.00    +0.166 C 
BRANCH   3   2
ATOM      1  C   UNL     1      -5.839   3.663  25.749  0.00  0.00    +0.174 C 
ATOM      2  O   UNL     1      -5.865   2.851  25.897  0.00  0.00    -0.349 OA
ENDBRANCH   3   2
ENDBRANCH   4   3
ENDBRANCH   5   4
ENDBRANCH   8   6
ENDBRANCH   9   8
TORSDOF 8
ENDMDL
MODEL 2
REMARK VINA RESULT:     -11.4      1.861      3.506
REMARK  Name = 
REMARK  8 active torsions:
REMARK  status: ('A' for Active; 'I' for Inactive)
REMARK    1  A    between atoms: O_2  and  C_3
REMARK    2  A    between atoms: C_3  and  C_4
REMARK    3  A    between atoms: C_4  and  N_5
REMARK    4  A    between atoms: C_6  and  C_8
REMARK    5  A    between atoms: C_8  and  C_9
REMARK    6  A    between atoms: C_14  and  C_16
REMARK    7  A    between atoms: C_27  and  C_29
REMARK    8  A    between atoms: C_32  and  O_33
REMARK                            x       y       z     vdW  Elec       q    Type
REMARK                         _______ _______ _______ _____ _____    ______ ____
ROOT
ATOM      9  C   UNL     1      -1.601  -0.773  24.624  0.00  0.00    +0.050 C 
ATOM     10  C   UNL     1      -1.993  -0.051  24.714  0.00  0.00    +0.063 A 
ATOM     11  C   UNL     1      -2.817  -0.029  24.731  0.00  0.00    +0.023 A 
ATOM     12  C   UNL     1      -3.250  -0.727  24.659  0.00  0.00    +0.034 C 
ATOM     13  C   UNL     1      -2.860  -1.448  24.570  0.00  0.00    +0.010 C 
ATOM     14  C   UNL     1      -3.293  -2.146  24.498  0.00  0.00    +0.059 C 
ATOM     15  C   UNL     1      -3.909  -1.602  24.571  0.00  0.00    +0.005 C 
ATOM     18  C   UNL     1      -2.902  -2.867  24.408  0.00  0.00    +0.154 C 
ATOM     19  O   UNL     1      -3.336  -3.566  24.336  0.00  0.00    -0.223 OA
ATOM     20  C   UNL     1      -2.078  -2.890  24.391  0.00  0.00    +0.033 C 
ATOM     21  C   UNL     1      -1.644  -2.192  24.463  0.00  0.00    +0.003 C 
ATOM     22  C   UNL     1      -2.034  -1.470  24.552  0.00  0.00    +0.006 C 
ATOM     23  C   UNL     1      -1.211  -1.493  24.535  0.00  0.00    +0.000 C 
ATOM     24  S   UNL     1      -3.048   0.758  24.825  0.00  0.00    -0.054 S 
ATOM     25  C   UNL     1      -2.367   1.221  24.866  0.00  0.00    +0.185 A 
ATOM     26  N   UNL     1      -2.342   2.040  24.959  0.00  0.00    -0.151 NA
ATOM     27  C   UNL     1      -1.616   2.430  24.990  0.00  0.00    +0.271 C 
ATOM     28  O   UNL     1      -0.914   2.001  24.929  0.00  0.00    -0.268 OA
ATOM     37  N   UNL     1      -1.714   0.721  24.797  0.00  0.00    -0.227 NA
ENDROOT
BRANCH  27  29
ATOM     29  C   UNL     1      -1.591   3.250  25.083  0.00  0.00    +0.056 A 
ATOM     30  C   UNL     1      -2.217   3.643  25.446  0.00  0.00    +0.008 A 
ATOM     31  C   UNL     1      -2.192   4.463  25.540  0.00  0.00    +0.037 A 
ATOM     32  C   UNL     1      -1.539   4.888  25.269  0.00  0.00    +0.139 A 
ATOM     35  C   UNL     1      -0.911   4.494  24.905  0.00  0.00    +0.037 A 
ATOM     36  C   UNL     1      -0.938   3.675  24.813  0.00  0.00    +0.008 A 
BRANCH  32  33
ATOM     33  O   UNL     1      -1.513   5.708  25.362  0.00  0.00    -0.471 OA
ATOM     34  C   UNL     1      -1.339   6.190  24.714  0.00  0.00    +0.252 C 
ENDBRANCH  32  33
ENDBRANCH  27  29
BRANCH  14  16
ATOM     16  C   UNL     1      -3.940  -2.655  24.451  0.00  0.00    +0.184 C 
ATOM     17  O   UNL     1      -4.613  -2.429  24.029  0.00  0.00    -0.220 OA
ENDBRANCH  14  16
BRANCH   9   8
ATOM      8  C   UNL     1      -0.777  -0.795  24.607  0.00  0.00    +0.093 C 
BRANCH   8   6
ATOM      5  N   UNL     1       0.429  -0.424  23.936  0.00  0.00    -0.203 NA
ATOM      6  C   UNL     1      -0.374  -0.610  23.910  0.00  0.00    +0.242 C 
ATOM      7  O   UNL     1      -0.775  -0.611  23.190  0.00  0.00    -0.273 OA
BRANCH   5   4
ATOM      4  C   UNL     1       0.831  -0.239  23.239  0.00  0.00    +0.147 C 
BRANCH   4   3
ATOM      3  C   UNL     1       1.613   0.023  23.272  0.00  0.00    +0.166 C 
BRANCH   3   2
ATOM      1  C   UNL     1       2.851   0.307  22.618  0.00  0.00    +0.174 C 
ATOM      2  O   UNL     1       2.079   0.017  22.591  0.00  0.00    -0.349 OA
ENDBRANCH   3   2
ENDBRANCH   4   3
ENDBRANCH   5   4
ENDBRANCH   8   6
ENDBRANCH   9   8
TORSDOF 8
ENDMDL
MODEL 3
REMARK VINA RESULT:     -11.3      2.219      4.552
REMARK  Name = 
REMARK  8 active torsions:
REMARK  status: ('A' for Active; 'I' for Inactive)
REMARK    1  A    between atoms: O_2  and  C_3
REMARK    2  A    between atoms: C_3  and  C_4
REMARK    3  A    between atoms: C_4  and  N_5
REMARK    4  A    between atoms: C_6  and  C_8
REMARK    5  A    between atoms: C_8  and  C_9
REMARK    6  A    between atoms: C_14  and  C_16
REMARK    7  A    between atoms: C_27  and  C_29
REMARK    8  A    between atoms: C_32  and  O_33
REMARK                            x       y       z     vdW  Elec       q    Type
REMARK                         _______ _______ _______ _____ _____    ______ ____
ROOT
ATOM      9  C   UNL     1      -3.660   1.407  24.437  0.00  0.00    +0.050 C 
ATOM     10  C   UNL     1      -2.858   1.601  24.415  0.00  0.00    +0.063 A 
ATOM     11  C   UNL     1      -2.599   2.318  24.730  0.00  0.00    +0.023 A 
ATOM     12  C   UNL     1      -3.140   2.841  25.066  0.00  0.00    +0.034 C 
ATOM     13  C   UNL     1      -3.942   2.647  25.088  0.00  0.00    +0.010 C 
ATOM     14  C   UNL     1      -4.484   3.170  25.424  0.00  0.00    +0.059 C 
ATOM     15  C   UNL     1      -3.787   3.597  25.532  0.00  0.00    +0.005 C 
ATOM     18  C   UNL     1      -5.286   2.975  25.446  0.00  0.00    +0.154 C 
ATOM     19  O   UNL     1      -5.828   3.499  25.783  0.00  0.00    -0.223 OA
ATOM     20  C   UNL     1      -5.545   2.258  25.132  0.00  0.00    +0.033 C 
ATOM     21  C   UNL     1      -5.003   1.735  24.795  0.00  0.00    +0.003 C 
ATOM     22  C   UNL     1      -4.201   1.929  24.773  0.00  0.00    +0.006 C 
ATOM     23  C   UNL     1      -4.461   1.212  24.459  0.00  0.00    +0.000 C 
ATOM     24  S   UNL     1      -1.780   2.359  24.629  0.00  0.00    -0.054 S 
ATOM     25  C   UNL     1      -1.534   1.668  24.254  0.00  0.00    +0.185 A 
ATOM     26  N   UNL     1      -0.759   1.477  24.047  0.00  0.00    -0.151 NA
ATOM     27  C   UNL     1      -0.595   0.762  23.671  0.00  0.00    +0.271 C 
ATOM     28  O   UNL     1      -1.208   0.235  23.502  0.00  0.00    -0.268 OA
ATOM     37  N   UNL     1      -2.200   1.198  24.121  0.00  0.00    -0.227 NA
ENDROOT
BRANCH  27  29
ATOM     29  C   UNL     1       0.180   0.571  23.464  0.00  0.00    +0.056 A 
ATOM     30  C   UNL     1       0.796   1.087  23.650  0.00  0.00    +0.008 A 
ATOM     31  C   UNL     1       1.572   0.896  23.443  0.00  0.00    +0.037 A 
ATOM     32  C   UNL     1       1.731   0.189  23.049  0.00  0.00    +0.139 A 
ATOM     35  C   UNL     1       1.114  -0.327  22.862  0.00  0.00    +0.037 A 
ATOM     36  C   UNL     1       0.340  -0.136  23.069  0.00  0.00    +0.008 A 
BRANCH  32  33
ATOM     33  O   UNL     1       2.506  -0.002  22.841  0.00  0.00    -0.471 OA
ATOM     34  C   UNL     1       3.044   0.597  22.659  0.00  0.00    +0.252 C 
ENDBRANCH  32  33
ENDBRANCH  27  29
BRANCH  14  16
ATOM     16  C   UNL     1      -4.784   3.841  25.798  0.00  0.00    +0.184 C 
ATOM     17  O   UNL     1      -4.270   4.374  26.164  0.00  0.00    -0.220 OA
ENDBRANCH  14  16
BRANCH   9   8
ATOM      8  C   UNL     1      -3.919   0.689  24.122  0.00  0.00    +0.093 C 
BRANCH   8   6
ATOM      5  N   UNL     1      -3.913  -0.738  24.191  0.00  0.00    -0.203 NA
ATOM      6  C   UNL     1      -3.843  -0.005  24.563  0.00  0.00    +0.242 C 
ATOM      7  O   UNL     1      -3.699   0.035  25.373  0.00  0.00    -0.273 OA
BRANCH   5   4
ATOM      4  C   UNL     1      -3.838  -1.432  24.632  0.00  0.00    +0.147 C 
BRANCH   4   3
ATOM      3  C   UNL     1      -3.830  -2.163  24.250  0.00  0.00    +0.166 C 
BRANCH   3   2
ATOM      1  C   UNL     1      -3.102  -3.369  24.490  0.00  0.00    +0.174 C 
ATOM      2  O   UNL     1      -3.716  -2.855  24.686  0.00  0.00    -0.349 OA
ENDBRANCH   3   2
ENDBRANCH   4   3
ENDBRANCH   5   4
ENDBRANCH   8   6
ENDBRANCH   9   8
TORSDOF 8
ENDMDL
MODEL 4
REMARK VINA RESULT:     -11.1      0.983      5.438
REMARK  Name = 
REMARK  8 active torsions:
REMARK  status: ('A' for Active; 'I' for Inactive)
REMARK    1  A    between atoms: O_2  and  C_3
REMARK    2  A    between atoms: C_3  and  C_4
REMARK    3  A    between atoms: C_4  and  N_5
REMARK    4  A    between atoms: C_6  and  C_8
REMARK    5  A    between atoms: C_8  and  C_9
REMARK    6  A    between atoms: C_14  and  C_16
REMARK    7  A    between atoms: C_27  and  C_29
REMARK    8  A    between atoms: C_32  and  O_33
REMARK                            x       y       z     vdW  Elec       q    Type
REMARK                         _______ _______ _______ _____ _____    ______ ____
ROOT
ATOM      9  C   UNL     1      -2.580   3.149  25.352  0.00  0.00    +0.050 C 
ATOM     10  C   UNL     1      -2.396   2.412  25.031  0.00  0.00    +0.063 A 
ATOM     11  C   UNL     1      -1.708   2.317  24.586  0.00  0.00    +0.023 A 
ATOM     12  C   UNL     1      -1.205   2.957  24.462  0.00  0.00    +0.034 C 
ATOM     13  C   UNL     1      -1.388   3.695  24.783  0.00  0.00    +0.010 C 
ATOM     14  C   UNL     1      -0.885   4.336  24.660  0.00  0.00    +0.059 C 
ATOM     15  C   UNL     1      -0.476   3.752  24.246  0.00  0.00    +0.005 C 
ATOM     18  C   UNL     1      -1.070   5.073  24.982  0.00  0.00    +0.154 C 
ATOM     19  O   UNL     1      -0.565   5.715  24.858  0.00  0.00    -0.223 OA
ATOM     20  C   UNL     1      -1.757   5.169  25.426  0.00  0.00    +0.033 C 
ATOM     21  C   UNL     1      -2.261   4.527  25.550  0.00  0.00    +0.003 C 
ATOM     22  C   UNL     1      -2.077   3.790  25.229  0.00  0.00    +0.006 C 
ATOM     23  C   UNL     1      -2.765   3.886  25.674  0.00  0.00    +0.000 C 
ATOM     24  S   UNL     1      -1.671   1.529  24.340  0.00  0.00    -0.054 S 
ATOM     25  C   UNL     1      -2.336   1.139  24.632  0.00  0.00    +0.185 A 
ATOM     26  N   UNL     1      -2.521   0.343  24.518  0.00  0.00    -0.151 NA
ATOM     27  C   UNL     1      -3.208   0.028  24.846  0.00  0.00    +0.271 C 
ATOM     28  O   UNL     1      -3.712   0.509  25.289  0.00  0.00    -0.268 OA
ATOM     37  N   UNL     1      -2.784   1.684  25.060  0.00  0.00    -0.227 NA
ENDROOT
BRANCH  27  29
ATOM     29  C   UNL     1      -3.393  -0.768  24.732  0.00  0.00    +0.056 A 
ATOM     30  C   UNL     1      -3.893  -0.992  24.116  0.00  0.00    +0.008 A 
ATOM     31  C   UNL     1      -4.078  -1.788  24.002  0.00  0.00    +0.037 A 
ATOM     32  C   UNL     1      -3.763  -2.360  24.506  0.00  0.00    +0.139 A 
ATOM     35  C   UNL     1      -3.263  -2.137  25.123  0.00  0.00    +0.037 A 
ATOM     36  C   UNL     1      -3.078  -1.341  25.236  0.00  0.00    +0.008 A 
BRANCH  32  33
ATOM     33  O   UNL     1      -3.947  -3.156  24.393  0.00  0.00    -0.471 OA
ATOM     34  C   UNL     1      -3.398  -3.660  24.037  0.00  0.00    +0.252 C 
ENDBRANCH  32  33
ENDBRANCH  27  29
BRANCH  14  16
ATOM     16  C   UNL     1      -0.239   4.774  24.392  0.00  0.00    +0.184 C 
ATOM     17  O   UNL     1       0.177   4.529  23.723  0.00  0.00    -0.220 OA
ENDBRANCH  14  16
BRANCH   9   8
ATOM      8  C   UNL     1      -3.268   3.244  25.797  0.00  0.00    +0.093 C 
BRANCH   8   6
ATOM      5  N   UNL     1      -4.687   3.072  25.791  0.00  0.00    -0.203 NA
ATOM      6  C   UNL     1      -3.997   3.326  25.417  0.00  0.00    +0.242 C 
ATOM      7  O   UNL     1      -4.034   3.660  24.665  0.00  0.00    -0.273 OA
BRANCH   5   4
ATOM      4  C   UNL     1      -5.415   3.153  25.411  0.00  0.00    +0.147 C 
BRANCH   4   3
ATOM      3  C   UNL     1      -6.050   2.673  25.630  0.00  0.00    +0.166 C 
BRANCH   3   2
ATOM      1  C   UNL     1      -6.697   1.545  25.038  0.00  0.00    +0.174 C 
ATOM      2  O   UNL     1      -6.545   2.356  25.051  0.00  0.00    -0.349 OA
ENDBRANCH   3   2
ENDBRANCH   4   3
ENDBRANCH   5   4
ENDBRANCH   8   6
ENDBRANCH   9   8
TORSDOF 8
ENDMDL
MODEL 5
REMARK VINA RESULT:     -10.6      1.833      6.261
REMARK  Name = 
REMARK  8 active torsions:
REMARK  status: ('A' for Active; 'I' for Inactive)
REMARK    1  A    between atoms: O_2  and  C_3
REMARK    2  A    between atoms: C_3  and  C_4
REMARK    3  A    between atoms: C_4  and  N_5
REMARK    4  A    between atoms: C_6  and  C_8
REMARK    5  A    between atoms: C_8  and  C_9
REMARK    6  A    between atoms: C_14  and  C_16
REMARK    7  A    between atoms: C_27  and  C_29
REMARK    8  A    between atoms: C_32  and  O_33
REMARK                            x       y       z     vdW  Elec       q    Type
REMARK                         _______ _______ _______ _____ _____    ______ ____
ROOT
ATOM      9  C   UNL     1      -1.185   2.323  24.942  0.00  0.00    +0.050 C 
ATOM     10  C   UNL     1      -1.879   1.878  24.896  0.00  0.00    +0.063 A 
ATOM     11  C   UNL     1      -2.612   2.252  24.948  0.00  0.00    +0.023 A 
ATOM     12  C   UNL     1      -2.652   3.069  25.047  0.00  0.00    +0.034 C 
ATOM     13  C   UNL     1      -1.960   3.514  25.094  0.00  0.00    +0.010 C 
ATOM     14  C   UNL     1      -2.000   4.332  25.193  0.00  0.00    +0.059 C 
ATOM     15  C   UNL     1      -2.804   4.150  25.179  0.00  0.00    +0.005 C 
ATOM     18  C   UNL     1      -1.306   4.776  25.239  0.00  0.00    +0.154 C 
ATOM     19  O   UNL     1      -1.347   5.595  25.338  0.00  0.00    -0.223 OA
ATOM     20  C   UNL     1      -0.573   4.403  25.187  0.00  0.00    +0.033 C 
ATOM     21  C   UNL     1      -0.532   3.585  25.087  0.00  0.00    +0.003 C 
ATOM     22  C   UNL     1      -1.225   3.140  25.041  0.00  0.00    +0.006 C 
ATOM     23  C   UNL     1      -0.492   2.767  24.988  0.00  0.00    +0.000 C 
ATOM     24  S   UNL     1      -3.197   1.673  24.885  0.00  0.00    -0.054 S 
ATOM     25  C   UNL     1      -2.826   0.943  24.793  0.00  0.00    +0.185 A 
ATOM     26  N   UNL     1      -3.202   0.213  24.709  0.00  0.00    -0.151 NA
ATOM     27  C   UNL     1      -2.756  -0.474  24.621  0.00  0.00    +0.271 C 
ATOM     28  O   UNL     1      -1.932  -0.433  24.617  0.00  0.00    -0.268 OA
ATOM     37  N   UNL     1      -2.010   1.069  24.799  0.00  0.00    -0.227 NA
ENDROOT
BRANCH  27  29
ATOM     29  C   UNL     1      -3.132  -1.204  24.537  0.00  0.00    +0.056 A 
ATOM     30  C   UNL     1      -3.748  -1.290  23.996  0.00  0.00    +0.008 A 
ATOM     31  C   UNL     1      -4.125  -2.020  23.912  0.00  0.00    +0.037 A 
ATOM     32  C   UNL     1      -3.884  -2.663  24.370  0.00  0.00    +0.139 A 
ATOM     35  C   UNL     1      -3.267  -2.576  24.912  0.00  0.00    +0.037 A 
ATOM     36  C   UNL     1      -2.891  -1.846  24.995  0.00  0.00    +0.008 A 
BRANCH  32  33
ATOM     33  O   UNL     1      -4.259  -3.393  24.287  0.00  0.00    -0.471 OA
ATOM     34  C   UNL     1      -4.378  -3.712  23.535  0.00  0.00    +0.252 C 
ENDBRANCH  32  33
ENDBRANCH  27  29
BRANCH  14  16
ATOM     16  C   UNL     1      -2.320   5.086  25.287  0.00  0.00    +0.184 C 
ATOM     17  O   UNL     1      -3.049   5.181  25.662  0.00  0.00    -0.220 OA
ENDBRANCH  14  16
BRANCH   9   8
ATOM      8  C   UNL     1      -0.452   1.949  24.889  0.00  0.00    +0.093 C 
BRANCH   8   6
ATOM      5  N   UNL     1       0.425   1.134  24.108  0.00  0.00    -0.203 NA
ATOM      6  C   UNL     1      -0.161   1.713  24.153  0.00  0.00    +0.242 C 
ATOM      7  O   UNL     1      -0.457   2.056  23.464  0.00  0.00    -0.273 OA
BRANCH   5   4
ATOM      4  C   UNL     1       0.715   0.898  23.372  0.00  0.00    +0.147 C 
BRANCH   4   3
ATOM      3  C   UNL     1       1.276   0.296  23.325  0.00  0.00    +0.166 C 
BRANCH   3   2
ATOM      1  C   UNL     1       2.297  -0.046  22.385  0.00  0.00    +0.174 C 
ATOM      2  O   UNL     1       1.499  -0.003  22.588  0.00  0.00    -0.349 OA
ENDBRANCH   3   2
ENDBRANCH   4   3
ENDBRANCH   5   4
ENDBRANCH   8   6
ENDBRANCH   9   8
TORSDOF 8
ENDMDL
MODEL 6
REMARK VINA RESULT:      -9.9      2.958      3.918
REMARK  Name = 
REMARK  8 active torsions:
REMARK  status: ('A' for Active; 'I' for Inactive)
REMARK    1  A    between atoms: O_2  and  C_3
REMARK    2  A    between atoms: C_3  and  C_4
REMARK    3  A    between atoms: C_4  and  N_5
REMARK    4  A    between atoms: C_6  and  C_8
REMARK    5  A    between atoms: C_8  and  C_9
REMARK    6  A    between atoms: C_14  and  C_16
REMARK    7  A    between atoms: C_27  and  C_29
REMARK    8  A    between atoms: C_32  and  O_33
REMARK                            x       y       z     vdW  Elec       q    Type
REMARK                         _______ _______ _______ _____ _____    ______ ____
ROOT
ATOM      9  C   UNL     1      -1.924   0.451  24.327  0.00  0.00    +0.050 C 
ATOM     10  C   UNL     1      -1.205   0.073  24.175  0.00  0.00    +0.063 A 
ATOM     11  C   UNL     1      -1.128  -0.736  24.318  0.00  0.00    +0.023 A 
ATOM     12  C   UNL     1      -1.766  -1.167  24.611  0.00  0.00    +0.034 C 
ATOM     13  C   UNL     1      -2.484  -0.789  24.762  0.00  0.00    +0.010 C 
ATOM     14  C   UNL     1      -3.124  -1.220  25.055  0.00  0.00    +0.059 C 
ATOM     15  C   UNL     1      -2.560  -1.820  24.999  0.00  0.00    +0.005 C 
ATOM     18  C   UNL     1      -3.841  -0.842  25.206  0.00  0.00    +0.154 C 
ATOM     19  O   UNL     1      -4.481  -1.274  25.500  0.00  0.00    -0.223 OA
ATOM     20  C   UNL     1      -3.920  -0.034  25.064  0.00  0.00    +0.033 C 
ATOM     21  C   UNL     1      -3.280   0.397  24.771  0.00  0.00    +0.003 C 
ATOM     22  C   UNL     1      -2.562   0.020  24.619  0.00  0.00    +0.006 C 
ATOM     23  C   UNL     1      -2.641   0.828  24.477  0.00  0.00    +0.000 C 
ATOM     24  S   UNL     1      -0.358  -0.956  24.117  0.00  0.00    -0.054 S 
ATOM     25  C   UNL     1       0.039  -0.285  23.852  0.00  0.00    +0.185 A 
ATOM     26  N   UNL     1       0.823  -0.253  23.595  0.00  0.00    -0.151 NA
ATOM     27  C   UNL     1       1.147   0.462  23.344  0.00  0.00    +0.271 C 
ATOM     28  O   UNL     1       0.687   1.147  23.349  0.00  0.00    -0.268 OA
ATOM     37  N   UNL     1      -0.485   0.352  23.887  0.00  0.00    -0.227 NA
ENDROOT
BRANCH  27  29
ATOM     29  C   UNL     1       1.930   0.493  23.087  0.00  0.00    +0.056 A 
ATOM     30  C   UNL     1       2.219  -0.081  22.571  0.00  0.00    +0.008 A 
ATOM     31  C   UNL     1       3.003  -0.050  22.315  0.00  0.00    +0.037 A 
ATOM     32  C   UNL     1       3.497   0.557  22.574  0.00  0.00    +0.139 A 
ATOM     35  C   UNL     1       3.208   1.133  23.091  0.00  0.00    +0.037 A 
ATOM     36  C   UNL     1       2.425   1.101  23.347  0.00  0.00    +0.008 A 
BRANCH  32  33
ATOM     33  O   UNL     1       4.281   0.590  22.318  0.00  0.00    -0.471 OA
ATOM     34  C   UNL     1       4.893   0.401  22.840  0.00  0.00    +0.252 C 
ENDBRANCH  32  33
ENDBRANCH  27  29
BRANCH  14  16
ATOM     16  C   UNL     1      -3.567  -1.860  25.329  0.00  0.00    +0.184 C 
ATOM     17  O   UNL     1      -3.286  -2.629  25.230  0.00  0.00    -0.220 OA
ENDBRANCH  14  16
BRANCH   9   8
ATOM      8  C   UNL     1      -2.002   1.259  24.184  0.00  0.00    +0.093 C 
BRANCH   8   6
ATOM      5  N   UNL     1      -1.668   2.603  24.540  0.00  0.00    -0.203 NA
ATOM      6  C   UNL     1      -1.724   1.804  24.739  0.00  0.00    +0.242 C 
ATOM      7  O   UNL     1      -1.503   1.550  25.491  0.00  0.00    -0.273 OA
BRANCH   5   4
ATOM      4  C   UNL     1      -1.390   3.147  25.095  0.00  0.00    +0.147 C 
BRANCH   4   3
ATOM      3  C   UNL     1      -1.198   3.914  24.858  0.00  0.00    +0.166 C 
BRANCH   3   2
ATOM      1  C   UNL     1      -1.235   5.324  25.086  0.00  0.00    +0.174 C 
ATOM      2  O   UNL     1      -1.405   4.556  25.335  0.00  0.00    -0.349 OA
ENDBRANCH   3   2
ENDBRANCH   4   3
ENDBRANCH   5   4
ENDBRANCH   8   6
ENDBRANCH   9   8
TORSDOF 8
ENDMDL
MODEL 7
REMARK VINA RESULT:      -9.9      1.192      3.369
REMARK  Name = 
REMARK  8 active torsions:
REMARK  status: ('A' for Active; 'I' for Inactive)
REMARK    1  A    between atoms: O_2  and  C_3
REMARK    2  A    between atoms: C_3  and  C_4
REMARK    3  A    between atoms: C_4  and  N_5
REMARK    4  A    between atoms: C_6  and  C_8
REMARK    5  A    between atoms: C_8  and  C_9
REMARK    6  A    between atoms: C_14  and  C_16
REMARK    7  A    between atoms: C_27  and  C_29
REMARK    8  A    between atoms: C_32  and  O_33
REMARK                            x       y       z     vdW  Elec       q    Type
REMARK                         _______ _______ _______ _____ _____    ______ ____
ROOT
ATOM      9  C   UNL     1      -2.374  -0.336  25.001  0.00  0.00    +0.050 C 
ATOM     10  C   UNL     1      -3.121   0.015  24.977  0.00  0.00    +0.063 A 
ATOM     11  C   UNL     1      -3.779  -0.433  24.759  0.00  0.00    +0.023 A 
ATOM     12  C   UNL     1      -3.691  -1.229  24.566  0.00  0.00    +0.034 C 
ATOM     13  C   UNL     1      -2.945  -1.580  24.591  0.00  0.00    +0.010 C 
ATOM     14  C   UNL     1      -2.857  -2.377  24.398  0.00  0.00    +0.059 C 
ATOM     15  C   UNL     1      -3.671  -2.294  24.293  0.00  0.00    +0.005 C 
ATOM     18  C   UNL     1      -2.111  -2.727  24.423  0.00  0.00    +0.154 C 
ATOM     19  O   UNL     1      -2.022  -3.525  24.229  0.00  0.00    -0.223 OA
ATOM     20  C   UNL     1      -1.452  -2.281  24.640  0.00  0.00    +0.033 C 
ATOM     21  C   UNL     1      -1.540  -1.484  24.833  0.00  0.00    +0.003 C 
ATOM     22  C   UNL     1      -2.286  -1.133  24.809  0.00  0.00    +0.006 C 
ATOM     23  C   UNL     1      -1.628  -0.686  25.026  0.00  0.00    +0.000 C 
ATOM     24  S   UNL     1      -4.441   0.061  24.784  0.00  0.00    -0.054 S 
ATOM     25  C   UNL     1      -4.192   0.811  25.017  0.00  0.00    +0.185 A 
ATOM     26  N   UNL     1      -4.673   1.474  25.114  0.00  0.00    -0.151 NA
ATOM     27  C   UNL     1      -4.344   2.192  25.351  0.00  0.00    +0.271 C 
ATOM     28  O   UNL     1      -3.533   2.247  25.491  0.00  0.00    -0.268 OA
ATOM     37  N   UNL     1      -3.375   0.783  25.136  0.00  0.00    -0.227 NA
ENDROOT
BRANCH  27  29
ATOM     29  C   UNL     1      -4.825   2.855  25.448  0.00  0.00    +0.056 A 
ATOM     30  C   UNL     1      -4.533   3.606  25.275  0.00  0.00    +0.008 A 
ATOM     31  C   UNL     1      -5.014   4.270  25.373  0.00  0.00    +0.037 A 
ATOM     32  C   UNL     1      -5.789   4.180  25.643  0.00  0.00    +0.139 A 
ATOM     35  C   UNL     1      -6.082   3.428  25.817  0.00  0.00    +0.037 A 
ATOM     36  C   UNL     1      -5.600   2.766  25.719  0.00  0.00    +0.008 A 
BRANCH  32  33
ATOM     33  O   UNL     1      -6.271   4.843  25.741  0.00  0.00    -0.471 OA
ATOM     34  C   UNL     1      -6.258   5.448  25.179  0.00  0.00    +0.252 C 
ENDBRANCH  32  33
ENDBRANCH  27  29
BRANCH  14  16
ATOM     16  C   UNL     1      -3.052  -3.145  24.168  0.00  0.00    +0.184 C 
ATOM     17  O   UNL     1      -3.842  -3.351  24.046  0.00  0.00    -0.220 OA
ENDBRANCH  14  16
BRANCH   9   8
ATOM      8  C   UNL     1      -1.716   0.111  25.219  0.00  0.00    +0.093 C 
BRANCH   8   6
ATOM      5  N   UNL     1      -0.920   1.265  24.942  0.00  0.00    -0.203 NA
ATOM      6  C   UNL     1      -1.370   0.627  24.675  0.00  0.00    +0.242 C 
ATOM      7  O   UNL     1      -1.475   0.505  23.867  0.00  0.00    -0.273 OA
BRANCH   5   4
ATOM      4  C   UNL     1      -0.574   1.781  24.398  0.00  0.00    +0.147 C 
BRANCH   4   3
ATOM      3  C   UNL     1      -0.256   2.497  24.655  0.00  0.00    +0.166 C 
BRANCH   3   2
ATOM      1  C   UNL     1      -0.408   3.914  24.544  0.00  0.00    +0.174 C 
ATOM      2  O   UNL     1      -0.333   3.174  24.188  0.00  0.00    -0.349 OA
ENDBRANCH   3   2
ENDBRANCH   4   3
ENDBRANCH   5   4
ENDBRANCH   8   6
ENDBRANCH   9   8
TORSDOF 8
ENDMDL
MODEL 8
REMARK VINA RESULT:      -8.9      2.275      4.545
REMARK  Name = 
REMARK  8 active torsions:
REMARK  status: ('A' for Active; 'I' for Inactive)
REMARK    1  A    between atoms: O_2  and  C_3
REMARK    2  A    between atoms: C_3  and  C_4
REMARK    3  A    between atoms: C_4  and  N_5
REMARK    4  A    between atoms: C_6  and  C_8
REMARK    5  A    between atoms: C_8  and  C_9
REMARK    6  A    between atoms: C_14  and  C_16
REMARK    7  A    between atoms: C_27  and  C_29
REMARK    8  A    between atoms: C_32  and  O_33
REMARK                            x       y       z     vdW  Elec       q    Type
REMARK                         _______ _______ _______ _____ _____    ______ ____
ROOT
ATOM      9  C   UNL     1      -3.468   2.523  25.311  0.00  0.00    +0.050 C 
ATOM     10  C   UNL     1      -3.100   1.926  24.876  0.00  0.00    +0.063 A 
ATOM     11  C   UNL     1      -3.554   1.340  24.515  0.00  0.00    +0.023 A 
ATOM     12  C   UNL     1      -4.375   1.350  24.588  0.00  0.00    +0.034 C 
ATOM     13  C   UNL     1      -4.743   1.946  25.022  0.00  0.00    +0.010 C 
ATOM     14  C   UNL     1      -5.565   1.956  25.096  0.00  0.00    +0.059 C 
ATOM     15  C   UNL     1      -5.471   1.282  24.631  0.00  0.00    +0.005 C 
ATOM     18  C   UNL     1      -5.932   2.553  25.531  0.00  0.00    +0.154 C 
ATOM     19  O   UNL     1      -6.755   2.564  25.604  0.00  0.00    -0.223 OA
ATOM     20  C   UNL     1      -5.479   3.140  25.892  0.00  0.00    +0.033 C 
ATOM     21  C   UNL     1      -4.657   3.130  25.819  0.00  0.00    +0.003 C 
ATOM     22  C   UNL     1      -4.289   2.533  25.384  0.00  0.00    +0.006 C 
ATOM     23  C   UNL     1      -3.836   3.120  25.745  0.00  0.00    +0.000 C 
ATOM     24  S   UNL     1      -3.040   0.825  24.124  0.00  0.00    -0.054 S 
ATOM     25  C   UNL     1      -2.270   1.094  24.243  0.00  0.00    +0.185 A 
ATOM     26  N   UNL     1      -1.582   0.744  23.950  0.00  0.00    -0.151 NA
ATOM     27  C   UNL     1      -0.847   1.076  24.116  0.00  0.00    +0.271 C 
ATOM     28  O   UNL     1      -0.797   1.760  24.576  0.00  0.00    -0.268 OA
ATOM     37  N   UNL     1      -2.306   1.775  24.709  0.00  0.00    -0.227 NA
ENDROOT
BRANCH  27  29
ATOM     29  C   UNL     1      -0.159   0.726  23.823  0.00  0.00    +0.056 A 
ATOM     30  C   UNL     1      -0.150  -0.078  23.641  0.00  0.00    +0.008 A 
ATOM     31  C   UNL     1       0.537  -0.428  23.348  0.00  0.00    +0.037 A 
ATOM     32  C   UNL     1       1.216   0.028  23.237  0.00  0.00    +0.139 A 
ATOM     35  C   UNL     1       1.207   0.833  23.419  0.00  0.00    +0.037 A 
ATOM     36  C   UNL     1       0.520   1.182  23.712  0.00  0.00    +0.008 A 
BRANCH  32  33
ATOM     33  O   UNL     1       1.904  -0.321  22.944  0.00  0.00    -0.471 OA
ATOM     34  C   UNL     1       2.336   0.056  22.350  0.00  0.00    +0.252 C 
ENDBRANCH  32  33
ENDBRANCH  27  29
BRANCH  14  16
ATOM     16  C   UNL     1      -6.354   1.732  25.008  0.00  0.00    +0.184 C 
ATOM     17  O   UNL     1      -6.549   1.093  24.523  0.00  0.00    -0.220 OA
ENDBRANCH  14  16
BRANCH   9   8
ATOM      8  C   UNL     1      -3.014   3.110  25.672  0.00  0.00    +0.093 C 
BRANCH   8   6
ATOM      5  N   UNL     1      -2.081   4.178  25.496  0.00  0.00    -0.203 NA
ATOM      6  C   UNL     1      -2.727   3.742  25.225  0.00  0.00    +0.242 C 
ATOM      7  O   UNL     1      -3.087   3.938  24.510  0.00  0.00    -0.273 OA
BRANCH   5   4
ATOM      4  C   UNL     1      -1.795   4.810  25.050  0.00  0.00    +0.147 C 
BRANCH   4   3
ATOM      3  C   UNL     1      -1.016   5.065  25.149  0.00  0.00    +0.166 C 
BRANCH   3   2
ATOM      1  C   UNL     1       0.072   5.073  24.223  0.00  0.00    +0.174 C 
ATOM      2  O   UNL     1      -0.615   5.419  24.520  0.00  0.00    -0.349 OA
ENDBRANCH   3   2
ENDBRANCH   4   3
ENDBRANCH   5   4
ENDBRANCH   8   6
ENDBRANCH   9   8
TORSDOF 8
ENDMDL
