MODEL 1
REMARK VINA RESULT:      -8.5      0.000      0.000
REMARK  Name = 
REMARK  8 active torsions:
REMARK  status: ('A' for Active; 'I' for Inactive)
REMARK    1  A    between atoms: O_2  and  C_3
REMARK    2  A    between atoms: C_3  and  C_4
REMARK    3  A    between atoms: C_4  and  N_5
REMARK    4  A    between atoms: N_5  and  C_6
REMARK    5  A    between atoms: C_9  and  C_12
REMARK    6  A    between atoms: C_15  and  C_17
REMARK    7  A    between atoms: N_21  and  C_22
REMARK    8  A    between atoms: C_22  and  C_23
REMARK                            x       y       z     vdW  Elec       q    Type
REMARK                         _______ _______ _______ _____ _____    ______ ____
ROOT
ATOM     12  C   UNL     1      -1.179   0.087  24.543  0.00  0.00    +0.205 A 
ATOM     13  N   UNL     1      -1.222   0.004  25.363  0.00  0.00    -0.056 NA
ATOM     14  O   UNL     1      -2.015   0.059  25.584  0.00  0.00    -0.336 OA
ATOM     15  C   UNL     1      -2.462   0.177  24.901  0.00  0.00    +0.251 A 
ATOM     16  N   UNL     1      -1.945   0.194  24.258  0.00  0.00    -0.190 NA
ENDROOT
BRANCH  12   9
ATOM      6  C   UNL     1       0.888   0.027  23.182  0.00  0.00    +0.148 A 
ATOM      7  C   UNL     1       0.498   0.744  23.311  0.00  0.00    +0.036 A 
ATOM      8  C   UNL     1      -0.190   0.764  23.765  0.00  0.00    +0.008 A 
ATOM      9  C   UNL     1      -0.490   0.067  24.090  0.00  0.00    +0.058 A 
ATOM     10  C   UNL     1      -0.102  -0.649  23.961  0.00  0.00    +0.103 A 
ATOM     11  N   UNL     1       0.587  -0.668  23.508  0.00  0.00    -0.228 NA
BRANCH   6   5
ATOM      5  N   UNL     1       1.576   0.007  22.728  0.00  0.00    -0.218 NA
BRANCH   5   4
ATOM      4  C   UNL     1       2.259   0.383  22.998  0.00  0.00    +0.146 C 
BRANCH   4   3
ATOM      3  C   UNL     1       2.972   0.281  22.597  0.00  0.00    +0.166 C 
BRANCH   3   2
ATOM      1  C   UNL     1       4.364   0.527  22.807  0.00  0.00    +0.174 C 
ATOM      2  O   UNL     1       3.594   0.810  22.719  0.00  0.00    -0.349 OA
ENDBRANCH   3   2
ENDBRANCH   4   3
ENDBRANCH   5   4
ENDBRANCH   6   5
ENDBRANCH  12   9
BRANCH  15  17
ATOM     17  C   UNL     1      -3.282   0.262  24.866  0.00  0.00    +0.138 C 
ATOM     18  C   UNL     1      -3.830  -0.350  24.788  0.00  0.00    +0.027 C 
ATOM     19  C   UNL     1      -4.585  -0.016  24.777  0.00  0.00    +0.019 C 
ATOM     20  C   UNL     1      -4.503   0.802  24.847  0.00  0.00    +0.073 C 
ATOM     21  N   UNL     1      -3.697   0.974  24.902  0.00  0.00    -0.263 NA
BRANCH  21  22
ATOM     22  C   UNL     1      -3.366   1.725  24.980  0.00  0.00    +0.101 C 
BRANCH  22  23
ATOM     23  C   UNL     1      -3.850   2.393  24.962  0.00  0.00    +0.013 A 
ATOM     24  C   UNL     1      -3.952   2.810  24.256  0.00  0.00    +0.000 A 
ATOM     25  C   UNL     1      -4.435   3.477  24.238  0.00  0.00    +0.020 A 
ATOM     26  C   UNL     1      -4.817   3.729  24.924  0.00  0.00    +0.099 A 
ATOM     27  N   UNL     1      -4.716   3.313  25.629  0.00  0.00    -0.243 NA
ATOM     28  C   UNL     1      -4.232   2.645  25.648  0.00  0.00    +0.096 A 
ENDBRANCH  22  23
ENDBRANCH  21  22
ENDBRANCH  15  17
TORSDOF 8
ENDMDL
MODEL 2
REMARK VINA RESULT:      -7.9      2.417      3.746
REMARK  Name = 
REMARK  8 active torsions:
REMARK  status: ('A' for Active; 'I' for Inactive)
REMARK    1  A    between atoms: O_2  and  C_3
REMARK    2  A    between atoms: C_3  and  C_4
REMARK    3  A    between atoms: C_4  and  N_5
REMARK    4  A    between atoms: N_5  and  C_6
REMARK    5  A    between atoms: C_9  and  C_12
REMARK    6  A    between atoms: C_15  and  C_17
REMARK    7  A    between atoms: N_21  and  C_22
REMARK    8  A    between atoms: C_22  and  C_23
REMARK                            x       y       z     vdW  Elec       q    Type
REMARK                         _______ _______ _______ _____ _____    ______ ____
ROOT
ATOM     12  C   UNL     1      -0.648   1.695  25.379  0.00  0.00    +0.205 A 
ATOM     13  N   UNL     1      -0.022   2.043  25.792  0.00  0.00    -0.056 NA
ATOM     14  O   UNL     1      -0.157   2.856  25.820  0.00  0.00    -0.336 OA
ATOM     15  C   UNL     1      -0.865   3.011  25.426  0.00  0.00    +0.251 A 
ATOM     16  N   UNL     1      -1.168   2.293  25.154  0.00  0.00    -0.190 NA
ENDROOT
BRANCH  12   9
ATOM      6  C   UNL     1      -0.912  -0.720  24.905  0.00  0.00    +0.148 A 
ATOM      7  C   UNL     1      -1.124  -0.418  25.644  0.00  0.00    +0.036 A 
ATOM      8  C   UNL     1      -1.036   0.386  25.802  0.00  0.00    +0.008 A 
ATOM      9  C   UNL     1      -0.736   0.890  25.221  0.00  0.00    +0.058 A 
ATOM     10  C   UNL     1      -0.524   0.589  24.484  0.00  0.00    +0.103 A 
ATOM     11  N   UNL     1      -0.612  -0.215  24.325  0.00  0.00    -0.228 NA
BRANCH   6   5
ATOM      5  N   UNL     1      -1.000  -1.525  24.747  0.00  0.00    -0.218 NA
BRANCH   5   4
ATOM      4  C   UNL     1      -1.687  -1.800  24.384  0.00  0.00    +0.146 C 
BRANCH   4   3
ATOM      3  C   UNL     1      -1.942  -2.573  24.518  0.00  0.00    +0.166 C 
BRANCH   3   2
ATOM      1  C   UNL     1      -3.296  -3.034  24.505  0.00  0.00    +0.174 C 
ATOM      2  O   UNL     1      -2.593  -2.871  24.106  0.00  0.00    -0.349 OA
ENDBRANCH   3   2
ENDBRANCH   4   3
ENDBRANCH   5   4
ENDBRANCH   6   5
ENDBRANCH  12   9
BRANCH  15  17
ATOM     17  C   UNL     1      -1.210   3.753  25.322  0.00  0.00    +0.138 C 
ATOM     18  C   UNL     1      -0.828   4.432  25.049  0.00  0.00    +0.027 C 
ATOM     19  C   UNL     1      -1.380   5.045  25.031  0.00  0.00    +0.019 C 
ATOM     20  C   UNL     1      -2.102   4.746  25.293  0.00  0.00    +0.073 C 
ATOM     21  N   UNL     1      -1.998   3.948  25.473  0.00  0.00    -0.263 NA
BRANCH  21  22
ATOM     22  C   UNL     1      -2.579   3.434  25.755  0.00  0.00    +0.101 C 
BRANCH  22  23
ATOM     23  C   UNL     1      -3.375   3.599  25.620  0.00  0.00    +0.013 A 
ATOM     24  C   UNL     1      -3.722   3.397  24.898  0.00  0.00    +0.000 A 
ATOM     25  C   UNL     1      -4.518   3.561  24.764  0.00  0.00    +0.020 A 
ATOM     26  C   UNL     1      -4.969   3.927  25.349  0.00  0.00    +0.099 A 
ATOM     27  N   UNL     1      -4.624   4.129  26.071  0.00  0.00    -0.243 NA
ATOM     28  C   UNL     1      -3.826   3.965  26.206  0.00  0.00    +0.096 A 
ENDBRANCH  22  23
ENDBRANCH  21  22
ENDBRANCH  15  17
TORSDOF 8
ENDMDL
MODEL 3
REMARK VINA RESULT:      -7.5      1.663      2.827
REMARK  Name = 
REMARK  8 active torsions:
REMARK  status: ('A' for Active; 'I' for Inactive)
REMARK    1  A    between atoms: O_2  and  C_3
REMARK    2  A    between atoms: C_3  and  C_4
REMARK    3  A    between atoms: C_4  and  N_5
REMARK    4  A    between atoms: N_5  and  C_6
REMARK    5  A    between atoms: C_9  and  C_12
REMARK    6  A    between atoms: C_15  and  C_17
REMARK    7  A    between atoms: N_21  and  C_22
REMARK    8  A    between atoms: C_22  and  C_23
REMARK                            x       y       z     vdW  Elec       q    Type
REMARK                         _______ _______ _______ _____ _____    ______ ____
ROOT
ATOM     12  C   UNL     1      -0.128   0.899  24.010  0.00  0.00    +0.205 A 
ATOM     13  N   UNL     1      -0.272   1.272  24.732  0.00  0.00    -0.056 NA
ATOM     14  O   UNL     1      -1.085   1.259  24.869  0.00  0.00    -0.336 OA
ATOM     15  C   UNL     1      -1.445   0.877  24.232  0.00  0.00    +0.251 A 
ATOM     16  N   UNL     1      -0.853   0.655  23.701  0.00  0.00    -0.190 NA
ENDROOT
BRANCH  12   9
ATOM      6  C   UNL     1       2.088   0.569  22.958  0.00  0.00    +0.148 A 
ATOM      7  C   UNL     1       1.496   0.002  22.861  0.00  0.00    +0.036 A 
ATOM      8  C   UNL     1       0.758   0.111  23.212  0.00  0.00    +0.008 A 
ATOM      9  C   UNL     1       0.610   0.789  23.660  0.00  0.00    +0.058 A 
ATOM     10  C   UNL     1       1.201   1.356  23.756  0.00  0.00    +0.103 A 
ATOM     11  N   UNL     1       1.939   1.246  23.406  0.00  0.00    -0.228 NA
BRANCH   6   5
ATOM      5  N   UNL     1       2.826   0.460  22.607  0.00  0.00    -0.218 NA
BRANCH   5   4
ATOM      4  C   UNL     1       3.510   0.498  23.066  0.00  0.00    +0.146 C 
BRANCH   4   3
ATOM      3  C   UNL     1       4.247   0.361  22.721  0.00  0.00    +0.166 C 
BRANCH   3   2
ATOM      1  C   UNL     1       5.436   0.005  23.430  0.00  0.00    +0.174 C 
ATOM      2  O   UNL     1       4.936   0.582  23.118  0.00  0.00    -0.349 OA
ENDBRANCH   3   2
ENDBRANCH   4   3
ENDBRANCH   5   4
ENDBRANCH   6   5
ENDBRANCH  12   9
BRANCH  15  17
ATOM     17  C   UNL     1      -2.253   0.742  24.141  0.00  0.00    +0.138 C 
ATOM     18  C   UNL     1      -2.785   1.230  23.741  0.00  0.00    +0.027 C 
ATOM     19  C   UNL     1      -3.533   0.884  23.786  0.00  0.00    +0.019 C 
ATOM     20  C   UNL     1      -3.463   0.182  24.214  0.00  0.00    +0.073 C 
ATOM     21  N   UNL     1      -2.672   0.094  24.433  0.00  0.00    -0.263 NA
BRANCH  21  22
ATOM     22  C   UNL     1      -2.357  -0.532  24.867  0.00  0.00    +0.101 C 
BRANCH  22  23
ATOM     23  C   UNL     1      -2.767  -1.246  24.920  0.00  0.00    +0.013 A 
ATOM     24  C   UNL     1      -2.635  -1.839  24.361  0.00  0.00    +0.000 A 
ATOM     25  C   UNL     1      -3.045  -2.553  24.414  0.00  0.00    +0.020 A 
ATOM     26  C   UNL     1      -3.586  -2.674  25.024  0.00  0.00    +0.099 A 
ATOM     27  N   UNL     1      -3.718  -2.082  25.583  0.00  0.00    -0.243 NA
ATOM     28  C   UNL     1      -3.308  -1.367  25.530  0.00  0.00    +0.096 A 
ENDBRANCH  22  23
ENDBRANCH  21  22
ENDBRANCH  15  17
TORSDOF 8
ENDMDL
MODEL 4
REMARK VINA RESULT:      -7.4      1.389      2.122
REMARK  Name = 
REMARK  8 active torsions:
REMARK  status: ('A' for Active; 'I' for Inactive)
REMARK    1  A    between atoms: O_2  and  C_3
REMARK    2  A    between atoms: C_3  and  C_4
REMARK    3  A    between atoms: C_4  and  N_5
REMARK    4  A    between atoms: N_5  and  C_6
REMARK    5  A    between atoms: C_9  and  C_12
REMARK    6  A    between atoms: C_15  and  C_17
REMARK    7  A    between atoms: N_21  and  C_22
REMARK    8  A    between atoms: C_22  and  C_23
REMARK                            x       y       z     vdW  Elec       q    Type
REMARK                         _______ _______ _______ _____ _____    ______ ____
ROOT
ATOM     12  C   UNL     1      -0.976   2.003  24.818  0.00  0.00    +0.205 A 
ATOM     13  N   UNL     1      -1.051   2.031  25.639  0.00  0.00    -0.056 NA
ATOM     14  O   UNL     1      -1.682   2.531  25.821  0.00  0.00    -0.336 OA
ATOM     15  C   UNL     1      -1.997   2.812  25.112  0.00  0.00    +0.251 A 
ATOM     16  N   UNL     1      -1.561   2.485  24.492  0.00  0.00    -0.190 NA
ENDROOT
BRANCH  12   9
ATOM      6  C   UNL     1       0.707   0.701  23.554  0.00  0.00    +0.148 A 
ATOM      7  C   UNL     1      -0.048   0.389  23.678  0.00  0.00    +0.036 A 
ATOM      8  C   UNL     1      -0.609   0.824  24.100  0.00  0.00    +0.008 A 
ATOM      9  C   UNL     1      -0.415   1.569  24.396  0.00  0.00    +0.058 A 
ATOM     10  C   UNL     1       0.338   1.880  24.272  0.00  0.00    +0.103 A 
ATOM     11  N   UNL     1       0.899   1.446  23.851  0.00  0.00    -0.228 NA
BRANCH   6   5
ATOM      5  N   UNL     1       1.268   0.266  23.133  0.00  0.00    -0.218 NA
BRANCH   5   4
ATOM      4  C   UNL     1       2.035   0.556  23.050  0.00  0.00    +0.146 C 
BRANCH   4   3
ATOM      3  C   UNL     1       2.602   0.110  22.649  0.00  0.00    +0.166 C 
BRANCH   3   2
ATOM      1  C   UNL     1       4.001   0.394  22.556  0.00  0.00    +0.174 C 
ATOM      2  O   UNL     1       3.232   0.488  22.271  0.00  0.00    -0.349 OA
ENDBRANCH   3   2
ENDBRANCH   4   3
ENDBRANCH   5   4
ENDBRANCH   6   5
ENDBRANCH  12   9
BRANCH  15  17
ATOM     17  C   UNL     1      -2.636   3.328  25.036  0.00  0.00    +0.138 C 
ATOM     18  C   UNL     1      -2.589   4.140  24.897  0.00  0.00    +0.027 C 
ATOM     19  C   UNL     1      -3.358   4.437  24.861  0.00  0.00    +0.019 C 
ATOM     20  C   UNL     1      -3.880   3.809  24.977  0.00  0.00    +0.073 C 
ATOM     21  N   UNL     1      -3.433   3.123  25.085  0.00  0.00    -0.263 NA
BRANCH  21  22
ATOM     22  C   UNL     1      -3.733   2.367  25.219  0.00  0.00    +0.101 C 
BRANCH  22  23
ATOM     23  C   UNL     1      -4.547   2.240  25.221  0.00  0.00    +0.013 A 
ATOM     24  C   UNL     1      -4.909   1.875  24.575  0.00  0.00    +0.000 A 
ATOM     25  C   UNL     1      -5.724   1.748  24.577  0.00  0.00    +0.020 A 
ATOM     26  C   UNL     1      -6.178   1.984  25.223  0.00  0.00    +0.099 A 
ATOM     27  N   UNL     1      -5.816   2.349  25.870  0.00  0.00    -0.243 NA
ATOM     28  C   UNL     1      -5.001   2.476  25.868  0.00  0.00    +0.096 A 
ENDBRANCH  22  23
ENDBRANCH  21  22
ENDBRANCH  15  17
TORSDOF 8
ENDMDL
MODEL 5
REMARK VINA RESULT:      -7.4      3.377      4.651
REMARK  Name = 
REMARK  8 active torsions:
REMARK  status: ('A' for Active; 'I' for Inactive)
REMARK    1  A    between atoms: O_2  and  C_3
REMARK    2  A    between atoms: C_3  and  C_4
REMARK    3  A    between atoms: C_4  and  N_5
REMARK    4  A    between atoms: N_5  and  C_6
REMARK    5  A    between atoms: C_9  and  C_12
REMARK    6  A    between atoms: C_15  and  C_17
REMARK    7  A    between atoms: N_21  and  C_22
REMARK    8  A    between atoms: C_22  and  C_23
REMARK                            x       y       z     vdW  Elec       q    Type
REMARK                         _______ _______ _______ _____ _____    ______ ____
ROOT
ATOM     12  C   UNL     1      -4.273   1.701  24.640  0.00  0.00    +0.205 A 
ATOM     13  N   UNL     1      -4.755   2.242  24.245  0.00  0.00    -0.056 NA
ATOM     14  O   UNL     1      -4.627   2.987  24.576  0.00  0.00    -0.336 OA
ATOM     15  C   UNL     1      -4.066   2.906  25.175  0.00  0.00    +0.251 A 
ATOM     16  N   UNL     1      -3.847   2.111  25.215  0.00  0.00    -0.190 NA
ENDROOT
BRANCH  12   9
ATOM      6  C   UNL     1      -4.132  -0.727  24.179  0.00  0.00    +0.148 A 
ATOM      7  C   UNL     1      -4.586  -0.452  24.811  0.00  0.00    +0.036 A 
ATOM      8  C   UNL     1      -4.634   0.357  24.965  0.00  0.00    +0.008 A 
ATOM      9  C   UNL     1      -4.226   0.892  24.486  0.00  0.00    +0.058 A 
ATOM     10  C   UNL     1      -3.772   0.618  23.855  0.00  0.00    +0.103 A 
ATOM     11  N   UNL     1      -3.725  -0.191  23.701  0.00  0.00    -0.228 NA
BRANCH   6   5
ATOM      5  N   UNL     1      -4.085  -1.536  24.025  0.00  0.00    -0.218 NA
BRANCH   5   4
ATOM      4  C   UNL     1      -3.594  -2.014  24.483  0.00  0.00    +0.146 C 
BRANCH   4   3
ATOM      3  C   UNL     1      -3.279  -2.707  24.165  0.00  0.00    +0.166 C 
BRANCH   3   2
ATOM      1  C   UNL     1      -1.901  -2.989  24.417  0.00  0.00    +0.174 C 
ATOM      2  O   UNL     1      -2.699  -3.125  24.577  0.00  0.00    -0.349 OA
ENDBRANCH   3   2
ENDBRANCH   4   3
ENDBRANCH   5   4
ENDBRANCH   6   5
ENDBRANCH  12   9
BRANCH  15  17
ATOM     17  C   UNL     1      -3.774   3.513  25.652  0.00  0.00    +0.138 C 
ATOM     18  C   UNL     1      -4.116   3.787  26.352  0.00  0.00    +0.027 C 
ATOM     19  C   UNL     1      -3.642   4.396  26.645  0.00  0.00    +0.019 C 
ATOM     20  C   UNL     1      -3.008   4.498  26.127  0.00  0.00    +0.073 C 
ATOM     21  N   UNL     1      -3.090   3.952  25.513  0.00  0.00    -0.263 NA
BRANCH  21  22
ATOM     22  C   UNL     1      -2.577   3.862  24.874  0.00  0.00    +0.101 C 
BRANCH  22  23
ATOM     23  C   UNL     1      -1.809   4.160  24.916  0.00  0.00    +0.013 A 
ATOM     24  C   UNL     1      -1.667   4.959  24.763  0.00  0.00    +0.000 A 
ATOM     25  C   UNL     1      -0.900   5.257  24.805  0.00  0.00    +0.020 A 
ATOM     26  C   UNL     1      -0.273   4.757  24.999  0.00  0.00    +0.099 A 
ATOM     27  N   UNL     1      -0.414   3.958  25.151  0.00  0.00    -0.243 NA
ATOM     28  C   UNL     1      -1.182   3.660  25.109  0.00  0.00    +0.096 A 
ENDBRANCH  22  23
ENDBRANCH  21  22
ENDBRANCH  15  17
TORSDOF 8
ENDMDL
MODEL 6
REMARK VINA RESULT:      -7.2      2.792      3.967
REMARK  Name = 
REMARK  8 active torsions:
REMARK  status: ('A' for Active; 'I' for Inactive)
REMARK    1  A    between atoms: O_2  and  C_3
REMARK    2  A    between atoms: C_3  and  C_4
REMARK    3  A    between atoms: C_4  and  N_5
REMARK    4  A    between atoms: N_5  and  C_6
REMARK    5  A    between atoms: C_9  and  C_12
REMARK    6  A    between atoms: C_15  and  C_17
REMARK    7  A    between atoms: N_21  and  C_22
REMARK    8  A    between atoms: C_22  and  C_23
REMARK                            x       y       z     vdW  Elec       q    Type
REMARK                         _______ _______ _______ _____ _____    ______ ____
ROOT
ATOM     12  C   UNL     1      -1.964   1.921  24.951  0.00  0.00    +0.205 A 
ATOM     13  N   UNL     1      -2.109   2.108  24.160  0.00  0.00    -0.056 NA
ATOM     14  O   UNL     1      -2.848   1.800  23.957  0.00  0.00    -0.336 OA
ATOM     15  C   UNL     1      -3.158   1.423  24.622  0.00  0.00    +0.251 A 
ATOM     16  N   UNL     1      -2.612   1.498  25.236  0.00  0.00    -0.190 NA
ENDROOT
BRANCH  12   9
ATOM      6  C   UNL     1       0.061   2.524  26.239  0.00  0.00    +0.148 A 
ATOM      7  C   UNL     1      -0.597   3.023  26.247  0.00  0.00    +0.036 A 
ATOM      8  C   UNL     1      -1.272   2.821  25.818  0.00  0.00    +0.008 A 
ATOM      9  C   UNL     1      -1.289   2.122  25.380  0.00  0.00    +0.058 A 
ATOM     10  C   UNL     1      -0.632   1.624  25.372  0.00  0.00    +0.103 A 
ATOM     11  N   UNL     1       0.043   1.825  25.801  0.00  0.00    -0.228 NA
BRANCH   6   5
ATOM      5  N   UNL     1       0.737   2.725  26.669  0.00  0.00    -0.218 NA
BRANCH   5   4
ATOM      4  C   UNL     1       0.774   2.566  27.476  0.00  0.00    +0.146 C 
BRANCH   4   3
ATOM      3  C   UNL     1       1.476   2.695  27.890  0.00  0.00    +0.166 C 
BRANCH   3   2
ATOM      1  C   UNL     1       2.204   2.698  29.121  0.00  0.00    +0.174 C 
ATOM      2  O   UNL     1       1.495   2.599  28.710  0.00  0.00    -0.349 OA
ENDBRANCH   3   2
ENDBRANCH   4   3
ENDBRANCH   5   4
ENDBRANCH   6   5
ENDBRANCH  12   9
BRANCH  15  17
ATOM     17  C   UNL     1      -3.887   1.039  24.665  0.00  0.00    +0.138 C 
ATOM     18  C   UNL     1      -4.605   1.384  24.879  0.00  0.00    +0.027 C 
ATOM     19  C   UNL     1      -5.188   0.800  24.849  0.00  0.00    +0.019 C 
ATOM     20  C   UNL     1      -4.829   0.095  24.616  0.00  0.00    +0.073 C 
ATOM     21  N   UNL     1      -4.025   0.242  24.503  0.00  0.00    -0.263 NA
BRANCH  21  22
ATOM     22  C   UNL     1      -3.460  -0.311  24.268  0.00  0.00    +0.101 C 
BRANCH  22  23
ATOM     23  C   UNL     1      -3.614  -1.117  24.346  0.00  0.00    +0.013 A 
ATOM     24  C   UNL     1      -4.005  -1.523  23.743  0.00  0.00    +0.000 A 
ATOM     25  C   UNL     1      -4.159  -2.329  23.821  0.00  0.00    +0.020 A 
ATOM     26  C   UNL     1      -3.922  -2.731  24.501  0.00  0.00    +0.099 A 
ATOM     27  N   UNL     1      -3.531  -2.326  25.104  0.00  0.00    -0.243 NA
ATOM     28  C   UNL     1      -3.377  -1.519  25.026  0.00  0.00    +0.096 A 
ENDBRANCH  22  23
ENDBRANCH  21  22
ENDBRANCH  15  17
TORSDOF 8
ENDMDL
MODEL 7
REMARK VINA RESULT:      -7.2      2.640      4.884
REMARK  Name = 
REMARK  8 active torsions:
REMARK  status: ('A' for Active; 'I' for Inactive)
REMARK    1  A    between atoms: O_2  and  C_3
REMARK    2  A    between atoms: C_3  and  C_4
REMARK    3  A    between atoms: C_4  and  N_5
REMARK    4  A    between atoms: N_5  and  C_6
REMARK    5  A    between atoms: C_9  and  C_12
REMARK    6  A    between atoms: C_15  and  C_17
REMARK    7  A    between atoms: N_21  and  C_22
REMARK    8  A    between atoms: C_22  and  C_23
REMARK                            x       y       z     vdW  Elec       q    Type
REMARK                         _______ _______ _______ _____ _____    ______ ____
ROOT
ATOM     12  C   UNL     1      -4.187   1.076  24.741  0.00  0.00    +0.205 A 
ATOM     13  N   UNL     1      -4.902   0.802  25.049  0.00  0.00    -0.056 NA
ATOM     14  O   UNL     1      -4.931  -0.016  24.938  0.00  0.00    -0.336 OA
ATOM     15  C   UNL     1      -4.233  -0.246  24.563  0.00  0.00    +0.251 A 
ATOM     16  N   UNL     1      -3.774   0.428  24.441  0.00  0.00    -0.190 NA
ENDROOT
BRANCH  12   9
ATOM      6  C   UNL     1      -3.418   3.428  24.724  0.00  0.00    +0.148 A 
ATOM      7  C   UNL     1      -3.517   3.021  24.012  0.00  0.00    +0.036 A 
ATOM      8  C   UNL     1      -3.773   2.237  24.018  0.00  0.00    +0.008 A 
ATOM      9  C   UNL     1      -3.931   1.860  24.736  0.00  0.00    +0.058 A 
ATOM     10  C   UNL     1      -3.832   2.267  25.446  0.00  0.00    +0.103 A 
ATOM     11  N   UNL     1      -3.576   3.051  25.440  0.00  0.00    -0.228 NA
BRANCH   6   5
ATOM      5  N   UNL     1      -3.162   4.212  24.718  0.00  0.00    -0.218 NA
BRANCH   5   4
ATOM      4  C   UNL     1      -2.456   4.418  25.091  0.00  0.00    +0.146 C 
BRANCH   4   3
ATOM      3  C   UNL     1      -2.079   5.126  24.899  0.00  0.00    +0.166 C 
BRANCH   3   2
ATOM      1  C   UNL     1      -0.666   5.329  24.806  0.00  0.00    +0.174 C 
ATOM      2  O   UNL     1      -1.359   5.320  25.254  0.00  0.00    -0.349 OA
ENDBRANCH   3   2
ENDBRANCH   4   3
ENDBRANCH   5   4
ENDBRANCH   6   5
ENDBRANCH  12   9
BRANCH  15  17
ATOM     17  C   UNL     1      -4.030  -1.016  24.347  0.00  0.00    +0.138 C 
ATOM     18  C   UNL     1      -4.456  -1.504  23.835  0.00  0.00    +0.027 C 
ATOM     19  C   UNL     1      -4.055  -2.223  23.777  0.00  0.00    +0.019 C 
ATOM     20  C   UNL     1      -3.382  -2.179  24.252  0.00  0.00    +0.073 C 
ATOM     21  N   UNL     1      -3.367  -1.433  24.604  0.00  0.00    -0.263 NA
BRANCH  21  22
ATOM     22  C   UNL     1      -2.789  -1.154  25.123  0.00  0.00    +0.101 C 
BRANCH  22  23
ATOM     23  C   UNL     1      -2.012  -1.421  25.057  0.00  0.00    +0.013 A 
ATOM     24  C   UNL     1      -1.434  -0.933  24.727  0.00  0.00    +0.000 A 
ATOM     25  C   UNL     1      -0.657  -1.200  24.662  0.00  0.00    +0.020 A 
ATOM     26  C   UNL     1      -0.456  -1.955  24.926  0.00  0.00    +0.099 A 
ATOM     27  N   UNL     1      -1.033  -2.444  25.256  0.00  0.00    -0.243 NA
ATOM     28  C   UNL     1      -1.811  -2.176  25.321  0.00  0.00    +0.096 A 
ENDBRANCH  22  23
ENDBRANCH  21  22
ENDBRANCH  15  17
TORSDOF 8
ENDMDL
MODEL 8
REMARK VINA RESULT:      -6.9      3.001      4.442
REMARK  Name = 
REMARK  8 active torsions:
REMARK  status: ('A' for Active; 'I' for Inactive)
REMARK    1  A    between atoms: O_2  and  C_3
REMARK    2  A    between atoms: C_3  and  C_4
REMARK    3  A    between atoms: C_4  and  N_5
REMARK    4  A    between atoms: N_5  and  C_6
REMARK    5  A    between atoms: C_9  and  C_12
REMARK    6  A    between atoms: C_15  and  C_17
REMARK    7  A    between atoms: N_21  and  C_22
REMARK    8  A    between atoms: C_22  and  C_23
REMARK                            x       y       z     vdW  Elec       q    Type
REMARK                         _______ _______ _______ _____ _____    ______ ____
ROOT
ATOM     12  C   UNL     1      -0.910   0.577  25.553  0.00  0.00    +0.205 A 
ATOM     13  N   UNL     1      -0.990   0.216  26.291  0.00  0.00    -0.056 NA
ATOM     14  O   UNL     1      -1.089  -0.594  26.169  0.00  0.00    -0.336 OA
ATOM     15  C   UNL     1      -1.069  -0.734  25.357  0.00  0.00    +0.251 A 
ATOM     16  N   UNL     1      -0.958  -0.010  24.976  0.00  0.00    -0.190 NA
ENDROOT
BRANCH  12   9
ATOM      6  C   UNL     1      -0.580   2.996  25.145  0.00  0.00    +0.148 A 
ATOM      7  C   UNL     1      -0.357   2.664  25.868  0.00  0.00    +0.036 A 
ATOM      8  C   UNL     1      -0.467   1.858  26.004  0.00  0.00    +0.008 A 
ATOM      9  C   UNL     1      -0.800   1.383  25.417  0.00  0.00    +0.058 A 
ATOM     10  C   UNL     1      -1.022   1.713  24.695  0.00  0.00    +0.103 A 
ATOM     11  N   UNL     1      -0.912   2.520  24.559  0.00  0.00    -0.228 NA
BRANCH   6   5
ATOM      5  N   UNL     1      -0.470   3.802  25.009  0.00  0.00    -0.218 NA
BRANCH   5   4
ATOM      4  C   UNL     1      -1.100   4.325  25.101  0.00  0.00    +0.146 C 
BRANCH   4   3
ATOM      3  C   UNL     1      -0.996   5.128  24.944  0.00  0.00    +0.166 C 
BRANCH   3   2
ATOM      1  C   UNL     1      -1.991   6.148  24.826  0.00  0.00    +0.174 C 
ATOM      2  O   UNL     1      -1.493   5.686  25.295  0.00  0.00    -0.349 OA
ENDBRANCH   3   2
ENDBRANCH   4   3
ENDBRANCH   5   4
ENDBRANCH   6   5
ENDBRANCH  12   9
BRANCH  15  17
ATOM     17  C   UNL     1      -1.146  -1.468  24.989  0.00  0.00    +0.138 C 
ATOM     18  C   UNL     1      -0.529  -1.933  24.700  0.00  0.00    +0.027 C 
ATOM     19  C   UNL     1      -0.855  -2.619  24.377  0.00  0.00    +0.019 C 
ATOM     20  C   UNL     1      -1.674  -2.578  24.467  0.00  0.00    +0.073 C 
ATOM     21  N   UNL     1      -1.854  -1.867  24.845  0.00  0.00    -0.263 NA
BRANCH  21  22
ATOM     22  C   UNL     1      -2.609  -1.601  25.044  0.00  0.00    +0.101 C 
BRANCH  22  23
ATOM     23  C   UNL     1      -3.265  -1.865  24.618  0.00  0.00    +0.013 A 
ATOM     24  C   UNL     1      -3.670  -1.345  24.121  0.00  0.00    +0.000 A 
ATOM     25  C   UNL     1      -4.326  -1.609  23.696  0.00  0.00    +0.020 A 
ATOM     26  C   UNL     1      -4.576  -2.391  23.767  0.00  0.00    +0.099 A 
ATOM     27  N   UNL     1      -4.171  -2.911  24.264  0.00  0.00    -0.243 NA
ATOM     28  C   UNL     1      -3.515  -2.647  24.689  0.00  0.00    +0.096 A 
ENDBRANCH  22  23
ENDBRANCH  21  22
ENDBRANCH  15  17
TORSDOF 8
ENDMDL
MODEL 9
REMARK VINA RESULT:      -6.6      1.984      5.720
REMARK  Name = 
REMARK  8 active torsions:
REMARK  status: ('A' for Active; 'I' for Inactive)
REMARK    1  A    between atoms: O_2  and  C_3
REMARK    2  A    between atoms: C_3  and  C_4
REMARK    3  A    between atoms: C_4  and  N_5
REMARK    4  A    between atoms: N_5  and  C_6
REMARK    5  A    between atoms: C_9  and  C_12
REMARK    6  A    between atoms: C_15  and  C_17
REMARK    7  A    between atoms: N_21  and  C_22
REMARK    8  A    between atoms: C_22  and  C_23
REMARK                            x       y       z     vdW  Elec       q    Type
REMARK                         _______ _______ _______ _____ _____    ______ ____
ROOT
ATOM     12  C   UNL     1      -1.035   2.344  24.633  0.00  0.00    +0.205 A 
ATOM     13  N   UNL     1      -0.270   2.569  24.846  0.00  0.00    -0.056 NA
ATOM     14  O   UNL     1       0.249   1.980  24.591  0.00  0.00    -0.336 OA
ATOM     15  C   UNL     1      -0.195   1.391  24.221  0.00  0.00    +0.251 A 
ATOM     16  N   UNL     1      -0.989   1.617  24.247  0.00  0.00    -0.190 NA
ENDROOT
BRANCH  12   9
ATOM      6  C   UNL     1      -3.105   3.628  25.075  0.00  0.00    +0.148 A 
ATOM      7  C   UNL     1      -2.525   3.564  25.660  0.00  0.00    +0.036 A 
ATOM      8  C   UNL     1      -1.836   3.136  25.513  0.00  0.00    +0.008 A 
ATOM      9  C   UNL     1      -1.725   2.772  24.780  0.00  0.00    +0.058 A 
ATOM     10  C   UNL     1      -2.303   2.836  24.196  0.00  0.00    +0.103 A 
ATOM     11  N   UNL     1      -2.993   3.264  24.344  0.00  0.00    -0.228 NA
BRANCH   6   5
ATOM      5  N   UNL     1      -3.794   4.056  25.223  0.00  0.00    -0.218 NA
BRANCH   5   4
ATOM      4  C   UNL     1      -4.389   3.730  25.691  0.00  0.00    +0.146 C 
BRANCH   4   3
ATOM      3  C   UNL     1      -5.181   3.844  25.490  0.00  0.00    +0.166 C 
BRANCH   3   2
ATOM      1  C   UNL     1      -6.165   2.837  25.739  0.00  0.00    +0.174 C 
ATOM      2  O   UNL     1      -5.778   3.529  25.966  0.00  0.00    -0.349 OA
ENDBRANCH   3   2
ENDBRANCH   4   3
ENDBRANCH   5   4
ENDBRANCH   6   5
ENDBRANCH  12   9
BRANCH  15  17
ATOM     17  C   UNL     1       0.101   0.700  23.884  0.00  0.00    +0.138 C 
ATOM     18  C   UNL     1       0.625   0.656  23.248  0.00  0.00    +0.027 C 
ATOM     19  C   UNL     1       0.774  -0.141  23.095  0.00  0.00    +0.019 C 
ATOM     20  C   UNL     1       0.342  -0.590  23.636  0.00  0.00    +0.073 C 
ATOM     21  N   UNL     1      -0.073  -0.070  24.124  0.00  0.00    -0.263 NA
BRANCH  21  22
ATOM     22  C   UNL     1      -0.575  -0.284  24.742  0.00  0.00    +0.101 C 
BRANCH  22  23
ATOM     23  C   UNL     1      -0.928  -1.029  24.750  0.00  0.00    +0.013 A 
ATOM     24  C   UNL     1      -0.573  -1.649  25.163  0.00  0.00    +0.000 A 
ATOM     25  C   UNL     1      -0.926  -2.394  25.171  0.00  0.00    +0.020 A 
ATOM     26  C   UNL     1      -1.632  -2.521  24.765  0.00  0.00    +0.099 A 
ATOM     27  N   UNL     1      -1.987  -1.902  24.351  0.00  0.00    -0.243 NA
ATOM     28  C   UNL     1      -1.634  -1.155  24.344  0.00  0.00    +0.096 A 
ENDBRANCH  22  23
ENDBRANCH  21  22
ENDBRANCH  15  17
TORSDOF 8
ENDMDL
