REMARK  Name = 
REMARK  11 active torsions:
REMARK  status: ('A' for Active; 'I' for Inactive)
REMARK    1  A    between atoms: O_2  and  C_3
REMARK    2  A    between atoms: C_3  and  C_5
REMARK    3  A    between atoms: C_10  and  C_11
REMARK    4  A    between atoms: C_11  and  C_12
REMARK    5  A    between atoms: C_14  and  C_15
REMARK    6  A    between atoms: C_18  and  C_19
REMARK    7  A    between atoms: C_19  and  N_20
REMARK    8  A    between atoms: C_21  and  C_23
REMARK    9  A    between atoms: C_23  and  C_24
REMARK   10  A    between atoms: C_24  and  C_25
REMARK   11  A    between atoms: C_25  and  C_26
REMARK                            x       y       z     vdW  Elec       q    Type
REMARK                         _______ _______ _______ _____ _____    ______ ____
ROOT
ATOM     12  C   UNL     1      -1.183   6.941   0.000  0.00  0.00    +0.026 C 
ATOM     13  C   UNL     1      -0.469   7.353   0.000  0.00  0.00    +0.005 C 
ATOM     14  C   UNL     1       0.245   6.941   0.000  0.00  0.00    +0.006 C 
ATOM     18  C   UNL     1       0.245   6.116   0.000  0.00  0.00    +0.043 C 
ATOM     29  C   UNL     1      -0.469   5.703   0.000  0.00  0.00    -0.033 C 
ATOM     30  C   UNL     1      -1.183   6.116   0.000  0.00  0.00    -0.048 C 
ATOM     31  C   UNL     1      -1.898   5.703   0.000  0.00  0.00    +0.026 C 
ENDROOT
BRANCH  14  15
ATOM     15  C   UNL     1       0.960   7.353   0.000  0.00  0.00    +0.000 C 
ATOM     16  C   UNL     1       1.674   6.941   0.000  0.00  0.00    +0.000 C 
ATOM     17  C   UNL     1       0.960   8.178   0.000  0.00  0.00    +0.000 C 
ENDBRANCH  14  15
BRANCH  12  11
ATOM     11  C   UNL     1      -1.898   7.353   0.000  0.00  0.00    +0.070 C 
BRANCH  11  10
ATOM      5  C   UNL     1      -5.156   5.949   0.000  0.00  0.00    +0.077 A 
ATOM      6  C   UNL     1      -4.743   6.663   0.000  0.00  0.00    +0.027 A 
ATOM      7  C   UNL     1      -3.918   6.663   0.000  0.00  0.00    +0.100 A 
ATOM      8  C   UNL     1      -3.506   5.949   0.000  0.00  0.00    +0.100 A 
ATOM      9  N   UNL     1      -2.699   6.120   0.000  0.00  0.00    -0.229 NA
ATOM     10  C   UNL     1      -2.612   6.941   0.000  0.00  0.00    +0.139 A 
ATOM     32  N   UNL     1      -3.366   7.276   0.000  0.00  0.00    -0.229 NA
ATOM     33  C   UNL     1      -3.918   5.234   0.000  0.00  0.00    +0.021 A 
ATOM     34  C   UNL     1      -4.743   5.234   0.000  0.00  0.00    +0.008 A 
BRANCH   5   3
ATOM      3  C   UNL     1      -5.981   5.949   0.000  0.00  0.00    +0.341 C 
ATOM      4  O   UNL     1      -6.393   6.663   0.000  0.00  0.00    -0.245 OA
BRANCH   3   2
ATOM      1  C   UNL     1      -7.218   5.234   0.000  0.00  0.00    +0.256 C 
ATOM      2  O   UNL     1      -6.393   5.234   0.000  0.00  0.00    -0.441 OA
ENDBRANCH   3   2
ENDBRANCH   5   3
ENDBRANCH  11  10
ENDBRANCH  12  11
BRANCH  18  19
ATOM     19  C   UNL     1       0.960   5.703   0.000  0.00  0.00    +0.119 C 
BRANCH  19  20
ATOM     20  N   UNL     1       1.674   6.116   0.000  0.00  0.00    -0.205 NA
ATOM     21  C   UNL     1       2.389   5.703   0.000  0.00  0.00    +0.241 C 
ATOM     22  O   UNL     1       2.389   4.878   0.000  0.00  0.00    -0.273 OA
BRANCH  21  23
ATOM     23  C   UNL     1       3.103   6.116   0.000  0.00  0.00    +0.087 C 
BRANCH  23  24
ATOM     24  C   UNL     1       3.818   5.703   0.000  0.00  0.00    +0.021 C 
BRANCH  24  25
ATOM     25  C   UNL     1       4.532   6.116   0.000  0.00  0.00    +0.115 C 
BRANCH  25  26
ATOM     26  C   UNL     1       5.247   5.703   0.000  0.00  0.00    +0.365 C 
ATOM     27  O   UNL     1       5.961   6.116   0.000  0.00  0.00    -0.246 OA
ATOM     28  O   UNL     1       5.247   4.878   0.000  0.00  0.00    -0.246 OA
ENDBRANCH  25  26
ENDBRANCH  24  25
ENDBRANCH  23  24
ENDBRANCH  21  23
ENDBRANCH  19  20
ENDBRANCH  18  19
TORSDOF 11
