MODEL 1
REMARK VINA RESULT:     -11.4      0.000      0.000
REMARK  Name = 
REMARK  8 active torsions:
REMARK  status: ('A' for Active; 'I' for Inactive)
REMARK    1  A    between atoms: C_6  and  C_7
REMARK    2  A    between atoms: C_11  and  N_31
REMARK    3  A    between atoms: C_13  and  C_14
REMARK    4  A    between atoms: N_16  and  C_17
REMARK    5  A    between atoms: C_17  and  C_18
REMARK    6  A    between atoms: C_17  and  C_28
REMARK    7  A    between atoms: C_18  and  C_19
REMARK    8  A    between atoms: N_34  and  C_35
REMARK                            x       y       z     vdW  Elec       q    Type
REMARK                         _______ _______ _______ _____ _____    ______ ____
ROOT
ATOM      7  C   UNL     1      -0.052   1.154  23.612  0.00  0.00    +0.265 C 
ATOM      8  O   UNL     1       0.105   1.962  23.562  0.00  0.00    -0.268 OA
ATOM      9  N   UNL     1      -0.748   0.890  23.966  0.00  0.00    -0.266 N 
ATOM     10  C   UNL     1      -0.978   0.103  24.056  0.00  0.00    +0.116 C 
ATOM     11  C   UNL     1      -1.710   0.093  24.437  0.00  0.00    +0.119 C 
ATOM     12  C   UNL     1      -1.932   0.875  24.583  0.00  0.00    +0.053 C 
ATOM     13  C   UNL     1      -1.338   1.367  24.292  0.00  0.00    +0.156 C 
ENDROOT
BRANCH   7   6
ATOM      1  C   UNL     1       1.733   1.230  23.789  0.00  0.00    +0.131 C 
ATOM      2  N   UNL     1       1.310   0.645  23.391  0.00  0.00    -0.320 N 
ATOM      3  C   UNL     1       1.633  -0.009  23.004  0.00  0.00    +0.076 A 
ATOM      4  C   UNL     1       1.012  -0.448  22.684  0.00  0.00    +0.020 A 
ATOM      5  C   UNL     1       0.306  -0.066  22.872  0.00  0.00    +0.023 A 
ATOM      6  C   UNL     1       0.489   0.609  23.309  0.00  0.00    +0.114 A 
ENDBRANCH   7   6
BRANCH  11  31
ATOM     31  N   UNL     1      -2.144  -0.580  24.638  0.00  0.00    -0.187 NA
ATOM     32  C   UNL     1      -2.023  -0.946  25.368  0.00  0.00    +0.344 C 
ATOM     33  O   UNL     1      -1.469  -0.639  25.897  0.00  0.00    -0.249 OA
ATOM     34  N   UNL     1      -2.456  -1.619  25.568  0.00  0.00    -0.159 NA
BRANCH  34  35
ATOM     35  C   UNL     1      -3.010  -1.926  25.039  0.00  0.00    +0.102 A 
ATOM     36  C   UNL     1      -2.876  -2.657  24.681  0.00  0.00    +0.158 A 
ATOM     37  F   UNL     1      -2.190  -3.081  24.851  0.00  0.00    -0.203 F 
ATOM     38  C   UNL     1      -3.430  -2.965  24.151  0.00  0.00    +0.061 A 
ATOM     39  C   UNL     1      -4.117  -2.539  23.981  0.00  0.00    +0.142 A 
ATOM     40  F   UNL     1      -4.671  -2.846  23.452  0.00  0.00    -0.204 F 
ATOM     41  C   UNL     1      -4.250  -1.809  24.339  0.00  0.00    +0.031 A 
ATOM     42  C   UNL     1      -3.696  -1.502  24.869  0.00  0.00    +0.021 A 
ENDBRANCH  34  35
ENDBRANCH  11  31
BRANCH  13  14
ATOM     14  C   UNL     1      -1.334   2.192  24.321  0.00  0.00    +0.260 C 
ATOM     15  O   UNL     1      -1.185   2.627  23.636  0.00  0.00    -0.272 OA
ATOM     16  N   UNL     1      -1.478   2.580  25.034  0.00  0.00    -0.196 NA
BRANCH  16  17
ATOM     17  C   UNL     1      -1.474   3.404  25.063  0.00  0.00    +0.179 C 
BRANCH  17  28
ATOM     28  C   UNL     1      -0.784   3.805  25.273  0.00  0.00    +0.281 C 
ATOM     29  N   UNL     1      -0.556   4.480  24.859  0.00  0.00    -0.086 NA
ATOM     30  O   UNL     1      -0.322   3.529  25.899  0.00  0.00    -0.270 OA
ENDBRANCH  17  28
BRANCH  17  18
ATOM     18  C   UNL     1      -2.159   3.827  24.882  0.00  0.00    +0.059 C 
BRANCH  18  19
ATOM     19  C   UNL     1      -2.771   3.877  25.432  0.00  0.00    +0.001 A 
ATOM     20  C   UNL     1      -2.685   4.009  26.242  0.00  0.00    +0.095 A 
ATOM     21  N   UNL     1      -3.437   4.017  26.580  0.00  0.00    -0.244 NA
ATOM     22  C   UNL     1      -3.988   3.891  25.980  0.00  0.00    +0.081 A 
ATOM     23  C   UNL     1      -3.576   3.804  25.270  0.00  0.00    +0.015 A 
ATOM     24  C   UNL     1      -3.988   3.670  24.568  0.00  0.00    +0.001 A 
ATOM     25  C   UNL     1      -4.811   3.622  24.575  0.00  0.00    +0.000 A 
ATOM     26  C   UNL     1      -5.223   3.709  25.285  0.00  0.00    +0.002 A 
ATOM     27  C   UNL     1      -4.812   3.843  25.987  0.00  0.00    +0.019 A 
ENDBRANCH  18  19
ENDBRANCH  17  18
ENDBRANCH  16  17
ENDBRANCH  13  14
TORSDOF 8
ENDMDL
MODEL 2
REMARK VINA RESULT:     -11.1      2.107      4.233
REMARK  Name = 
REMARK  8 active torsions:
REMARK  status: ('A' for Active; 'I' for Inactive)
REMARK    1  A    between atoms: C_6  and  C_7
REMARK    2  A    between atoms: C_11  and  N_31
REMARK    3  A    between atoms: C_13  and  C_14
REMARK    4  A    between atoms: N_16  and  C_17
REMARK    5  A    between atoms: C_17  and  C_18
REMARK    6  A    between atoms: C_17  and  C_28
REMARK    7  A    between atoms: C_18  and  C_19
REMARK    8  A    between atoms: N_34  and  C_35
REMARK                            x       y       z     vdW  Elec       q    Type
REMARK                         _______ _______ _______ _____ _____    ______ ____
ROOT
ATOM      7  C   UNL     1      -1.026  -0.063  25.082  0.00  0.00    +0.265 C 
ATOM      8  O   UNL     1      -1.583   0.374  25.504  0.00  0.00    -0.268 OA
ATOM      9  N   UNL     1      -0.408   0.321  24.693  0.00  0.00    -0.266 N 
ATOM     10  C   UNL     1       0.187  -0.041  24.252  0.00  0.00    +0.116 C 
ATOM     11  C   UNL     1       0.686   0.549  23.963  0.00  0.00    +0.119 C 
ATOM     12  C   UNL     1       0.398   1.277  24.226  0.00  0.00    +0.053 C 
ATOM     13  C   UNL     1      -0.277   1.136  24.677  0.00  0.00    +0.156 C 
ENDROOT
BRANCH   7   6
ATOM      1  C   UNL     1      -2.403  -0.995  24.405  0.00  0.00    +0.131 C 
ATOM      2  N   UNL     1      -1.719  -1.313  24.738  0.00  0.00    -0.320 N 
ATOM      3  C   UNL     1      -1.548  -2.117  24.817  0.00  0.00    +0.076 A 
ATOM      4  C   UNL     1      -0.808  -2.185  25.177  0.00  0.00    +0.020 A 
ATOM      5  C   UNL     1      -0.523  -1.425  25.320  0.00  0.00    +0.023 A 
ATOM      6  C   UNL     1      -1.085  -0.886  25.049  0.00  0.00    +0.114 A 
ENDBRANCH   7   6
BRANCH  11  31
ATOM     31  N   UNL     1       1.355   0.433  23.494  0.00  0.00    -0.187 NA
ATOM     32  C   UNL     1       1.280   0.086  22.749  0.00  0.00    +0.344 C 
ATOM     33  O   UNL     1       0.538  -0.144  22.473  0.00  0.00    -0.249 OA
ATOM     34  N   UNL     1       1.949  -0.030  22.279  0.00  0.00    -0.159 NA
BRANCH  34  35
ATOM     35  C   UNL     1       2.692   0.200  22.555  0.00  0.00    +0.102 A 
ATOM     36  C   UNL     1       3.219  -0.367  22.841  0.00  0.00    +0.158 A 
ATOM     37  F   UNL     1       3.005  -1.163  22.851  0.00  0.00    -0.203 F 
ATOM     38  C   UNL     1       3.963  -0.137  23.117  0.00  0.00    +0.061 A 
ATOM     39  C   UNL     1       4.177   0.660  23.107  0.00  0.00    +0.142 A 
ATOM     40  F   UNL     1       4.920   0.891  23.382  0.00  0.00    -0.204 F 
ATOM     41  C   UNL     1       3.650   1.226  22.821  0.00  0.00    +0.031 A 
ATOM     42  C   UNL     1       2.906   0.996  22.545  0.00  0.00    +0.021 A 
ENDBRANCH  34  35
ENDBRANCH  11  31
BRANCH  13  14
ATOM     14  C   UNL     1      -0.742   1.709  25.047  0.00  0.00    +0.260 C 
ATOM     15  O   UNL     1      -0.776   1.742  25.871  0.00  0.00    -0.272 OA
ATOM     16  N   UNL     1      -1.171   2.248  24.594  0.00  0.00    -0.196 NA
BRANCH  16  17
ATOM     17  C   UNL     1      -1.635   2.821  24.964  0.00  0.00    +0.179 C 
BRANCH  17  28
ATOM     28  C   UNL     1      -1.325   3.572  25.108  0.00  0.00    +0.281 C 
ATOM     29  N   UNL     1      -1.412   3.919  25.850  0.00  0.00    -0.086 NA
ATOM     30  O   UNL     1      -0.926   3.975  24.508  0.00  0.00    -0.270 OA
ENDBRANCH  17  28
BRANCH  17  18
ATOM     18  C   UNL     1      -2.408   2.643  25.190  0.00  0.00    +0.059 C 
BRANCH  18  19
ATOM     19  C   UNL     1      -3.022   2.699  24.642  0.00  0.00    +0.001 A 
ATOM     20  C   UNL     1      -2.950   2.943  23.856  0.00  0.00    +0.095 A 
ATOM     21  N   UNL     1      -3.698   2.915  23.511  0.00  0.00    -0.244 NA
ATOM     22  C   UNL     1      -4.233   2.655  24.083  0.00  0.00    +0.081 A 
ATOM     23  C   UNL     1      -3.814   2.521  24.781  0.00  0.00    +0.015 A 
ATOM     24  C   UNL     1      -4.211   2.255  25.454  0.00  0.00    +0.001 A 
ATOM     25  C   UNL     1      -5.024   2.122  25.429  0.00  0.00    +0.000 A 
ATOM     26  C   UNL     1      -5.442   2.256  24.731  0.00  0.00    +0.002 A 
ATOM     27  C   UNL     1      -5.047   2.522  24.057  0.00  0.00    +0.019 A 
ENDBRANCH  18  19
ENDBRANCH  17  18
ENDBRANCH  16  17
ENDBRANCH  13  14
TORSDOF 8
ENDMDL
MODEL 3
REMARK VINA RESULT:     -10.5      2.018      4.921
REMARK  Name = 
REMARK  8 active torsions:
REMARK  status: ('A' for Active; 'I' for Inactive)
REMARK    1  A    between atoms: C_6  and  C_7
REMARK    2  A    between atoms: C_11  and  N_31
REMARK    3  A    between atoms: C_13  and  C_14
REMARK    4  A    between atoms: N_16  and  C_17
REMARK    5  A    between atoms: C_17  and  C_18
REMARK    6  A    between atoms: C_17  and  C_28
REMARK    7  A    between atoms: C_18  and  C_19
REMARK    8  A    between atoms: N_34  and  C_35
REMARK                            x       y       z     vdW  Elec       q    Type
REMARK                         _______ _______ _______ _____ _____    ______ ____
ROOT
ATOM      7  C   UNL     1      -0.905   2.593  24.969  0.00  0.00    +0.265 C 
ATOM      8  O   UNL     1      -0.235   2.113  24.974  0.00  0.00    -0.268 OA
ATOM      9  N   UNL     1      -1.657   2.253  24.955  0.00  0.00    -0.266 N 
ATOM     10  C   UNL     1      -2.374   2.660  24.948  0.00  0.00    +0.116 C 
ATOM     11  C   UNL     1      -2.983   2.104  24.934  0.00  0.00    +0.119 C 
ATOM     12  C   UNL     1      -2.642   1.352  24.932  0.00  0.00    +0.053 C 
ATOM     13  C   UNL     1      -1.823   1.444  24.945  0.00  0.00    +0.156 C 
ENDROOT
BRANCH   7   6
ATOM      1  C   UNL     1      -0.083   3.586  23.719  0.00  0.00    +0.131 C 
ATOM      2  N   UNL     1      -0.447   3.870  24.403  0.00  0.00    -0.320 N 
ATOM      3  C   UNL     1      -0.496   4.662  24.632  0.00  0.00    +0.076 A 
ATOM      4  C   UNL     1      -0.905   4.694  25.348  0.00  0.00    +0.020 A 
ATOM      5  C   UNL     1      -1.108   3.924  25.561  0.00  0.00    +0.023 A 
ATOM      6  C   UNL     1      -0.825   3.414  24.977  0.00  0.00    +0.114 A 
ENDBRANCH   7   6
BRANCH  11  31
ATOM     31  N   UNL     1      -3.792   2.270  24.924  0.00  0.00    -0.187 NA
ATOM     32  C   UNL     1      -4.125   2.656  24.275  0.00  0.00    +0.344 C 
ATOM     33  O   UNL     1      -3.651   2.875  23.637  0.00  0.00    -0.249 OA
ATOM     34  N   UNL     1      -4.933   2.822  24.265  0.00  0.00    -0.159 NA
BRANCH  34  35
ATOM     35  C   UNL     1      -5.407   2.603  24.904  0.00  0.00    +0.102 A 
ATOM     36  C   UNL     1      -5.656   3.172  25.447  0.00  0.00    +0.158 A 
ATOM     37  F   UNL     1      -5.431   3.959  25.352  0.00  0.00    -0.203 F 
ATOM     38  C   UNL     1      -6.131   2.953  26.086  0.00  0.00    +0.061 A 
ATOM     39  C   UNL     1      -6.356   2.164  26.180  0.00  0.00    +0.142 A 
ATOM     40  F   UNL     1      -6.830   1.945  26.818  0.00  0.00    -0.204 F 
ATOM     41  C   UNL     1      -6.107   1.597  25.637  0.00  0.00    +0.031 A 
ATOM     42  C   UNL     1      -5.632   1.815  24.998  0.00  0.00    +0.021 A 
ENDBRANCH  34  35
ENDBRANCH  11  31
BRANCH  13  14
ATOM     14  C   UNL     1      -1.266   0.835  24.947  0.00  0.00    +0.260 C 
ATOM     15  O   UNL     1      -0.654   0.839  25.500  0.00  0.00    -0.272 OA
ATOM     16  N   UNL     1      -1.323   0.222  24.398  0.00  0.00    -0.196 NA
BRANCH  16  17
ATOM     17  C   UNL     1      -0.767  -0.387  24.401  0.00  0.00    +0.179 C 
BRANCH  17  28
ATOM     28  C   UNL     1      -0.078  -0.317  23.952  0.00  0.00    +0.281 C 
ATOM     29  N   UNL     1       0.648  -0.534  24.274  0.00  0.00    -0.086 NA
ATOM     30  O   UNL     1      -0.118  -0.029  23.179  0.00  0.00    -0.270 OA
ENDBRANCH  17  28
BRANCH  17  18
ATOM     18  C   UNL     1      -0.900  -1.065  24.852  0.00  0.00    +0.059 C 
BRANCH  18  19
ATOM     19  C   UNL     1      -1.366  -1.675  24.552  0.00  0.00    +0.001 A 
ATOM     20  C   UNL     1      -1.225  -2.098  23.857  0.00  0.00    +0.095 A 
ATOM     21  N   UNL     1      -1.827  -2.654  23.770  0.00  0.00    -0.244 NA
ATOM     22  C   UNL     1      -2.341  -2.576  24.411  0.00  0.00    +0.081 A 
ATOM     23  C   UNL     1      -2.056  -1.971  24.894  0.00  0.00    +0.015 A 
ATOM     24  C   UNL     1      -2.462  -1.768  25.583  0.00  0.00    +0.001 A 
ATOM     25  C   UNL     1      -3.152  -2.169  25.788  0.00  0.00    +0.000 A 
ATOM     26  C   UNL     1      -3.437  -2.774  25.305  0.00  0.00    +0.002 A 
ATOM     27  C   UNL     1      -3.032  -2.978  24.616  0.00  0.00    +0.019 A 
ENDBRANCH  18  19
ENDBRANCH  17  18
ENDBRANCH  16  17
ENDBRANCH  13  14
TORSDOF 8
ENDMDL
MODEL 4
REMARK VINA RESULT:     -10.4      1.956      5.332
REMARK  Name = 
REMARK  8 active torsions:
REMARK  status: ('A' for Active; 'I' for Inactive)
REMARK    1  A    between atoms: C_6  and  C_7
REMARK    2  A    between atoms: C_11  and  N_31
REMARK    3  A    between atoms: C_13  and  C_14
REMARK    4  A    between atoms: N_16  and  C_17
REMARK    5  A    between atoms: C_17  and  C_18
REMARK    6  A    between atoms: C_17  and  C_28
REMARK    7  A    between atoms: C_18  and  C_19
REMARK    8  A    between atoms: N_34  and  C_35
REMARK                            x       y       z     vdW  Elec       q    Type
REMARK                         _______ _______ _______ _____ _____    ______ ____
ROOT
ATOM      7  C   UNL     1       0.343   1.628  24.462  0.00  0.00    +0.265 C 
ATOM      8  O   UNL     1       0.999   1.890  24.037  0.00  0.00    -0.268 OA
ATOM      9  N   UNL     1       0.013   0.890  24.299  0.00  0.00    -0.266 N 
ATOM     10  C   UNL     1      -0.641   0.556  24.676  0.00  0.00    +0.116 C 
ATOM     11  C   UNL     1      -0.779  -0.184  24.339  0.00  0.00    +0.119 C 
ATOM     12  C   UNL     1      -0.211  -0.308  23.753  0.00  0.00    +0.053 C 
ATOM     13  C   UNL     1       0.278   0.356  23.728  0.00  0.00    +0.156 C 
ENDROOT
BRANCH   7   6
ATOM      1  C   UNL     1      -0.528   3.177  24.205  0.00  0.00    +0.131 C 
ATOM      2  N   UNL     1      -0.384   2.816  24.933  0.00  0.00    -0.320 N 
ATOM      3  C   UNL     1      -0.616   3.105  25.671  0.00  0.00    +0.076 A 
ATOM      4  C   UNL     1      -0.358   2.571  26.245  0.00  0.00    +0.020 A 
ATOM      5  C   UNL     1       0.032   1.953  25.863  0.00  0.00    +0.023 A 
ATOM      6  C   UNL     1       0.016   2.104  25.052  0.00  0.00    +0.114 A 
ENDBRANCH   7   6
BRANCH  11  31
ATOM     31  N   UNL     1      -1.380  -0.709  24.551  0.00  0.00    -0.187 NA
ATOM     32  C   UNL     1      -1.226  -1.317  25.087  0.00  0.00    +0.344 C 
ATOM     33  O   UNL     1      -0.472  -1.400  25.412  0.00  0.00    -0.249 OA
ATOM     34  N   UNL     1      -1.827  -1.841  25.300  0.00  0.00    -0.159 NA
BRANCH  34  35
ATOM     35  C   UNL     1      -2.581  -1.757  24.975  0.00  0.00    +0.102 A 
ATOM     36  C   UNL     1      -2.865  -2.319  24.442  0.00  0.00    +0.158 A 
ATOM     37  F   UNL     1      -2.396  -2.964  24.233  0.00  0.00    -0.203 F 
ATOM     38  C   UNL     1      -3.620  -2.236  24.118  0.00  0.00    +0.061 A 
ATOM     39  C   UNL     1      -4.089  -1.590  24.327  0.00  0.00    +0.142 A 
ATOM     40  F   UNL     1      -4.843  -1.506  24.003  0.00  0.00    -0.204 F 
ATOM     41  C   UNL     1      -3.804  -1.029  24.860  0.00  0.00    +0.031 A 
ATOM     42  C   UNL     1      -3.050  -1.112  25.185  0.00  0.00    +0.021 A 
ENDBRANCH  34  35
ENDBRANCH  11  31
BRANCH  13  14
ATOM     14  C   UNL     1       0.920   0.466  23.221  0.00  0.00    +0.260 C 
ATOM     15  O   UNL     1       1.027   1.192  22.845  0.00  0.00    -0.272 OA
ATOM     16  N   UNL     1       1.454  -0.149  23.092  0.00  0.00    -0.196 NA
BRANCH  16  17
ATOM     17  C   UNL     1       2.095  -0.039  22.586  0.00  0.00    +0.179 C 
BRANCH  17  28
ATOM     28  C   UNL     1       2.023  -0.221  21.784  0.00  0.00    +0.281 C 
ATOM     29  N   UNL     1       1.473  -0.782  21.536  0.00  0.00    -0.086 NA
ATOM     30  O   UNL     1       2.502   0.161  21.230  0.00  0.00    -0.270 OA
ENDBRANCH  17  28
BRANCH  17  18
ATOM     18  C   UNL     1       2.808   0.254  22.880  0.00  0.00    +0.059 C 
BRANCH  18  19
ATOM     19  C   UNL     1       3.366  -0.263  23.198  0.00  0.00    +0.001 A 
ATOM     20  C   UNL     1       3.243  -1.059  23.380  0.00  0.00    +0.095 A 
ATOM     21  N   UNL     1       3.946  -1.363  23.685  0.00  0.00    -0.244 NA
ATOM     22  C   UNL     1       4.504  -0.756  23.691  0.00  0.00    +0.081 A 
ATOM     23  C   UNL     1       4.146  -0.076  23.391  0.00  0.00    +0.015 A 
ATOM     24  C   UNL     1       4.577   0.625  23.331  0.00  0.00    +0.001 A 
ATOM     25  C   UNL     1       5.365   0.647  23.572  0.00  0.00    +0.000 A 
ATOM     26  C   UNL     1       5.723  -0.033  23.873  0.00  0.00    +0.002 A 
ATOM     27  C   UNL     1       5.294  -0.734  23.933  0.00  0.00    +0.019 A 
ENDBRANCH  18  19
ENDBRANCH  17  18
ENDBRANCH  16  17
ENDBRANCH  13  14
TORSDOF 8
ENDMDL
MODEL 5
REMARK VINA RESULT:     -10.3      2.012      5.131
REMARK  Name = 
REMARK  8 active torsions:
REMARK  status: ('A' for Active; 'I' for Inactive)
REMARK    1  A    between atoms: C_6  and  C_7
REMARK    2  A    between atoms: C_11  and  N_31
REMARK    3  A    between atoms: C_13  and  C_14
REMARK    4  A    between atoms: N_16  and  C_17
REMARK    5  A    between atoms: C_17  and  C_18
REMARK    6  A    between atoms: C_17  and  C_28
REMARK    7  A    between atoms: C_18  and  C_19
REMARK    8  A    between atoms: N_34  and  C_35
REMARK                            x       y       z     vdW  Elec       q    Type
REMARK                         _______ _______ _______ _____ _____    ______ ____
ROOT
ATOM      7  C   UNL     1      -0.853   2.608  25.011  0.00  0.00    +0.265 C 
ATOM      8  O   UNL     1      -0.149   2.180  25.045  0.00  0.00    -0.268 OA
ATOM      9  N   UNL     1      -1.576   2.211  24.985  0.00  0.00    -0.266 N 
ATOM     10  C   UNL     1      -2.321   2.563  24.950  0.00  0.00    +0.116 C 
ATOM     11  C   UNL     1      -2.886   1.962  24.931  0.00  0.00    +0.119 C 
ATOM     12  C   UNL     1      -2.490   1.238  24.955  0.00  0.00    +0.053 C 
ATOM     13  C   UNL     1      -1.680   1.392  24.988  0.00  0.00    +0.156 C 
ENDROOT
BRANCH   7   6
ATOM      1  C   UNL     1      -0.031   3.635  23.790  0.00  0.00    +0.131 C 
ATOM      2  N   UNL     1      -0.457   3.904  24.443  0.00  0.00    -0.320 N 
ATOM      3  C   UNL     1      -0.580   4.694  24.649  0.00  0.00    +0.076 A 
ATOM      4  C   UNL     1      -1.034   4.710  25.338  0.00  0.00    +0.020 A 
ATOM      5  C   UNL     1      -1.192   3.931  25.558  0.00  0.00    +0.023 A 
ATOM      6  C   UNL     1      -0.835   3.433  25.005  0.00  0.00    +0.114 A 
ENDBRANCH   7   6
BRANCH  11  31
ATOM     31  N   UNL     1      -3.704   2.066  24.896  0.00  0.00    -0.187 NA
ATOM     32  C   UNL     1      -4.067   2.234  24.175  0.00  0.00    +0.344 C 
ATOM     33  O   UNL     1      -3.613   2.299  23.489  0.00  0.00    -0.249 OA
ATOM     34  N   UNL     1      -4.885   2.339  24.139  0.00  0.00    -0.159 NA
BRANCH  34  35
ATOM     35  C   UNL     1      -5.340   2.274  24.825  0.00  0.00    +0.102 A 
ATOM     36  C   UNL     1      -5.827   1.618  24.936  0.00  0.00    +0.158 A 
ATOM     37  F   UNL     1      -5.860   1.026  24.363  0.00  0.00    -0.203 F 
ATOM     38  C   UNL     1      -6.282   1.553  25.622  0.00  0.00    +0.061 A 
ATOM     39  C   UNL     1      -6.248   2.145  26.196  0.00  0.00    +0.142 A 
ATOM     40  F   UNL     1      -6.702   2.081  26.881  0.00  0.00    -0.204 F 
ATOM     41  C   UNL     1      -5.761   2.801  26.084  0.00  0.00    +0.031 A 
ATOM     42  C   UNL     1      -5.306   2.866  25.398  0.00  0.00    +0.021 A 
ENDBRANCH  34  35
ENDBRANCH  11  31
BRANCH  13  14
ATOM     14  C   UNL     1      -1.080   0.827  25.018  0.00  0.00    +0.260 C 
ATOM     15  O   UNL     1      -0.574   0.798  25.669  0.00  0.00    -0.272 OA
ATOM     16  N   UNL     1      -0.985   0.292  24.398  0.00  0.00    -0.196 NA
BRANCH  16  17
ATOM     17  C   UNL     1      -0.386  -0.273  24.428  0.00  0.00    +0.179 C 
BRANCH  17  28
ATOM     28  C   UNL     1      -0.547  -1.030  24.715  0.00  0.00    +0.281 C 
ATOM     29  N   UNL     1      -1.180  -1.461  24.411  0.00  0.00    -0.086 NA
ATOM     30  O   UNL     1      -0.072  -1.355  25.308  0.00  0.00    -0.270 OA
ENDBRANCH  17  28
BRANCH  17  18
ATOM     18  C   UNL     1       0.375  -0.082  24.173  0.00  0.00    +0.059 C 
BRANCH  18  19
ATOM     19  C   UNL     1       0.583  -0.185  23.381  0.00  0.00    +0.001 A 
ATOM     20  C   UNL     1       0.083  -0.446  22.779  0.00  0.00    +0.095 A 
ATOM     21  N   UNL     1       0.518  -0.467  22.078  0.00  0.00    -0.244 NA
ATOM     22  C   UNL     1       1.286  -0.219  22.247  0.00  0.00    +0.081 A 
ATOM     23  C   UNL     1       1.326  -0.044  23.053  0.00  0.00    +0.015 A 
ATOM     24  C   UNL     1       2.035   0.220  23.382  0.00  0.00    +0.001 A 
ATOM     25  C   UNL     1       2.702   0.310  22.907  0.00  0.00    +0.000 A 
ATOM     26  C   UNL     1       2.662   0.136  22.102  0.00  0.00    +0.002 A 
ATOM     27  C   UNL     1       1.954  -0.129  21.771  0.00  0.00    +0.019 A 
ENDBRANCH  18  19
ENDBRANCH  17  18
ENDBRANCH  16  17
ENDBRANCH  13  14
TORSDOF 8
ENDMDL
MODEL 6
REMARK VINA RESULT:      -9.8      2.030      5.002
REMARK  Name = 
REMARK  8 active torsions:
REMARK  status: ('A' for Active; 'I' for Inactive)
REMARK    1  A    between atoms: C_6  and  C_7
REMARK    2  A    between atoms: C_11  and  N_31
REMARK    3  A    between atoms: C_13  and  C_14
REMARK    4  A    between atoms: N_16  and  C_17
REMARK    5  A    between atoms: C_17  and  C_18
REMARK    6  A    between atoms: C_17  and  C_28
REMARK    7  A    between atoms: C_18  and  C_19
REMARK    8  A    between atoms: N_34  and  C_35
REMARK                            x       y       z     vdW  Elec       q    Type
REMARK                         _______ _______ _______ _____ _____    ______ ____
ROOT
ATOM      7  C   UNL     1      -1.478   2.523  25.032  0.00  0.00    +0.265 C 
ATOM      8  O   UNL     1      -2.235   2.538  25.359  0.00  0.00    -0.268 OA
ATOM      9  N   UNL     1      -1.189   1.829  24.694  0.00  0.00    -0.266 N 
ATOM     10  C   UNL     1      -0.446   1.731  24.347  0.00  0.00    +0.116 C 
ATOM     11  C   UNL     1      -0.390   0.951  24.082  0.00  0.00    +0.119 C 
ATOM     12  C   UNL     1      -1.097   0.568  24.265  0.00  0.00    +0.053 C 
ATOM     13  C   UNL     1      -1.591   1.110  24.643  0.00  0.00    +0.156 C 
ENDROOT
BRANCH   7   6
ATOM      1  C   UNL     1      -2.006   4.175  24.569  0.00  0.00    +0.131 C 
ATOM      2  N   UNL     1      -1.254   3.962  24.829  0.00  0.00    -0.320 N 
ATOM      3  C   UNL     1      -0.611   4.471  24.923  0.00  0.00    +0.076 A 
ATOM      4  C   UNL     1       0.029   4.026  25.193  0.00  0.00    +0.020 A 
ATOM      5  C   UNL     1      -0.217   3.243  25.267  0.00  0.00    +0.023 A 
ATOM      6  C   UNL     1      -1.010   3.203  25.042  0.00  0.00    +0.114 A 
ENDBRANCH   7   6
BRANCH  11  31
ATOM     31  N   UNL     1       0.261   0.615  23.701  0.00  0.00    -0.187 NA
ATOM     32  C   UNL     1       0.234  -0.174  23.461  0.00  0.00    +0.344 C 
ATOM     33  O   UNL     1      -0.441  -0.626  23.601  0.00  0.00    -0.249 OA
ATOM     34  N   UNL     1       0.885  -0.511  23.079  0.00  0.00    -0.159 NA
BRANCH  34  35
ATOM     35  C   UNL     1       1.560  -0.058  22.939  0.00  0.00    +0.102 A 
ATOM     36  C   UNL     1       1.882  -0.023  22.180  0.00  0.00    +0.158 A 
ATOM     37  F   UNL     1       1.529  -0.439  21.562  0.00  0.00    -0.203 F 
ATOM     38  C   UNL     1       2.558   0.430  22.039  0.00  0.00    +0.061 A 
ATOM     39  C   UNL     1       2.911   0.846  22.659  0.00  0.00    +0.142 A 
ATOM     40  F   UNL     1       3.587   1.298  22.518  0.00  0.00    -0.204 F 
ATOM     41  C   UNL     1       2.589   0.810  23.416  0.00  0.00    +0.031 A 
ATOM     42  C   UNL     1       1.913   0.358  23.557  0.00  0.00    +0.021 A 
ENDBRANCH  34  35
ENDBRANCH  11  31
BRANCH  13  14
ATOM     14  C   UNL     1      -2.353   0.959  24.921  0.00  0.00    +0.260 C 
ATOM     15  O   UNL     1      -2.532   1.079  25.718  0.00  0.00    -0.272 OA
ATOM     16  N   UNL     1      -2.936   0.690  24.404  0.00  0.00    -0.196 NA
BRANCH  16  17
ATOM     17  C   UNL     1      -3.697   0.540  24.682  0.00  0.00    +0.179 C 
BRANCH  17  28
ATOM     28  C   UNL     1      -4.282   1.118  24.613  0.00  0.00    +0.281 C 
ATOM     29  N   UNL     1      -4.782   1.277  25.248  0.00  0.00    -0.086 NA
ATOM     30  O   UNL     1      -4.366   1.536  23.906  0.00  0.00    -0.270 OA
ENDBRANCH  17  28
BRANCH  17  18
ATOM     18  C   UNL     1      -3.874  -0.187  25.030  0.00  0.00    +0.059 C 
BRANCH  18  19
ATOM     19  C   UNL     1      -3.980  -0.855  24.558  0.00  0.00    +0.001 A 
ATOM     20  C   UNL     1      -4.316  -0.869  23.804  0.00  0.00    +0.095 A 
ATOM     21  N   UNL     1      -4.313  -1.649  23.538  0.00  0.00    -0.244 NA
ATOM     22  C   UNL     1      -3.976  -2.118  24.126  0.00  0.00    +0.081 A 
ATOM     23  C   UNL     1      -3.770  -1.627  24.757  0.00  0.00    +0.015 A 
ATOM     24  C   UNL     1      -3.417  -1.948  25.431  0.00  0.00    +0.001 A 
ATOM     25  C   UNL     1      -3.271  -2.758  25.474  0.00  0.00    +0.000 A 
ATOM     26  C   UNL     1      -3.476  -3.249  24.843  0.00  0.00    +0.002 A 
ATOM     27  C   UNL     1      -3.829  -2.929  24.169  0.00  0.00    +0.019 A 
ENDBRANCH  18  19
ENDBRANCH  17  18
ENDBRANCH  16  17
ENDBRANCH  13  14
TORSDOF 8
ENDMDL
MODEL 7
REMARK VINA RESULT:      -9.4      1.964      4.136
REMARK  Name = 
REMARK  8 active torsions:
REMARK  status: ('A' for Active; 'I' for Inactive)
REMARK    1  A    between atoms: C_6  and  C_7
REMARK    2  A    between atoms: C_11  and  N_31
REMARK    3  A    between atoms: C_13  and  C_14
REMARK    4  A    between atoms: N_16  and  C_17
REMARK    5  A    between atoms: C_17  and  C_18
REMARK    6  A    between atoms: C_17  and  C_28
REMARK    7  A    between atoms: C_18  and  C_19
REMARK    8  A    between atoms: N_34  and  C_35
REMARK                            x       y       z     vdW  Elec       q    Type
REMARK                         _______ _______ _______ _____ _____    ______ ____
ROOT
ATOM      7  C   UNL     1      -3.802  -0.889  24.898  0.00  0.00    +0.265 C 
ATOM      8  O   UNL     1      -4.534  -0.576  25.110  0.00  0.00    -0.268 OA
ATOM      9  N   UNL     1      -3.153  -0.390  24.796  0.00  0.00    -0.266 N 
ATOM     10  C   UNL     1      -2.390  -0.623  24.585  0.00  0.00    +0.116 C 
ATOM     11  C   UNL     1      -1.919   0.053  24.545  0.00  0.00    +0.119 C 
ATOM     12  C   UNL     1      -2.392   0.705  24.730  0.00  0.00    +0.053 C 
ATOM     13  C   UNL     1      -3.154   0.430  24.885  0.00  0.00    +0.156 C 
ENDROOT
BRANCH   7   6
ATOM      1  C   UNL     1      -4.535  -1.858  23.577  0.00  0.00    +0.131 C 
ATOM      2  N   UNL     1      -4.054  -2.148  24.182  0.00  0.00    -0.320 N 
ATOM      3  C   UNL     1      -3.826  -2.934  24.285  0.00  0.00    +0.076 A 
ATOM      4  C   UNL     1      -3.348  -2.975  24.956  0.00  0.00    +0.020 A 
ATOM      5  C   UNL     1      -3.281  -2.214  25.268  0.00  0.00    +0.023 A 
ATOM      6  C   UNL     1      -3.717  -1.703  24.789  0.00  0.00    +0.114 A 
ENDBRANCH   7   6
BRANCH  11  31
ATOM     31  N   UNL     1      -1.117   0.075  24.353  0.00  0.00    -0.187 NA
ATOM     32  C   UNL     1      -0.558   0.247  24.935  0.00  0.00    +0.344 C 
ATOM     33  O   UNL     1      -0.801   0.397  25.709  0.00  0.00    -0.249 OA
ATOM     34  N   UNL     1       0.244   0.268  24.743  0.00  0.00    -0.159 NA
BRANCH  34  35
ATOM     35  C   UNL     1       0.487   0.118  23.969  0.00  0.00    +0.102 A 
ATOM     36  C   UNL     1       0.866   0.708  23.534  0.00  0.00    +0.158 A 
ATOM     37  F   UNL     1       1.002   1.447  23.872  0.00  0.00    -0.203 F 
ATOM     38  C   UNL     1       1.109   0.558  22.760  0.00  0.00    +0.061 A 
ATOM     39  C   UNL     1       0.973  -0.183  22.422  0.00  0.00    +0.142 A 
ATOM     40  F   UNL     1       1.216  -0.333  21.648  0.00  0.00    -0.204 F 
ATOM     41  C   UNL     1       0.595  -0.771  22.857  0.00  0.00    +0.031 A 
ATOM     42  C   UNL     1       0.352  -0.622  23.631  0.00  0.00    +0.021 A 
ENDBRANCH  34  35
ENDBRANCH  11  31
BRANCH  13  14
ATOM     14  C   UNL     1      -3.803   0.895  25.093  0.00  0.00    +0.260 C 
ATOM     15  O   UNL     1      -4.269   0.686  25.741  0.00  0.00    -0.272 OA
ATOM     16  N   UNL     1      -3.986   1.569  24.654  0.00  0.00    -0.196 NA
BRANCH  16  17
ATOM     17  C   UNL     1      -4.635   2.033  24.862  0.00  0.00    +0.179 C 
BRANCH  17  28
ATOM     28  C   UNL     1      -5.394   1.811  24.622  0.00  0.00    +0.281 C 
ATOM     29  N   UNL     1      -6.009   1.787  25.170  0.00  0.00    -0.086 NA
ATOM     30  O   UNL     1      -5.535   1.615  23.833  0.00  0.00    -0.270 OA
ENDBRANCH  17  28
BRANCH  17  18
ATOM     18  C   UNL     1      -4.527   2.718  25.308  0.00  0.00    +0.059 C 
BRANCH  18  19
ATOM     19  C   UNL     1      -4.105   3.353  24.995  0.00  0.00    +0.001 A 
ATOM     20  C   UNL     1      -4.165   3.643  24.224  0.00  0.00    +0.095 A 
ATOM     21  N   UNL     1      -3.646   4.279  24.149  0.00  0.00    -0.244 NA
ATOM     22  C   UNL     1      -3.264   4.383  24.873  0.00  0.00    +0.081 A 
ATOM     23  C   UNL     1      -3.548   3.810  25.395  0.00  0.00    +0.015 A 
ATOM     24  C   UNL     1      -3.262   3.781  26.169  0.00  0.00    +0.001 A 
ATOM     25  C   UNL     1      -2.693   4.322  26.420  0.00  0.00    +0.000 A 
ATOM     26  C   UNL     1      -2.409   4.894  25.897  0.00  0.00    +0.002 A 
ATOM     27  C   UNL     1      -2.694   4.925  25.124  0.00  0.00    +0.019 A 
ENDBRANCH  18  19
ENDBRANCH  17  18
ENDBRANCH  16  17
ENDBRANCH  13  14
TORSDOF 8
ENDMDL
MODEL 8
REMARK VINA RESULT:      -9.2      2.405      6.182
REMARK  Name = 
REMARK  8 active torsions:
REMARK  status: ('A' for Active; 'I' for Inactive)
REMARK    1  A    between atoms: C_6  and  C_7
REMARK    2  A    between atoms: C_11  and  N_31
REMARK    3  A    between atoms: C_13  and  C_14
REMARK    4  A    between atoms: N_16  and  C_17
REMARK    5  A    between atoms: C_17  and  C_18
REMARK    6  A    between atoms: C_17  and  C_28
REMARK    7  A    between atoms: C_18  and  C_19
REMARK    8  A    between atoms: N_34  and  C_35
REMARK                            x       y       z     vdW  Elec       q    Type
REMARK                         _______ _______ _______ _____ _____    ______ ____
ROOT
ATOM      7  C   UNL     1      -0.869  -0.683  24.584  0.00  0.00    +0.265 C 
ATOM      8  O   UNL     1      -0.445  -1.260  24.176  0.00  0.00    -0.268 OA
ATOM      9  N   UNL     1      -0.616   0.102  24.570  0.00  0.00    -0.266 N 
ATOM     10  C   UNL     1      -0.982   0.736  24.951  0.00  0.00    +0.116 C 
ATOM     11  C   UNL     1      -0.544   1.417  24.789  0.00  0.00    +0.119 C 
ATOM     12  C   UNL     1       0.092   1.204  24.308  0.00  0.00    +0.053 C 
ATOM     13  C   UNL     1       0.048   0.391  24.173  0.00  0.00    +0.156 C 
ENDROOT
BRANCH   7   6
ATOM      1  C   UNL     1      -2.350  -1.433  23.902  0.00  0.00    +0.131 C 
ATOM      2  N   UNL     1      -2.227  -1.235  24.693  0.00  0.00    -0.320 N 
ATOM      3  C   UNL     1      -2.764  -1.347  25.310  0.00  0.00    +0.076 A 
ATOM      4  C   UNL     1      -2.414  -1.071  26.005  0.00  0.00    +0.020 A 
ATOM      5  C   UNL     1      -1.663  -0.789  25.818  0.00  0.00    +0.023 A 
ATOM      6  C   UNL     1      -1.546  -0.890  25.007  0.00  0.00    +0.114 A 
ENDBRANCH   7   6
BRANCH  11  31
ATOM     31  N   UNL     1      -0.714   2.178  25.060  0.00  0.00    -0.187 NA
ATOM     32  C   UNL     1      -0.192   2.558  25.574  0.00  0.00    +0.344 C 
ATOM     33  O   UNL     1       0.499   2.178  25.817  0.00  0.00    -0.249 OA
ATOM     34  N   UNL     1      -0.361   3.319  25.845  0.00  0.00    -0.159 NA
BRANCH  34  35
ATOM     35  C   UNL     1      -1.051   3.700  25.602  0.00  0.00    +0.102 A 
ATOM     36  C   UNL     1      -1.006   4.374  25.129  0.00  0.00    +0.158 A 
ATOM     37  F   UNL     1      -0.271   4.669  24.900  0.00  0.00    -0.203 F 
ATOM     38  C   UNL     1      -1.696   4.756  24.886  0.00  0.00    +0.061 A 
ATOM     39  C   UNL     1      -2.432   4.460  25.116  0.00  0.00    +0.142 A 
ATOM     40  F   UNL     1      -3.123   4.841  24.873  0.00  0.00    -0.204 F 
ATOM     41  C   UNL     1      -2.477   3.787  25.588  0.00  0.00    +0.031 A 
ATOM     42  C   UNL     1      -1.787   3.405  25.831  0.00  0.00    +0.021 A 
ENDBRANCH  34  35
ENDBRANCH  11  31
BRANCH  13  14
ATOM     14  C   UNL     1       0.574  -0.055  23.721  0.00  0.00    +0.260 C 
ATOM     15  O   UNL     1       0.609  -0.873  23.817  0.00  0.00    -0.272 OA
ATOM     16  N   UNL     1       1.066   0.318  23.173  0.00  0.00    -0.196 NA
BRANCH  16  17
ATOM     17  C   UNL     1       1.592  -0.128  22.721  0.00  0.00    +0.179 C 
BRANCH  17  28
ATOM     28  C   UNL     1       1.389  -0.350  21.952  0.00  0.00    +0.281 C 
ATOM     29  N   UNL     1       1.607  -1.091  21.666  0.00  0.00    -0.086 NA
ATOM     30  O   UNL     1       0.967   0.172  21.471  0.00  0.00    -0.270 OA
ENDBRANCH  17  28
BRANCH  17  18
ATOM     18  C   UNL     1       2.321  -0.351  23.037  0.00  0.00    +0.059 C 
BRANCH  18  19
ATOM     19  C   UNL     1       2.968   0.156  22.982  0.00  0.00    +0.001 A 
ATOM     20  C   UNL     1       2.958   0.924  22.679  0.00  0.00    +0.095 A 
ATOM     21  N   UNL     1       3.722   1.228  22.730  0.00  0.00    -0.244 NA
ATOM     22  C   UNL     1       4.205   0.650  23.065  0.00  0.00    +0.081 A 
ATOM     23  C   UNL     1       3.739  -0.013  23.220  0.00  0.00    +0.015 A 
ATOM     24  C   UNL     1       4.077  -0.685  23.559  0.00  0.00    +0.001 A 
ATOM     25  C   UNL     1       4.881  -0.695  23.741  0.00  0.00    +0.000 A 
ATOM     26  C   UNL     1       5.348  -0.032  23.586  0.00  0.00    +0.002 A 
ATOM     27  C   UNL     1       5.010   0.640  23.248  0.00  0.00    +0.019 A 
ENDBRANCH  18  19
ENDBRANCH  17  18
ENDBRANCH  16  17
ENDBRANCH  13  14
TORSDOF 8
ENDMDL
MODEL 9
REMARK VINA RESULT:      -9.1      2.291      5.062
REMARK  Name = 
REMARK  8 active torsions:
REMARK  status: ('A' for Active; 'I' for Inactive)
REMARK    1  A    between atoms: C_6  and  C_7
REMARK    2  A    between atoms: C_11  and  N_31
REMARK    3  A    between atoms: C_13  and  C_14
REMARK    4  A    between atoms: N_16  and  C_17
REMARK    5  A    between atoms: C_17  and  C_18
REMARK    6  A    between atoms: C_17  and  C_28
REMARK    7  A    between atoms: C_18  and  C_19
REMARK    8  A    between atoms: N_34  and  C_35
REMARK                            x       y       z     vdW  Elec       q    Type
REMARK                         _______ _______ _______ _____ _____    ______ ____
ROOT
ATOM      7  C   UNL     1      -0.763   1.459  24.988  0.00  0.00    +0.265 C 
ATOM      8  O   UNL     1      -1.419   1.189  25.408  0.00  0.00    -0.268 OA
ATOM      9  N   UNL     1      -0.261   0.921  24.617  0.00  0.00    -0.266 N 
ATOM     10  C   UNL     1       0.413   1.108  24.179  0.00  0.00    +0.116 C 
ATOM     11  C   UNL     1       0.747   0.403  23.910  0.00  0.00    +0.119 C 
ATOM     12  C   UNL     1       0.279  -0.221  24.181  0.00  0.00    +0.053 C 
ATOM     13  C   UNL     1      -0.344   0.099  24.618  0.00  0.00    +0.156 C 
ENDROOT
BRANCH   7   6
ATOM      1  C   UNL     1      -1.748   2.669  24.099  0.00  0.00    +0.131 C 
ATOM      2  N   UNL     1      -1.062   2.823  24.530  0.00  0.00    -0.320 N 
ATOM      3  C   UNL     1      -0.709   3.563  24.628  0.00  0.00    +0.076 A 
ATOM      4  C   UNL     1      -0.037   3.464  25.097  0.00  0.00    +0.020 A 
ATOM      5  C   UNL     1       0.025   2.664  25.288  0.00  0.00    +0.023 A 
ATOM      6  C   UNL     1      -0.609   2.268  24.938  0.00  0.00    +0.114 A 
ENDBRANCH   7   6
BRANCH  11  31
ATOM     31  N   UNL     1       1.429   0.333  23.451  0.00  0.00    -0.187 NA
ATOM     32  C   UNL     1       1.383   0.018  22.690  0.00  0.00    +0.344 C 
ATOM     33  O   UNL     1       0.655  -0.227  22.388  0.00  0.00    -0.249 OA
ATOM     34  N   UNL     1       2.065  -0.051  22.230  0.00  0.00    -0.159 NA
BRANCH  34  35
ATOM     35  C   UNL     1       2.792   0.194  22.532  0.00  0.00    +0.102 A 
ATOM     36  C   UNL     1       3.334  -0.364  22.806  0.00  0.00    +0.158 A 
ATOM     37  F   UNL     1       3.150  -1.167  22.778  0.00  0.00    -0.203 F 
ATOM     38  C   UNL     1       4.063  -0.119  23.107  0.00  0.00    +0.061 A 
ATOM     39  C   UNL     1       4.247   0.685  23.135  0.00  0.00    +0.142 A 
ATOM     40  F   UNL     1       4.975   0.931  23.436  0.00  0.00    -0.204 F 
ATOM     41  C   UNL     1       3.705   1.242  22.861  0.00  0.00    +0.031 A 
ATOM     42  C   UNL     1       2.977   0.997  22.559  0.00  0.00    +0.021 A 
ENDBRANCH  34  35
ENDBRANCH  11  31
BRANCH  13  14
ATOM     14  C   UNL     1      -0.944  -0.327  24.990  0.00  0.00    +0.260 C 
ATOM     15  O   UNL     1      -0.980  -0.355  25.814  0.00  0.00    -0.272 OA
ATOM     16  N   UNL     1      -1.509  -0.725  24.539  0.00  0.00    -0.196 NA
BRANCH  16  17
ATOM     17  C   UNL     1      -2.109  -1.150  24.911  0.00  0.00    +0.179 C 
BRANCH  17  28
ATOM     28  C   UNL     1      -2.041  -1.969  24.996  0.00  0.00    +0.281 C 
ATOM     29  N   UNL     1      -1.806  -2.432  24.357  0.00  0.00    -0.086 NA
ATOM     30  O   UNL     1      -2.210  -2.322  25.723  0.00  0.00    -0.270 OA
ENDBRANCH  17  28
BRANCH  17  18
ATOM     18  C   UNL     1      -2.776  -0.759  25.199  0.00  0.00    +0.059 C 
BRANCH  18  19
ATOM     19  C   UNL     1      -3.427  -0.637  24.708  0.00  0.00    +0.001 A 
ATOM     20  C   UNL     1      -3.574  -1.024  23.993  0.00  0.00    +0.095 A 
ATOM     21  N   UNL     1      -4.283  -0.733  23.688  0.00  0.00    -0.244 NA
ATOM     22  C   UNL     1      -4.574  -0.168  24.213  0.00  0.00    +0.081 A 
ATOM     23  C   UNL     1      -4.044  -0.109  24.843  0.00  0.00    +0.015 A 
ATOM     24  C   UNL     1      -4.194   0.420  25.459  0.00  0.00    +0.001 A 
ATOM     25  C   UNL     1      -4.872   0.888  25.446  0.00  0.00    +0.000 A 
ATOM     26  C   UNL     1      -5.402   0.829  24.816  0.00  0.00    +0.002 A 
ATOM     27  C   UNL     1      -5.253   0.301  24.199  0.00  0.00    +0.019 A 
ENDBRANCH  18  19
ENDBRANCH  17  18
ENDBRANCH  16  17
ENDBRANCH  13  14
TORSDOF 8
ENDMDL
