MODEL 1
REMARK VINA RESULT:     -10.3      0.000      0.000
REMARK  Name = 
REMARK  4 active torsions:
REMARK  status: ('A' for Active; 'I' for Inactive)
REMARK    1  A    between atoms: C_4  and  C_8
REMARK    2  A    between atoms: N_13  and  C_14
REMARK    3  A    between atoms: C_18  and  N_22
REMARK    4  A    between atoms: C_23  and  C_25
REMARK                            x       y       z     vdW  Elec       q    Type
REMARK                         _______ _______ _______ _____ _____    ______ ____
ROOT
ATOM     14  C   UNL     1      -0.813   1.531  24.767  0.00  0.00    +0.154 C 
ATOM     15  C   UNL     1      -0.297   2.054  25.141  0.00  0.00    +0.166 C 
ATOM     16  O   UNL     1       0.461   1.920  24.844  0.00  0.00    -0.350 OA
ATOM     17  C   UNL     1       0.413   1.314  24.287  0.00  0.00    +0.166 C 
ATOM     18  C   UNL     1       0.851   0.857  23.758  0.00  0.00    +0.154 C 
ATOM     19  C   UNL     1       0.335   0.334  23.384  0.00  0.00    +0.166 C 
ATOM     20  O   UNL     1      -0.422   0.468  23.681  0.00  0.00    -0.350 OA
ATOM     21  C   UNL     1      -0.374   1.074  24.239  0.00  0.00    +0.166 C 
ENDROOT
BRANCH  14  13
ATOM      8  C   UNL     1      -3.382   2.769  24.952  0.00  0.00    +0.086 A 
ATOM      9  C   UNL     1      -3.042   3.501  24.782  0.00  0.00    +0.040 A 
ATOM     10  C   UNL     1      -2.229   3.558  24.651  0.00  0.00    +0.103 A 
ATOM     11  N   UNL     1      -1.756   2.882  24.690  0.00  0.00    -0.211 NA
ATOM     12  C   UNL     1      -2.098   2.150  24.860  0.00  0.00    +0.237 A 
ATOM     13  N   UNL     1      -1.626   1.474  24.898  0.00  0.00    -0.200 NA
ATOM     31  N   UNL     1      -2.910   2.094  24.991  0.00  0.00    -0.212 NA
BRANCH   8   4
ATOM      1  F   UNL     1      -5.889   1.493  24.447  0.00  0.00    -0.204 F 
ATOM      2  C   UNL     1      -5.448   2.075  24.831  0.00  0.00    +0.140 A 
ATOM      3  C   UNL     1      -4.636   2.131  24.700  0.00  0.00    +0.031 A 
ATOM      4  C   UNL     1      -4.194   2.714  25.083  0.00  0.00    +0.020 A 
ATOM      5  C   UNL     1      -4.566   3.240  25.597  0.00  0.00    +0.002 A 
ATOM      6  C   UNL     1      -5.379   3.185  25.729  0.00  0.00    +0.002 A 
ATOM      7  C   UNL     1      -5.820   2.602  25.345  0.00  0.00    +0.030 A 
ENDBRANCH   8   4
ENDBRANCH  14  13
BRANCH  18  22
ATOM     22  N   UNL     1       1.664   0.913  23.627  0.00  0.00    -0.202 NA
ATOM     23  C   UNL     1       2.034   0.394  23.104  0.00  0.00    +0.241 C 
ATOM     24  O   UNL     1       1.593  -0.182  22.711  0.00  0.00    -0.273 OA
BRANCH  23  25
ATOM     25  C   UNL     1       2.847   0.450  22.973  0.00  0.00    +0.078 C 
ATOM     26  C   UNL     1       3.174   1.160  22.709  0.00  0.00    +0.009 C 
ATOM     27  C   UNL     1       3.987   1.217  22.577  0.00  0.00    +0.000 C 
ATOM     28  C   UNL     1       4.472   0.562  22.710  0.00  0.00    +0.000 C 
ATOM     29  C   UNL     1       4.145  -0.147  22.974  0.00  0.00    +0.000 C 
ATOM     30  C   UNL     1       3.332  -0.204  23.105  0.00  0.00    +0.009 C 
ENDBRANCH  23  25
ENDBRANCH  18  22
TORSDOF 4
ENDMDL
MODEL 2
REMARK VINA RESULT:     -10.3      2.201      6.817
REMARK  Name = 
REMARK  4 active torsions:
REMARK  status: ('A' for Active; 'I' for Inactive)
REMARK    1  A    between atoms: C_4  and  C_8
REMARK    2  A    between atoms: N_13  and  C_14
REMARK    3  A    between atoms: C_18  and  N_22
REMARK    4  A    between atoms: C_23  and  C_25
REMARK                            x       y       z     vdW  Elec       q    Type
REMARK                         _______ _______ _______ _____ _____    ______ ____
ROOT
ATOM     14  C   UNL     1      -0.534   1.610  24.602  0.00  0.00    +0.154 C 
ATOM     15  C   UNL     1      -0.778   1.087  25.191  0.00  0.00    +0.166 C 
ATOM     16  O   UNL     1      -1.567   1.251  25.366  0.00  0.00    -0.350 OA
ATOM     17  C   UNL     1      -1.811   1.875  24.885  0.00  0.00    +0.166 C 
ATOM     18  C   UNL     1      -2.449   2.362  24.695  0.00  0.00    +0.154 C 
ATOM     19  C   UNL     1      -2.205   2.885  24.105  0.00  0.00    +0.166 C 
ATOM     20  O   UNL     1      -1.416   2.721  23.931  0.00  0.00    -0.350 OA
ATOM     21  C   UNL     1      -1.172   2.096  24.412  0.00  0.00    +0.166 C 
ENDROOT
BRANCH  14  13
ATOM      8  C   UNL     1       1.562   0.359  23.115  0.00  0.00    +0.086 A 
ATOM      9  C   UNL     1       1.108  -0.327  23.052  0.00  0.00    +0.040 A 
ATOM     10  C   UNL     1       0.357  -0.357  23.392  0.00  0.00    +0.103 A 
ATOM     11  N   UNL     1       0.060   0.298  23.795  0.00  0.00    -0.211 NA
ATOM     12  C   UNL     1       0.514   0.985  23.858  0.00  0.00    +0.237 A 
ATOM     13  N   UNL     1       0.217   1.640  24.261  0.00  0.00    -0.200 NA
ATOM     31  N   UNL     1       1.265   1.015  23.518  0.00  0.00    -0.212 NA
BRANCH   8   4
ATOM      1  F   UNL     1       4.311   1.130  23.247  0.00  0.00    -0.204 F 
ATOM      2  C   UNL     1       3.687   0.775  22.841  0.00  0.00    +0.140 A 
ATOM      3  C   UNL     1       2.936   0.745  23.181  0.00  0.00    +0.031 A 
ATOM      4  C   UNL     1       2.313   0.389  22.774  0.00  0.00    +0.020 A 
ATOM      5  C   UNL     1       2.440   0.063  22.027  0.00  0.00    +0.002 A 
ATOM      6  C   UNL     1       3.191   0.093  21.686  0.00  0.00    +0.002 A 
ATOM      7  C   UNL     1       3.815   0.449  22.093  0.00  0.00    +0.030 A 
ENDBRANCH   8   4
ENDBRANCH  14  13
BRANCH  18  22
ATOM     22  N   UNL     1      -3.200   2.332  25.035  0.00  0.00    -0.202 NA
ATOM     23  C   UNL     1      -3.868   2.478  24.574  0.00  0.00    +0.241 C 
ATOM     24  O   UNL     1      -3.786   2.654  23.772  0.00  0.00    -0.273 OA
BRANCH  23  25
ATOM     25  C   UNL     1      -4.620   2.448  24.914  0.00  0.00    +0.078 C 
ATOM     26  C   UNL     1      -5.107   1.796  24.780  0.00  0.00    +0.009 C 
ATOM     27  C   UNL     1      -5.859   1.765  25.119  0.00  0.00    +0.000 C 
ATOM     28  C   UNL     1      -6.121   2.387  25.595  0.00  0.00    +0.000 C 
ATOM     29  C   UNL     1      -5.633   3.038  25.729  0.00  0.00    +0.000 C 
ATOM     30  C   UNL     1      -4.882   3.069  25.389  0.00  0.00    +0.009 C 
ENDBRANCH  23  25
ENDBRANCH  18  22
TORSDOF 4
ENDMDL
MODEL 3
REMARK VINA RESULT:      -9.7      1.850      2.353
REMARK  Name = 
REMARK  4 active torsions:
REMARK  status: ('A' for Active; 'I' for Inactive)
REMARK    1  A    between atoms: C_4  and  C_8
REMARK    2  A    between atoms: N_13  and  C_14
REMARK    3  A    between atoms: C_18  and  N_22
REMARK    4  A    between atoms: C_23  and  C_25
REMARK                            x       y       z     vdW  Elec       q    Type
REMARK                         _______ _______ _______ _____ _____    ______ ____
ROOT
ATOM     14  C   UNL     1       0.096   0.857  23.657  0.00  0.00    +0.154 C 
ATOM     15  C   UNL     1       0.454   1.377  24.187  0.00  0.00    +0.166 C 
ATOM     16  O   UNL     1       1.271   1.315  24.092  0.00  0.00    -0.350 OA
ATOM     17  C   UNL     1       1.418   0.756  23.504  0.00  0.00    +0.166 C 
ATOM     18  C   UNL     1       2.013   0.371  23.082  0.00  0.00    +0.154 C 
ATOM     19  C   UNL     1       1.655  -0.150  22.552  0.00  0.00    +0.166 C 
ATOM     20  O   UNL     1       0.838  -0.087  22.647  0.00  0.00    -0.350 OA
ATOM     21  C   UNL     1       0.691   0.473  23.235  0.00  0.00    +0.166 C 
ENDROOT
BRANCH  14  13
ATOM      8  C   UNL     1      -2.426   0.047  24.732  0.00  0.00    +0.086 A 
ATOM      9  C   UNL     1      -2.063  -0.125  25.453  0.00  0.00    +0.040 A 
ATOM     10  C   UNL     1      -1.251  -0.009  25.544  0.00  0.00    +0.103 A 
ATOM     11  N   UNL     1      -0.802   0.280  24.916  0.00  0.00    -0.211 NA
ATOM     12  C   UNL     1      -1.165   0.452  24.195  0.00  0.00    +0.237 A 
ATOM     13  N   UNL     1      -0.716   0.741  23.566  0.00  0.00    -0.200 NA
ATOM     31  N   UNL     1      -1.976   0.336  24.103  0.00  0.00    -0.212 NA
BRANCH   8   4
ATOM      1  F   UNL     1      -4.616  -1.612  23.947  0.00  0.00    -0.204 F 
ATOM      2  C   UNL     1      -4.332  -0.898  24.249  0.00  0.00    +0.140 A 
ATOM      3  C   UNL     1      -3.521  -0.782  24.340  0.00  0.00    +0.031 A 
ATOM      4  C   UNL     1      -3.237  -0.069  24.641  0.00  0.00    +0.020 A 
ATOM      5  C   UNL     1      -3.765   0.529  24.851  0.00  0.00    +0.002 A 
ATOM      6  C   UNL     1      -4.577   0.413  24.760  0.00  0.00    +0.002 A 
ATOM      7  C   UNL     1      -4.861  -0.300  24.459  0.00  0.00    +0.030 A 
ENDBRANCH   8   4
ENDBRANCH  14  13
BRANCH  18  22
ATOM     22  N   UNL     1       2.825   0.487  23.173  0.00  0.00    -0.202 NA
ATOM     23  C   UNL     1       3.335  -0.161  23.193  0.00  0.00    +0.241 C 
ATOM     24  O   UNL     1       3.033  -0.926  23.121  0.00  0.00    -0.273 OA
BRANCH  23  25
ATOM     25  C   UNL     1       4.147  -0.045  23.284  0.00  0.00    +0.078 C 
ATOM     26  C   UNL     1       4.594  -0.585  23.719  0.00  0.00    +0.009 C 
ATOM     27  C   UNL     1       5.406  -0.470  23.811  0.00  0.00    +0.000 C 
ATOM     28  C   UNL     1       5.770   0.187  23.467  0.00  0.00    +0.000 C 
ATOM     29  C   UNL     1       5.322   0.726  23.034  0.00  0.00    +0.000 C 
ATOM     30  C   UNL     1       4.510   0.611  22.942  0.00  0.00    +0.009 C 
ENDBRANCH  23  25
ENDBRANCH  18  22
TORSDOF 4
ENDMDL
MODEL 4
REMARK VINA RESULT:      -8.4     15.310     16.333
REMARK  Name = 
REMARK  4 active torsions:
REMARK  status: ('A' for Active; 'I' for Inactive)
REMARK    1  A    between atoms: C_4  and  C_8
REMARK    2  A    between atoms: N_13  and  C_14
REMARK    3  A    between atoms: C_18  and  N_22
REMARK    4  A    between atoms: C_23  and  C_25
REMARK                            x       y       z     vdW  Elec       q    Type
REMARK                         _______ _______ _______ _____ _____    ______ ____
ROOT
ATOM     14  C   UNL     1      -5.533 -10.428  14.360  0.00  0.00    +0.154 C 
ATOM     15  C   UNL     1      -4.810 -10.779  14.173  0.00  0.00    +0.166 C 
ATOM     16  O   UNL     1      -4.633 -10.594  13.389  0.00  0.00    -0.350 OA
ATOM     17  C   UNL     1      -5.245 -10.129  13.091  0.00  0.00    +0.166 C 
ATOM     18  C   UNL     1      -5.515  -9.727  12.423  0.00  0.00    +0.154 C 
ATOM     19  C   UNL     1      -6.238  -9.376  12.610  0.00  0.00    +0.166 C 
ATOM     20  O   UNL     1      -6.415  -9.561  13.394  0.00  0.00    -0.350 OA
ATOM     21  C   UNL     1      -5.801 -10.026  13.692  0.00  0.00    +0.166 C 
ENDROOT
BRANCH  14  13
ATOM      8  C   UNL     1      -5.432 -10.456  17.216  0.00  0.00    +0.086 A 
ATOM      9  C   UNL     1      -4.611 -10.384  17.188  0.00  0.00    +0.040 A 
ATOM     10  C   UNL     1      -4.225 -10.341  16.460  0.00  0.00    +0.103 A 
ATOM     11  N   UNL     1      -4.661 -10.370  15.760  0.00  0.00    -0.211 NA
ATOM     12  C   UNL     1      -5.483 -10.442  15.789  0.00  0.00    +0.237 A 
ATOM     13  N   UNL     1      -5.918 -10.471  15.088  0.00  0.00    -0.200 NA
ATOM     31  N   UNL     1      -5.868 -10.485  16.516  0.00  0.00    -0.212 NA
BRANCH   8   4
ATOM      1  F   UNL     1      -7.818 -10.217  18.773  0.00  0.00    -0.204 F 
ATOM      2  C   UNL     1      -7.010 -10.379  18.722  0.00  0.00    +0.140 A 
ATOM      3  C   UNL     1      -6.625 -10.337  17.994  0.00  0.00    +0.031 A 
ATOM      4  C   UNL     1      -5.818 -10.499  17.944  0.00  0.00    +0.020 A 
ATOM      5  C   UNL     1      -5.395 -10.704  18.623  0.00  0.00    +0.002 A 
ATOM      6  C   UNL     1      -5.781 -10.747  19.351  0.00  0.00    +0.002 A 
ATOM      7  C   UNL     1      -6.588 -10.585  19.402  0.00  0.00    +0.030 A 
ENDBRANCH   8   4
ENDBRANCH  14  13
BRANCH  18  22
ATOM     22  N   UNL     1      -5.130  -9.684  11.695  0.00  0.00    -0.202 NA
ATOM     23  C   UNL     1      -5.216  -9.015  11.221  0.00  0.00    +0.241 C 
ATOM     24  O   UNL     1      -5.689  -8.388  11.475  0.00  0.00    -0.273 OA
BRANCH  23  25
ATOM     25  C   UNL     1      -4.831  -8.972  10.493  0.00  0.00    +0.078 C 
ATOM     26  C   UNL     1      -4.006  -8.981  10.461  0.00  0.00    +0.009 C 
ATOM     27  C   UNL     1      -3.620  -8.938   9.734  0.00  0.00    +0.000 C 
ATOM     28  C   UNL     1      -4.060  -8.886   9.037  0.00  0.00    +0.000 C 
ATOM     29  C   UNL     1      -4.883  -8.876   9.069  0.00  0.00    +0.000 C 
ATOM     30  C   UNL     1      -5.270  -8.919   9.796  0.00  0.00    +0.009 C 
ENDBRANCH  23  25
ENDBRANCH  18  22
TORSDOF 4
ENDMDL
MODEL 5
REMARK VINA RESULT:      -7.7     15.487     16.309
REMARK  Name = 
REMARK  4 active torsions:
REMARK  status: ('A' for Active; 'I' for Inactive)
REMARK    1  A    between atoms: C_4  and  C_8
REMARK    2  A    between atoms: N_13  and  C_14
REMARK    3  A    between atoms: C_18  and  N_22
REMARK    4  A    between atoms: C_23  and  C_25
REMARK                            x       y       z     vdW  Elec       q    Type
REMARK                         _______ _______ _______ _____ _____    ______ ____
ROOT
ATOM     14  C   UNL     1      -7.009 -10.084  14.146  0.00  0.00    +0.154 C 
ATOM     15  C   UNL     1      -6.349 -10.540  14.338  0.00  0.00    +0.166 C 
ATOM     16  O   UNL     1      -5.810 -10.482  13.716  0.00  0.00    -0.350 OA
ATOM     17  C   UNL     1      -6.136  -9.990  13.141  0.00  0.00    +0.166 C 
ATOM     18  C   UNL     1      -6.005  -9.649  12.401  0.00  0.00    +0.154 C 
ATOM     19  C   UNL     1      -6.665  -9.193  12.209  0.00  0.00    +0.166 C 
ATOM     20  O   UNL     1      -7.204  -9.251  12.830  0.00  0.00    -0.350 OA
ATOM     21  C   UNL     1      -6.877  -9.744  13.406  0.00  0.00    +0.166 C 
ENDROOT
BRANCH  14  13
ATOM      8  C   UNL     1      -8.204  -9.474  16.670  0.00  0.00    +0.086 A 
ATOM      9  C   UNL     1      -7.456  -9.368  16.999  0.00  0.00    +0.040 A 
ATOM     10  C   UNL     1      -6.782  -9.467  16.532  0.00  0.00    +0.103 A 
ATOM     11  N   UNL     1      -6.857  -9.672  15.737  0.00  0.00    -0.211 NA
ATOM     12  C   UNL     1      -7.607  -9.779  15.408  0.00  0.00    +0.237 A 
ATOM     13  N   UNL     1      -7.682  -9.985  14.612  0.00  0.00    -0.200 NA
ATOM     31  N   UNL     1      -8.280  -9.680  15.874  0.00  0.00    -0.212 NA
BRANCH   8   4
ATOM      1  F   UNL     1     -10.336  -7.826  17.622  0.00  0.00    -0.204 F 
ATOM      2  C   UNL     1      -9.943  -8.551  17.612  0.00  0.00    +0.140 A 
ATOM      3  C   UNL     1      -9.270  -8.650  17.146  0.00  0.00    +0.031 A 
ATOM      4  C   UNL     1      -8.877  -9.375  17.136  0.00  0.00    +0.020 A 
ATOM      5  C   UNL     1      -9.158 -10.002  17.593  0.00  0.00    +0.002 A 
ATOM      6  C   UNL     1      -9.831  -9.903  18.060  0.00  0.00    +0.002 A 
ATOM      7  C   UNL     1     -10.224  -9.178  18.070  0.00  0.00    +0.030 A 
ENDBRANCH   8   4
ENDBRANCH  14  13
BRANCH  18  22
ATOM     22  N   UNL     1      -5.332  -9.748  11.934  0.00  0.00    -0.202 NA
ATOM     23  C   UNL     1      -5.111  -9.161  11.398  0.00  0.00    +0.241 C 
ATOM     24  O   UNL     1      -5.564  -8.475  11.328  0.00  0.00    -0.273 OA
BRANCH  23  25
ATOM     25  C   UNL     1      -4.438  -9.260  10.931  0.00  0.00    +0.078 C 
ATOM     26  C   UNL     1      -3.801  -9.700  11.215  0.00  0.00    +0.009 C 
ATOM     27  C   UNL     1      -3.127  -9.800  10.749  0.00  0.00    +0.000 C 
ATOM     28  C   UNL     1      -3.091  -9.458   9.998  0.00  0.00    +0.000 C 
ATOM     29  C   UNL     1      -3.729  -9.018   9.716  0.00  0.00    +0.000 C 
ATOM     30  C   UNL     1      -4.402  -8.918  10.181  0.00  0.00    +0.009 C 
ENDBRANCH  23  25
ENDBRANCH  18  22
TORSDOF 4
ENDMDL
MODEL 6
REMARK VINA RESULT:      -7.5     15.667     17.411
REMARK  Name = 
REMARK  4 active torsions:
REMARK  status: ('A' for Active; 'I' for Inactive)
REMARK    1  A    between atoms: C_4  and  C_8
REMARK    2  A    between atoms: N_13  and  C_14
REMARK    3  A    between atoms: C_18  and  N_22
REMARK    4  A    between atoms: C_23  and  C_25
REMARK                            x       y       z     vdW  Elec       q    Type
REMARK                         _______ _______ _______ _____ _____    ______ ____
ROOT
ATOM     14  C   UNL     1      -6.557 -10.176  13.813  0.00  0.00    +0.154 C 
ATOM     15  C   UNL     1      -7.322 -10.229  13.510  0.00  0.00    +0.166 C 
ATOM     16  O   UNL     1      -7.850 -10.128  14.136  0.00  0.00    -0.350 OA
ATOM     17  C   UNL     1      -7.411 -10.014  14.825  0.00  0.00    +0.166 C 
ATOM     18  C   UNL     1      -7.465  -9.881  15.637  0.00  0.00    +0.154 C 
ATOM     19  C   UNL     1      -6.699  -9.828  15.939  0.00  0.00    +0.166 C 
ATOM     20  O   UNL     1      -6.172  -9.929  15.313  0.00  0.00    -0.350 OA
ATOM     21  C   UNL     1      -6.612 -10.043  14.624  0.00  0.00    +0.166 C 
ENDROOT
BRANCH  14  13
ATOM      8  C   UNL     1      -4.946  -9.413  11.578  0.00  0.00    +0.086 A 
ATOM      9  C   UNL     1      -5.537  -8.894  11.329  0.00  0.00    +0.040 A 
ATOM     10  C   UNL     1      -6.236  -8.825  11.764  0.00  0.00    +0.103 A 
ATOM     11  N   UNL     1      -6.343  -9.276  12.447  0.00  0.00    -0.211 NA
ATOM     12  C   UNL     1      -5.751  -9.795  12.695  0.00  0.00    +0.237 A 
ATOM     13  N   UNL     1      -5.858 -10.245  13.378  0.00  0.00    -0.200 NA
ATOM     31  N   UNL     1      -5.053  -9.863  12.261  0.00  0.00    -0.212 NA
BRANCH   8   4
ATOM      1  F   UNL     1      -3.393  -8.758   9.270  0.00  0.00    -0.204 F 
ATOM      2  C   UNL     1      -3.472  -9.154   9.990  0.00  0.00    +0.140 A 
ATOM      3  C   UNL     1      -4.169  -9.085  10.424  0.00  0.00    +0.031 A 
ATOM      4  C   UNL     1      -4.249  -9.481  11.144  0.00  0.00    +0.020 A 
ATOM      5  C   UNL     1      -3.629  -9.946  11.429  0.00  0.00    +0.002 A 
ATOM      6  C   UNL     1      -2.931 -10.014  10.994  0.00  0.00    +0.002 A 
ATOM      7  C   UNL     1      -2.852  -9.618  10.275  0.00  0.00    +0.030 A 
ENDBRANCH   8   4
ENDBRANCH  14  13
BRANCH  18  22
ATOM     22  N   UNL     1      -8.163  -9.812  16.071  0.00  0.00    -0.202 NA
ATOM     23  C   UNL     1      -8.179  -9.353  16.757  0.00  0.00    +0.241 C 
ATOM     24  O   UNL     1      -7.498  -8.963  17.009  0.00  0.00    -0.273 OA
BRANCH  23  25
ATOM     25  C   UNL     1      -8.878  -9.285  17.191  0.00  0.00    +0.078 C 
ATOM     26  C   UNL     1      -9.335  -8.601  17.132  0.00  0.00    +0.009 C 
ATOM     27  C   UNL     1     -10.033  -8.531  17.566  0.00  0.00    +0.000 C 
ATOM     28  C   UNL     1     -10.274  -9.148  18.060  0.00  0.00    +0.000 C 
ATOM     29  C   UNL     1      -9.817  -9.831  18.119  0.00  0.00    +0.000 C 
ATOM     30  C   UNL     1      -9.118  -9.900  17.685  0.00  0.00    +0.009 C 
ENDBRANCH  23  25
ENDBRANCH  18  22
TORSDOF 4
ENDMDL
