MODEL 1
REMARK VINA RESULT:     -16.4      0.000      0.000
REMARK  Name = 
REMARK  4 active torsions:
REMARK  status: ('A' for Active; 'I' for Inactive)
REMARK    1  A    between atoms: C_2  and  C_3
REMARK    2  A    between atoms: C_3  and  S_4
REMARK    3  A    between atoms: S_4  and  N_7
REMARK    4  A    between atoms: C_16  and  C_21
REMARK                            x       y       z     vdW  Elec       q    Type
REMARK                         _______ _______ _______ _____ _____    ______ ____
ROOT
ATOM      7  N   UNL     1      -3.349   2.701  24.404  0.00  0.00    -0.159 NA
ATOM      8  C   UNL     1      -3.470   3.527  24.371  0.00  0.00    +0.097 C 
ATOM      9  C   UNL     1      -4.364   3.579  24.788  0.00  0.00    +0.041 C 
ATOM     10  C   UNL     1      -5.084   3.790  25.106  0.00  0.00    +0.011 C 
ATOM     11  C   UNL     1      -4.717   3.201  24.997  0.00  0.00    +0.056 C 
ATOM     12  C   UNL     1      -3.853   3.167  24.591  0.00  0.00    +0.101 C 
ATOM     13  C   UNL     1      -4.761   2.291  25.118  0.00  0.00    +0.041 A 
ATOM     14  C   UNL     1      -5.262   1.709  25.419  0.00  0.00    +0.013 A 
ATOM     15  C   UNL     1      -5.032   0.917  25.397  0.00  0.00    +0.006 A 
ATOM     16  C   UNL     1      -4.302   0.707  25.074  0.00  0.00    +0.056 A 
ATOM     17  C   UNL     1      -3.802   1.290  24.773  0.00  0.00    +0.261 A 
ATOM     18  O   UNL     1      -3.072   1.080  24.451  0.00  0.00    -0.267 OA
ATOM     19  N   UNL     1      -4.032   2.082  24.795  0.00  0.00    -0.299 N 
ATOM     20  C   UNL     1      -4.401   2.628  24.910  0.00  0.00    +0.110 C 
ENDROOT
BRANCH  16  21
ATOM     21  C   UNL     1      -4.074  -0.085  25.053  0.00  0.00    +0.005 A 
ATOM     22  C   UNL     1      -3.633  -0.403  25.674  0.00  0.00    +0.000 A 
ATOM     23  C   UNL     1      -3.403  -1.195  25.653  0.00  0.00    +0.000 A 
ATOM     24  C   UNL     1      -3.615  -1.669  25.012  0.00  0.00    +0.000 A 
ATOM     25  C   UNL     1      -3.386  -2.462  24.991  0.00  0.00    +0.000 A 
ATOM     26  C   UNL     1      -3.599  -2.936  24.350  0.00  0.00    +0.000 A 
ATOM     27  C   UNL     1      -4.039  -2.618  23.730  0.00  0.00    +0.000 A 
ATOM     28  C   UNL     1      -4.268  -1.826  23.751  0.00  0.00    +0.000 A 
ATOM     29  C   UNL     1      -4.056  -1.352  24.391  0.00  0.00    +0.000 A 
ATOM     30  C   UNL     1      -4.286  -0.559  24.412  0.00  0.00    +0.000 A 
ENDBRANCH  16  21
BRANCH   7   4
ATOM      4  S   UNL     1      -2.970   1.974  24.304  0.00  0.00    +0.044 S 
ATOM      5  O   UNL     1      -3.315   1.896  23.558  0.00  0.00    -0.157 OA
ATOM      6  O   UNL     1      -2.626   2.051  25.051  0.00  0.00    -0.157 OA
BRANCH   4   3
ATOM      3  C   UNL     1      -2.592   1.247  24.205  0.00  0.00    +0.169 C 
BRANCH   3   2
ATOM      1  C   UNL     1      -1.223   0.918  23.964  0.00  0.00    +0.002 C 
ATOM      2  C   UNL     1      -1.954   1.181  23.687  0.00  0.00    +0.027 C 
ENDBRANCH   3   2
ENDBRANCH   4   3
ENDBRANCH   7   4
TORSDOF 4
ENDMDL
MODEL 2
REMARK VINA RESULT:     -15.3      1.480      4.160
REMARK  Name = 
REMARK  4 active torsions:
REMARK  status: ('A' for Active; 'I' for Inactive)
REMARK    1  A    between atoms: C_2  and  C_3
REMARK    2  A    between atoms: C_3  and  S_4
REMARK    3  A    between atoms: S_4  and  N_7
REMARK    4  A    between atoms: C_16  and  C_21
REMARK                            x       y       z     vdW  Elec       q    Type
REMARK                         _______ _______ _______ _____ _____    ______ ____
ROOT
ATOM      7  N   UNL     1      -2.204  -1.489  24.965  0.00  0.00    -0.159 NA
ATOM      8  C   UNL     1      -2.063  -2.309  25.042  0.00  0.00    +0.097 C 
ATOM      9  C   UNL     1      -2.914  -2.658  24.679  0.00  0.00    +0.041 C 
ATOM     10  C   UNL     1      -3.546  -3.097  24.413  0.00  0.00    +0.011 C 
ATOM     11  C   UNL     1      -3.375  -2.419  24.475  0.00  0.00    +0.056 C 
ATOM     12  C   UNL     1      -2.547  -2.098  24.827  0.00  0.00    +0.101 C 
ATOM     13  C   UNL     1      -3.703  -1.576  24.316  0.00  0.00    +0.041 A 
ATOM     14  C   UNL     1      -4.371  -1.194  24.019  0.00  0.00    +0.013 A 
ATOM     15  C   UNL     1      -4.396  -0.370  23.992  0.00  0.00    +0.006 A 
ATOM     16  C   UNL     1      -3.754   0.072  24.263  0.00  0.00    +0.056 A 
ATOM     17  C   UNL     1      -3.086  -0.310  24.560  0.00  0.00    +0.261 A 
ATOM     18  O   UNL     1      -2.444   0.132  24.830  0.00  0.00    -0.267 OA
ATOM     19  N   UNL     1      -3.061  -1.134  24.587  0.00  0.00    -0.299 N 
ATOM     20  C   UNL     1      -3.248  -1.773  24.517  0.00  0.00    +0.110 C 
ENDROOT
BRANCH  16  21
ATOM     21  C   UNL     1      -3.781   0.896  24.236  0.00  0.00    +0.005 A 
ATOM     22  C   UNL     1      -3.446   1.298  23.598  0.00  0.00    +0.000 A 
ATOM     23  C   UNL     1      -3.472   2.123  23.570  0.00  0.00    +0.000 A 
ATOM     24  C   UNL     1      -3.833   2.544  24.180  0.00  0.00    +0.000 A 
ATOM     25  C   UNL     1      -3.859   3.369  24.153  0.00  0.00    +0.000 A 
ATOM     26  C   UNL     1      -4.220   3.791  24.764  0.00  0.00    +0.000 A 
ATOM     27  C   UNL     1      -4.554   3.389  25.401  0.00  0.00    +0.000 A 
ATOM     28  C   UNL     1      -4.528   2.565  25.429  0.00  0.00    +0.000 A 
ATOM     29  C   UNL     1      -4.168   2.143  24.818  0.00  0.00    +0.000 A 
ATOM     30  C   UNL     1      -4.141   1.318  24.846  0.00  0.00    +0.000 A 
ENDBRANCH  16  21
BRANCH   7   4
ATOM      4  S   UNL     1      -2.065  -0.677  25.010  0.00  0.00    +0.044 S 
ATOM      5  O   UNL     1      -2.396  -0.662  25.766  0.00  0.00    -0.157 OA
ATOM      6  O   UNL     1      -1.735  -0.691  24.254  0.00  0.00    -0.157 OA
BRANCH   4   3
ATOM      3  C   UNL     1      -1.927   0.136  25.055  0.00  0.00    +0.169 C 
BRANCH   3   2
ATOM      1  C   UNL     1      -0.732   0.904  25.210  0.00  0.00    +0.002 C 
ATOM      2  C   UNL     1      -1.321   0.424  25.534  0.00  0.00    +0.027 C 
ENDBRANCH   3   2
ENDBRANCH   4   3
ENDBRANCH   7   4
TORSDOF 4
ENDMDL
MODEL 3
REMARK VINA RESULT:     -15.0      1.206      2.300
REMARK  Name = 
REMARK  4 active torsions:
REMARK  status: ('A' for Active; 'I' for Inactive)
REMARK    1  A    between atoms: C_2  and  C_3
REMARK    2  A    between atoms: C_3  and  S_4
REMARK    3  A    between atoms: S_4  and  N_7
REMARK    4  A    between atoms: C_16  and  C_21
REMARK                            x       y       z     vdW  Elec       q    Type
REMARK                         _______ _______ _______ _____ _____    ______ ____
ROOT
ATOM      7  N   UNL     1      -3.538   3.554  25.245  0.00  0.00    -0.159 NA
ATOM      8  C   UNL     1      -3.333   4.338  25.451  0.00  0.00    +0.097 C 
ATOM      9  C   UNL     1      -2.349   4.275  25.383  0.00  0.00    +0.041 C 
ATOM     10  C   UNL     1      -1.542   4.388  25.373  0.00  0.00    +0.011 C 
ATOM     11  C   UNL     1      -1.995   3.865  25.252  0.00  0.00    +0.056 C 
ATOM     12  C   UNL     1      -2.944   3.941  25.322  0.00  0.00    +0.101 C 
ATOM     13  C   UNL     1      -2.025   2.980  25.008  0.00  0.00    +0.041 A 
ATOM     14  C   UNL     1      -1.527   2.353  24.809  0.00  0.00    +0.013 A 
ATOM     15  C   UNL     1      -1.847   1.616  24.621  0.00  0.00    +0.006 A 
ATOM     16  C   UNL     1      -2.665   1.506  24.633  0.00  0.00    +0.056 A 
ATOM     17  C   UNL     1      -3.163   2.132  24.832  0.00  0.00    +0.261 A 
ATOM     18  O   UNL     1      -3.980   2.022  24.844  0.00  0.00    -0.267 OA
ATOM     19  N   UNL     1      -2.843   2.869  25.020  0.00  0.00    -0.299 N 
ATOM     20  C   UNL     1      -2.391   3.350  25.130  0.00  0.00    +0.110 C 
ENDROOT
BRANCH  16  21
ATOM     21  C   UNL     1      -2.984   0.769  24.446  0.00  0.00    +0.005 A 
ATOM     22  C   UNL     1      -3.275   0.627  23.687  0.00  0.00    +0.000 A 
ATOM     23  C   UNL     1      -3.594  -0.110  23.498  0.00  0.00    +0.000 A 
ATOM     24  C   UNL     1      -3.622  -0.705  24.069  0.00  0.00    +0.000 A 
ATOM     25  C   UNL     1      -3.942  -1.443  23.880  0.00  0.00    +0.000 A 
ATOM     26  C   UNL     1      -3.969  -2.038  24.452  0.00  0.00    +0.000 A 
ATOM     27  C   UNL     1      -3.678  -1.896  25.210  0.00  0.00    +0.000 A 
ATOM     28  C   UNL     1      -3.359  -1.159  25.398  0.00  0.00    +0.000 A 
ATOM     29  C   UNL     1      -3.331  -0.564  24.828  0.00  0.00    +0.000 A 
ATOM     30  C   UNL     1      -3.012   0.174  25.016  0.00  0.00    +0.000 A 
ENDBRANCH  16  21
BRANCH   7   4
ATOM      4  S   UNL     1      -4.015   2.899  25.089  0.00  0.00    +0.044 S 
ATOM      5  O   UNL     1      -4.064   3.125  24.296  0.00  0.00    -0.157 OA
ATOM      6  O   UNL     1      -3.965   2.674  25.881  0.00  0.00    -0.157 OA
BRANCH   4   3
ATOM      3  C   UNL     1      -4.492   2.244  24.932  0.00  0.00    +0.169 C 
BRANCH   3   2
ATOM      1  C   UNL     1      -5.844   1.969  25.303  0.00  0.00    +0.002 C 
ATOM      2  C   UNL     1      -5.300   2.344  24.807  0.00  0.00    +0.027 C 
ENDBRANCH   3   2
ENDBRANCH   4   3
ENDBRANCH   7   4
TORSDOF 4
ENDMDL
MODEL 4
REMARK VINA RESULT:     -14.0      1.686      4.368
REMARK  Name = 
REMARK  4 active torsions:
REMARK  status: ('A' for Active; 'I' for Inactive)
REMARK    1  A    between atoms: C_2  and  C_3
REMARK    2  A    between atoms: C_3  and  S_4
REMARK    3  A    between atoms: S_4  and  N_7
REMARK    4  A    between atoms: C_16  and  C_21
REMARK                            x       y       z     vdW  Elec       q    Type
REMARK                         _______ _______ _______ _____ _____    ______ ____
ROOT
ATOM      7  N   UNL     1      -3.902  -0.893  24.265  0.00  0.00    -0.159 NA
ATOM      8  C   UNL     1      -4.440  -1.527  24.197  0.00  0.00    +0.097 C 
ATOM      9  C   UNL     1      -3.829  -2.283  24.372  0.00  0.00    +0.041 C 
ATOM     10  C   UNL     1      -3.464  -3.001  24.495  0.00  0.00    +0.011 C 
ATOM     11  C   UNL     1      -3.284  -2.323  24.487  0.00  0.00    +0.056 C 
ATOM     12  C   UNL     1      -3.888  -1.603  24.315  0.00  0.00    +0.101 C 
ATOM     13  C   UNL     1      -2.561  -1.768  24.598  0.00  0.00    +0.041 A 
ATOM     14  C   UNL     1      -1.754  -1.793  24.766  0.00  0.00    +0.013 A 
ATOM     15  C   UNL     1      -1.319  -1.093  24.809  0.00  0.00    +0.006 A 
ATOM     16  C   UNL     1      -1.692  -0.368  24.684  0.00  0.00    +0.056 A 
ATOM     17  C   UNL     1      -2.499  -0.342  24.517  0.00  0.00    +0.261 A 
ATOM     18  O   UNL     1      -2.872   0.384  24.392  0.00  0.00    -0.267 OA
ATOM     19  N   UNL     1      -2.934  -1.042  24.474  0.00  0.00    -0.299 N 
ATOM     20  C   UNL     1      -3.079  -1.695  24.487  0.00  0.00    +0.110 C 
ENDROOT
BRANCH  16  21
ATOM     21  C   UNL     1      -1.257   0.332  24.727  0.00  0.00    +0.005 A 
ATOM     22  C   UNL     1      -0.908   0.642  24.047  0.00  0.00    +0.000 A 
ATOM     23  C   UNL     1      -0.472   1.341  24.089  0.00  0.00    +0.000 A 
ATOM     24  C   UNL     1      -0.386   1.730  24.812  0.00  0.00    +0.000 A 
ATOM     25  C   UNL     1       0.050   2.431  24.854  0.00  0.00    +0.000 A 
ATOM     26  C   UNL     1       0.135   2.819  25.577  0.00  0.00    +0.000 A 
ATOM     27  C   UNL     1      -0.214   2.509  26.256  0.00  0.00    +0.000 A 
ATOM     28  C   UNL     1      -0.649   1.810  26.214  0.00  0.00    +0.000 A 
ATOM     29  C   UNL     1      -0.735   1.421  25.492  0.00  0.00    +0.000 A 
ATOM     30  C   UNL     1      -1.171   0.721  25.449  0.00  0.00    +0.000 A 
ENDBRANCH  16  21
BRANCH   7   4
ATOM      4  S   UNL     1      -3.625  -0.115  24.271  0.00  0.00    +0.044 S 
ATOM      5  O   UNL     1      -3.482  -0.160  23.459  0.00  0.00    -0.157 OA
ATOM      6  O   UNL     1      -3.768  -0.070  25.082  0.00  0.00    -0.157 OA
BRANCH   4   3
ATOM      3  C   UNL     1      -3.348   0.663  24.276  0.00  0.00    +0.169 C 
BRANCH   3   2
ATOM      1  C   UNL     1      -4.035   1.909  24.406  0.00  0.00    +0.002 C 
ATOM      2  C   UNL     1      -3.804   1.265  23.945  0.00  0.00    +0.027 C 
ENDBRANCH   3   2
ENDBRANCH   4   3
ENDBRANCH   7   4
TORSDOF 4
ENDMDL
