MODEL 1
REMARK VINA RESULT:      -9.4      0.000      0.000
REMARK  Name = 
REMARK  6 active torsions:
REMARK  status: ('A' for Active; 'I' for Inactive)
REMARK    1  A    between atoms: C_3  and  C_4
REMARK    2  A    between atoms: C_4  and  N_5
REMARK    3  A    between atoms: N_8  and  C_9
REMARK    4  A    between atoms: C_17  and  N_18
REMARK    5  A    between atoms: N_18  and  C_19
REMARK    6  A    between atoms: C_19  and  C_20
REMARK                            x       y       z     vdW  Elec       q    Type
REMARK                         _______ _______ _______ _____ _____    ______ ____
ROOT
ATOM      1  O   UNL     1      -3.390   1.034  23.598  0.00  0.00    -0.219 OA
ATOM      2  C   UNL     1      -3.894   1.063  24.250  0.00  0.00    +0.199 C 
ATOM      3  C   UNL     1      -4.082   1.737  24.688  0.00  0.00    +0.169 C 
ATOM     15  O   UNL     1      -4.602   1.515  25.287  0.00  0.00    -0.350 OA
ATOM     16  C   UNL     1      -4.737   0.704  25.221  0.00  0.00    +0.162 C 
ATOM     17  C   UNL     1      -4.298   0.424  24.579  0.00  0.00    +0.135 C 
ENDROOT
BRANCH   3   4
ATOM      4  C   UNL     1      -3.798   2.499  24.549  0.00  0.00    +0.149 C 
BRANCH   4   5
ATOM      5  N   UNL     1      -3.347   2.882  25.125  0.00  0.00    -0.184 NA
ATOM      6  C   UNL     1      -2.794   3.453  24.902  0.00  0.00    +0.344 C 
ATOM      7  O   UNL     1      -2.693   3.642  24.105  0.00  0.00    -0.249 OA
ATOM      8  N   UNL     1      -2.343   3.836  25.478  0.00  0.00    -0.161 NA
BRANCH   8   9
ATOM      9  C   UNL     1      -1.790   4.407  25.255  0.00  0.00    +0.075 A 
ATOM     10  C   UNL     1      -2.003   5.204  25.241  0.00  0.00    +0.017 A 
ATOM     11  C   UNL     1      -1.450   5.774  25.018  0.00  0.00    +0.001 A 
ATOM     12  C   UNL     1      -0.685   5.548  24.810  0.00  0.00    +0.000 A 
ATOM     13  C   UNL     1      -0.472   4.751  24.824  0.00  0.00    +0.001 A 
ATOM     14  C   UNL     1      -1.024   4.180  25.047  0.00  0.00    +0.017 A 
ENDBRANCH   8   9
ENDBRANCH   4   5
ENDBRANCH   3   4
BRANCH  17  18
ATOM     18  N   UNL     1      -4.270  -0.356  24.315  0.00  0.00    -0.208 NA
BRANCH  18  19
ATOM     19  C   UNL     1      -4.241  -0.975  24.858  0.00  0.00    +0.134 C 
BRANCH  19  20
ATOM     20  C   UNL     1      -4.000  -1.727  24.616  0.00  0.00    +0.077 A 
ATOM     21  N   UNL     1      -4.323  -2.064  23.936  0.00  0.00    -0.247 NA
ATOM     22  C   UNL     1      -4.081  -2.815  23.694  0.00  0.00    +0.098 A 
ATOM     23  C   UNL     1      -3.518  -3.229  24.132  0.00  0.00    +0.021 A 
ATOM     24  C   UNL     1      -3.195  -2.891  24.813  0.00  0.00    +0.003 A 
ATOM     25  C   UNL     1      -3.436  -2.140  25.055  0.00  0.00    +0.016 A 
ENDBRANCH  19  20
ENDBRANCH  18  19
ENDBRANCH  17  18
TORSDOF 6
ENDMDL
MODEL 2
REMARK VINA RESULT:      -9.2      0.740      5.937
REMARK  Name = 
REMARK  6 active torsions:
REMARK  status: ('A' for Active; 'I' for Inactive)
REMARK    1  A    between atoms: C_3  and  C_4
REMARK    2  A    between atoms: C_4  and  N_5
REMARK    3  A    between atoms: N_8  and  C_9
REMARK    4  A    between atoms: C_17  and  N_18
REMARK    5  A    between atoms: N_18  and  C_19
REMARK    6  A    between atoms: C_19  and  C_20
REMARK                            x       y       z     vdW  Elec       q    Type
REMARK                         _______ _______ _______ _____ _____    ______ ____
ROOT
ATOM      1  O   UNL     1      -3.138   2.369  23.667  0.00  0.00    -0.219 OA
ATOM      2  C   UNL     1      -3.583   2.466  24.355  0.00  0.00    +0.199 C 
ATOM      3  C   UNL     1      -4.126   1.926  24.662  0.00  0.00    +0.169 C 
ATOM     15  O   UNL     1      -4.442   2.247  25.353  0.00  0.00    -0.350 OA
ATOM     16  C   UNL     1      -4.094   2.985  25.474  0.00  0.00    +0.162 C 
ATOM     17  C   UNL     1      -3.563   3.121  24.857  0.00  0.00    +0.135 C 
ENDROOT
BRANCH   3   4
ATOM      4  C   UNL     1      -4.319   1.194  24.334  0.00  0.00    +0.149 C 
BRANCH   4   5
ATOM      5  N   UNL     1      -4.381   0.529  24.819  0.00  0.00    -0.184 NA
ATOM      6  C   UNL     1      -4.145  -0.209  24.537  0.00  0.00    +0.344 C 
ATOM      7  O   UNL     1      -3.848  -0.283  23.770  0.00  0.00    -0.249 OA
ATOM      8  N   UNL     1      -4.207  -0.875  25.022  0.00  0.00    -0.161 NA
BRANCH   8   9
ATOM      9  C   UNL     1      -3.972  -1.613  24.739  0.00  0.00    +0.075 A 
ATOM     10  C   UNL     1      -4.374  -1.963  24.110  0.00  0.00    +0.017 A 
ATOM     11  C   UNL     1      -4.138  -2.701  23.828  0.00  0.00    +0.001 A 
ATOM     12  C   UNL     1      -3.500  -3.090  24.176  0.00  0.00    +0.000 A 
ATOM     13  C   UNL     1      -3.097  -2.741  24.805  0.00  0.00    +0.001 A 
ATOM     14  C   UNL     1      -3.332  -2.003  25.088  0.00  0.00    +0.017 A 
ENDBRANCH   8   9
ENDBRANCH   4   5
ENDBRANCH   3   4
BRANCH  17  18
ATOM     18  N   UNL     1      -3.095   3.792  24.759  0.00  0.00    -0.208 NA
BRANCH  18  19
ATOM     19  C   UNL     1      -2.596   4.040  25.368  0.00  0.00    +0.134 C 
BRANCH  19  20
ATOM     20  C   UNL     1      -1.922   4.484  25.196  0.00  0.00    +0.077 A 
ATOM     21  N   UNL     1      -1.193   4.109  25.103  0.00  0.00    -0.247 NA
ATOM     22  C   UNL     1      -0.520   4.554  24.931  0.00  0.00    +0.098 A 
ATOM     23  C   UNL     1      -0.575   5.373  24.851  0.00  0.00    +0.021 A 
ATOM     24  C   UNL     1      -1.305   5.748  24.943  0.00  0.00    +0.003 A 
ATOM     25  C   UNL     1      -1.979   5.304  25.116  0.00  0.00    +0.016 A 
ENDBRANCH  19  20
ENDBRANCH  18  19
ENDBRANCH  17  18
TORSDOF 6
ENDMDL
MODEL 3
REMARK VINA RESULT:      -9.1      1.765      6.324
REMARK  Name = 
REMARK  6 active torsions:
REMARK  status: ('A' for Active; 'I' for Inactive)
REMARK    1  A    between atoms: C_3  and  C_4
REMARK    2  A    between atoms: C_4  and  N_5
REMARK    3  A    between atoms: N_8  and  C_9
REMARK    4  A    between atoms: C_17  and  N_18
REMARK    5  A    between atoms: N_18  and  C_19
REMARK    6  A    between atoms: C_19  and  C_20
REMARK                            x       y       z     vdW  Elec       q    Type
REMARK                         _______ _______ _______ _____ _____    ______ ____
ROOT
ATOM      1  O   UNL     1      -1.392   1.601  23.933  0.00  0.00    -0.219 OA
ATOM      2  C   UNL     1      -1.087   1.518  24.695  0.00  0.00    +0.199 C 
ATOM      3  C   UNL     1      -1.046   0.817  25.127  0.00  0.00    +0.169 C 
ATOM     15  O   UNL     1      -0.703   0.987  25.858  0.00  0.00    -0.350 OA
ATOM     16  C   UNL     1      -0.533   1.794  25.878  0.00  0.00    +0.162 C 
ATOM     17  C   UNL     1      -0.770   2.122  25.159  0.00  0.00    +0.135 C 
ENDROOT
BRANCH   3   4
ATOM      4  C   UNL     1      -1.302   0.075  24.873  0.00  0.00    +0.149 C 
BRANCH   4   5
ATOM      5  N   UNL     1      -1.989  -0.255  25.190  0.00  0.00    -0.184 NA
ATOM      6  C   UNL     1      -2.359  -0.885  24.806  0.00  0.00    +0.344 C 
ATOM      7  O   UNL     1      -2.042  -1.185  24.106  0.00  0.00    -0.249 OA
ATOM      8  N   UNL     1      -3.046  -1.215  25.124  0.00  0.00    -0.161 NA
BRANCH   8   9
ATOM      9  C   UNL     1      -3.415  -1.844  24.740  0.00  0.00    +0.075 A 
ATOM     10  C   UNL     1      -3.211  -2.621  24.930  0.00  0.00    +0.017 A 
ATOM     11  C   UNL     1      -3.581  -3.250  24.545  0.00  0.00    +0.001 A 
ATOM     12  C   UNL     1      -4.155  -3.103  23.972  0.00  0.00    +0.000 A 
ATOM     13  C   UNL     1      -4.360  -2.327  23.783  0.00  0.00    +0.001 A 
ATOM     14  C   UNL     1      -3.990  -1.697  24.166  0.00  0.00    +0.017 A 
ENDBRANCH   8   9
ENDBRANCH   4   5
ENDBRANCH   3   4
BRANCH  17  18
ATOM     18  N   UNL     1      -0.702   2.915  24.942  0.00  0.00    -0.208 NA
BRANCH  18  19
ATOM     19  C   UNL     1      -0.771   3.506  25.513  0.00  0.00    +0.134 C 
BRANCH  19  20
ATOM     20  C   UNL     1      -1.024   4.262  25.297  0.00  0.00    +0.077 A 
ATOM     21  N   UNL     1      -1.770   4.529  25.527  0.00  0.00    -0.247 NA
ATOM     22  C   UNL     1      -2.022   5.284  25.310  0.00  0.00    +0.098 A 
ATOM     23  C   UNL     1      -1.528   5.772  24.865  0.00  0.00    +0.021 A 
ATOM     24  C   UNL     1      -0.782   5.505  24.635  0.00  0.00    +0.003 A 
ATOM     25  C   UNL     1      -0.529   4.750  24.852  0.00  0.00    +0.016 A 
ENDBRANCH  19  20
ENDBRANCH  18  19
ENDBRANCH  17  18
TORSDOF 6
ENDMDL
MODEL 4
REMARK VINA RESULT:      -8.9      4.274      5.775
REMARK  Name = 
REMARK  6 active torsions:
REMARK  status: ('A' for Active; 'I' for Inactive)
REMARK    1  A    between atoms: C_3  and  C_4
REMARK    2  A    between atoms: C_4  and  N_5
REMARK    3  A    between atoms: N_8  and  C_9
REMARK    4  A    between atoms: C_17  and  N_18
REMARK    5  A    between atoms: N_18  and  C_19
REMARK    6  A    between atoms: C_19  and  C_20
REMARK                            x       y       z     vdW  Elec       q    Type
REMARK                         _______ _______ _______ _____ _____    ______ ____
ROOT
ATOM      1  O   UNL     1       0.657   1.788  24.232  0.00  0.00    -0.219 OA
ATOM      2  C   UNL     1       0.473   1.074  23.863  0.00  0.00    +0.199 C 
ATOM      3  C   UNL     1      -0.267   0.709  23.853  0.00  0.00    +0.169 C 
ATOM     15  O   UNL     1      -0.201   0.009  23.423  0.00  0.00    -0.350 OA
ATOM     16  C   UNL     1       0.581  -0.061  23.168  0.00  0.00    +0.162 C 
ATOM     17  C   UNL     1       0.998   0.598  23.440  0.00  0.00    +0.135 C 
ENDROOT
BRANCH   3   4
ATOM      4  C   UNL     1      -0.953   0.997  24.209  0.00  0.00    +0.149 C 
BRANCH   4   5
ATOM      5  N   UNL     1      -1.686   0.884  23.845  0.00  0.00    -0.184 NA
ATOM      6  C   UNL     1      -2.376   1.127  24.225  0.00  0.00    +0.344 C 
ATOM      7  O   UNL     1      -2.336   1.483  24.968  0.00  0.00    -0.249 OA
ATOM      8  N   UNL     1      -3.108   1.015  23.860  0.00  0.00    -0.161 NA
BRANCH   8   9
ATOM      9  C   UNL     1      -3.799   1.258  24.240  0.00  0.00    +0.075 A 
ATOM     10  C   UNL     1      -4.058   2.038  24.167  0.00  0.00    +0.017 A 
ATOM     11  C   UNL     1      -4.749   2.280  24.548  0.00  0.00    +0.001 A 
ATOM     12  C   UNL     1      -5.181   1.743  25.000  0.00  0.00    +0.000 A 
ATOM     13  C   UNL     1      -4.922   0.963  25.073  0.00  0.00    +0.001 A 
ATOM     14  C   UNL     1      -4.232   0.720  24.693  0.00  0.00    +0.017 A 
ENDBRANCH   8   9
ENDBRANCH   4   5
ENDBRANCH   3   4
BRANCH  17  18
ATOM     18  N   UNL     1       1.797   0.752  23.312  0.00  0.00    -0.208 NA
BRANCH  18  19
ATOM     19  C   UNL     1       2.256   0.220  22.880  0.00  0.00    +0.134 C 
BRANCH  19  20
ATOM     20  C   UNL     1       3.080   0.267  22.908  0.00  0.00    +0.077 A 
ATOM     21  N   UNL     1       3.518  -0.355  23.229  0.00  0.00    -0.247 NA
ATOM     22  C   UNL     1       4.341  -0.307  23.257  0.00  0.00    +0.098 A 
ATOM     23  C   UNL     1       4.726   0.361  22.965  0.00  0.00    +0.021 A 
ATOM     24  C   UNL     1       4.288   0.983  22.645  0.00  0.00    +0.003 A 
ATOM     25  C   UNL     1       3.464   0.936  22.617  0.00  0.00    +0.016 A 
ENDBRANCH  19  20
ENDBRANCH  18  19
ENDBRANCH  17  18
TORSDOF 6
ENDMDL
MODEL 5
REMARK VINA RESULT:      -8.8      1.775      2.096
REMARK  Name = 
REMARK  6 active torsions:
REMARK  status: ('A' for Active; 'I' for Inactive)
REMARK    1  A    between atoms: C_3  and  C_4
REMARK    2  A    between atoms: C_4  and  N_5
REMARK    3  A    between atoms: N_8  and  C_9
REMARK    4  A    between atoms: C_17  and  N_18
REMARK    5  A    between atoms: N_18  and  C_19
REMARK    6  A    between atoms: C_19  and  C_20
REMARK                            x       y       z     vdW  Elec       q    Type
REMARK                         _______ _______ _______ _____ _____    ______ ____
ROOT
ATOM      1  O   UNL     1      -1.512   0.278  23.833  0.00  0.00    -0.219 OA
ATOM      2  C   UNL     1      -1.371   0.128  24.632  0.00  0.00    +0.199 C 
ATOM      3  C   UNL     1      -0.979   0.630  25.157  0.00  0.00    +0.169 C 
ATOM     15  O   UNL     1      -0.962   0.263  25.895  0.00  0.00    -0.350 OA
ATOM     16  C   UNL     1      -1.342  -0.465  25.827  0.00  0.00    +0.162 C 
ATOM     17  C   UNL     1      -1.595  -0.549  25.046  0.00  0.00    +0.135 C 
ENDROOT
BRANCH   3   4
ATOM      4  C   UNL     1      -0.661   1.369  24.975  0.00  0.00    +0.149 C 
BRANCH   4   5
ATOM      5  N   UNL     1      -0.767   2.003  25.493  0.00  0.00    -0.184 NA
ATOM      6  C   UNL     1      -0.897   2.761  25.195  0.00  0.00    +0.344 C 
ATOM      7  O   UNL     1      -0.921   2.886  24.380  0.00  0.00    -0.249 OA
ATOM      8  N   UNL     1      -1.004   3.395  25.714  0.00  0.00    -0.161 NA
BRANCH   8   9
ATOM      9  C   UNL     1      -1.134   4.153  25.416  0.00  0.00    +0.075 A 
ATOM     10  C   UNL     1      -0.527   4.553  25.025  0.00  0.00    +0.017 A 
ATOM     11  C   UNL     1      -0.659   5.311  24.728  0.00  0.00    +0.001 A 
ATOM     12  C   UNL     1      -1.395   5.669  24.821  0.00  0.00    +0.000 A 
ATOM     13  C   UNL     1      -2.002   5.269  25.212  0.00  0.00    +0.001 A 
ATOM     14  C   UNL     1      -1.872   4.511  25.509  0.00  0.00    +0.017 A 
ENDBRANCH   8   9
ENDBRANCH   4   5
ENDBRANCH   3   4
BRANCH  17  18
ATOM     18  N   UNL     1      -2.001  -1.195  24.734  0.00  0.00    -0.208 NA
BRANCH  18  19
ATOM     19  C   UNL     1      -2.679  -1.477  25.110  0.00  0.00    +0.134 C 
BRANCH  19  20
ATOM     20  C   UNL     1      -3.227  -1.929  24.689  0.00  0.00    +0.077 A 
ATOM     21  N   UNL     1      -3.854  -1.560  24.299  0.00  0.00    -0.247 NA
ATOM     22  C   UNL     1      -4.401  -2.013  23.880  0.00  0.00    +0.098 A 
ATOM     23  C   UNL     1      -4.322  -2.833  23.848  0.00  0.00    +0.021 A 
ATOM     24  C   UNL     1      -3.695  -3.202  24.238  0.00  0.00    +0.003 A 
ATOM     25  C   UNL     1      -3.147  -2.750  24.658  0.00  0.00    +0.016 A 
ENDBRANCH  19  20
ENDBRANCH  18  19
ENDBRANCH  17  18
TORSDOF 6
ENDMDL
MODEL 6
REMARK VINA RESULT:      -8.0      4.153      5.086
REMARK  Name = 
REMARK  6 active torsions:
REMARK  status: ('A' for Active; 'I' for Inactive)
REMARK    1  A    between atoms: C_3  and  C_4
REMARK    2  A    between atoms: C_4  and  N_5
REMARK    3  A    between atoms: N_8  and  C_9
REMARK    4  A    between atoms: C_17  and  N_18
REMARK    5  A    between atoms: N_18  and  C_19
REMARK    6  A    between atoms: C_19  and  C_20
REMARK                            x       y       z     vdW  Elec       q    Type
REMARK                         _______ _______ _______ _____ _____    ______ ____
ROOT
ATOM      1  O   UNL     1      -0.896   2.246  24.334  0.00  0.00    -0.219 OA
ATOM      2  C   UNL     1      -1.020   1.451  24.153  0.00  0.00    +0.199 C 
ATOM      3  C   UNL     1      -0.443   0.912  23.913  0.00  0.00    +0.169 C 
ATOM     15  O   UNL     1      -0.809   0.183  23.791  0.00  0.00    -0.350 OA
ATOM     16  C   UNL     1      -1.613   0.270  23.956  0.00  0.00    +0.162 C 
ATOM     17  C   UNL     1      -1.743   1.054  24.180  0.00  0.00    +0.135 C 
ENDROOT
BRANCH   3   4
ATOM      4  C   UNL     1       0.359   1.075  23.813  0.00  0.00    +0.149 C 
BRANCH   4   5
ATOM      5  N   UNL     1       0.825   0.580  23.343  0.00  0.00    -0.184 NA
ATOM      6  C   UNL     1       1.645   0.668  23.339  0.00  0.00    +0.344 C 
ATOM      7  O   UNL     1       2.000   1.251  23.803  0.00  0.00    -0.249 OA
ATOM      8  N   UNL     1       2.110   0.174  22.870  0.00  0.00    -0.161 NA
BRANCH   8   9
ATOM      9  C   UNL     1       2.930   0.262  22.865  0.00  0.00    +0.075 A 
ATOM     10  C   UNL     1       3.275   0.905  22.480  0.00  0.00    +0.017 A 
ATOM     11  C   UNL     1       4.095   0.992  22.476  0.00  0.00    +0.001 A 
ATOM     12  C   UNL     1       4.571   0.438  22.858  0.00  0.00    +0.000 A 
ATOM     13  C   UNL     1       4.227  -0.205  23.243  0.00  0.00    +0.001 A 
ATOM     14  C   UNL     1       3.407  -0.294  23.248  0.00  0.00    +0.017 A 
ENDBRANCH   8   9
ENDBRANCH   4   5
ENDBRANCH   3   4
BRANCH  17  18
ATOM     18  N   UNL     1      -2.469   1.383  24.392  0.00  0.00    -0.208 NA
BRANCH  18  19
ATOM     19  C   UNL     1      -3.169   0.981  24.225  0.00  0.00    +0.134 C 
BRANCH  19  20
ATOM     20  C   UNL     1      -3.893   1.291  24.473  0.00  0.00    +0.077 A 
ATOM     21  N   UNL     1      -4.118   2.051  24.242  0.00  0.00    -0.247 NA
ATOM     22  C   UNL     1      -4.841   2.359  24.491  0.00  0.00    +0.098 A 
ATOM     23  C   UNL     1      -5.340   1.910  24.969  0.00  0.00    +0.021 A 
ATOM     24  C   UNL     1      -5.116   1.149  25.199  0.00  0.00    +0.003 A 
ATOM     25  C   UNL     1      -4.392   0.840  24.951  0.00  0.00    +0.016 A 
ENDBRANCH  19  20
ENDBRANCH  18  19
ENDBRANCH  17  18
TORSDOF 6
ENDMDL
MODEL 7
REMARK VINA RESULT:      -7.3     14.306     16.509
REMARK  Name = 
REMARK  6 active torsions:
REMARK  status: ('A' for Active; 'I' for Inactive)
REMARK    1  A    between atoms: C_3  and  C_4
REMARK    2  A    between atoms: C_4  and  N_5
REMARK    3  A    between atoms: N_8  and  C_9
REMARK    4  A    between atoms: C_17  and  N_18
REMARK    5  A    between atoms: N_18  and  C_19
REMARK    6  A    between atoms: C_19  and  C_20
REMARK                            x       y       z     vdW  Elec       q    Type
REMARK                         _______ _______ _______ _____ _____    ______ ____
ROOT
ATOM      1  O   UNL     1      -6.242  -9.987  14.494  0.00  0.00    -0.219 OA
ATOM      2  C   UNL     1      -5.468 -10.248  14.610  0.00  0.00    +0.199 C 
ATOM      3  C   UNL     1      -4.900 -10.357  14.022  0.00  0.00    +0.169 C 
ATOM     15  O   UNL     1      -4.207 -10.622  14.382  0.00  0.00    -0.350 OA
ATOM     16  C   UNL     1      -4.346 -10.676  15.194  0.00  0.00    +0.162 C 
ATOM     17  C   UNL     1      -5.126 -10.444  15.335  0.00  0.00    +0.135 C 
ENDROOT
BRANCH   3   4
ATOM      4  C   UNL     1      -5.007 -10.226  13.215  0.00  0.00    +0.149 C 
BRANCH   4   5
ATOM      5  N   UNL     1      -4.356 -10.224  12.707  0.00  0.00    -0.184 NA
ATOM      6  C   UNL     1      -4.457 -10.047  11.908  0.00  0.00    +0.344 C 
ATOM      7  O   UNL     1      -5.208  -9.871  11.616  0.00  0.00    -0.249 OA
ATOM      8  N   UNL     1      -3.805 -10.045  11.401  0.00  0.00    -0.161 NA
BRANCH   8   9
ATOM      9  C   UNL     1      -3.907  -9.868  10.601  0.00  0.00    +0.075 A 
ATOM     10  C   UNL     1      -3.838  -9.089  10.339  0.00  0.00    +0.017 A 
ATOM     11  C   UNL     1      -3.939  -8.913   9.539  0.00  0.00    +0.001 A 
ATOM     12  C   UNL     1      -4.109  -9.515   9.002  0.00  0.00    +0.000 A 
ATOM     13  C   UNL     1      -4.178 -10.294   9.265  0.00  0.00    +0.001 A 
ATOM     14  C   UNL     1      -4.077 -10.471  10.064  0.00  0.00    +0.017 A 
ENDBRANCH   8   9
ENDBRANCH   4   5
ENDBRANCH   3   4
BRANCH  17  18
ATOM     18  N   UNL     1      -5.497 -10.415  16.070  0.00  0.00    -0.208 NA
BRANCH  18  19
ATOM     19  C   UNL     1      -5.048 -10.446  16.761  0.00  0.00    +0.134 C 
BRANCH  19  20
ATOM     20  C   UNL     1      -5.422 -10.486  17.496  0.00  0.00    +0.077 A 
ATOM     21  N   UNL     1      -6.216 -10.271  17.567  0.00  0.00    -0.247 NA
ATOM     22  C   UNL     1      -6.589 -10.311  18.302  0.00  0.00    +0.098 A 
ATOM     23  C   UNL     1      -6.170 -10.566  18.965  0.00  0.00    +0.021 A 
ATOM     24  C   UNL     1      -5.376 -10.781  18.893  0.00  0.00    +0.003 A 
ATOM     25  C   UNL     1      -5.002 -10.741  18.158  0.00  0.00    +0.016 A 
ENDBRANCH  19  20
ENDBRANCH  18  19
ENDBRANCH  17  18
TORSDOF 6
ENDMDL
MODEL 8
REMARK VINA RESULT:      -6.9     14.317     16.641
REMARK  Name = 
REMARK  6 active torsions:
REMARK  status: ('A' for Active; 'I' for Inactive)
REMARK    1  A    between atoms: C_3  and  C_4
REMARK    2  A    between atoms: C_4  and  N_5
REMARK    3  A    between atoms: N_8  and  C_9
REMARK    4  A    between atoms: C_17  and  N_18
REMARK    5  A    between atoms: N_18  and  C_19
REMARK    6  A    between atoms: C_19  and  C_20
REMARK                            x       y       z     vdW  Elec       q    Type
REMARK                         _______ _______ _______ _____ _____    ______ ____
ROOT
ATOM      1  O   UNL     1      -6.175  -9.776  12.891  0.00  0.00    -0.219 OA
ATOM      2  C   UNL     1      -5.416 -10.053  13.054  0.00  0.00    +0.199 C 
ATOM      3  C   UNL     1      -5.152 -10.346  13.780  0.00  0.00    +0.169 C 
ATOM     15  O   UNL     1      -4.361 -10.561  13.695  0.00  0.00    -0.350 OA
ATOM     16  C   UNL     1      -4.134 -10.401  12.918  0.00  0.00    +0.162 C 
ATOM     17  C   UNL     1      -4.787 -10.087  12.522  0.00  0.00    +0.135 C 
ENDROOT
BRANCH   3   4
ATOM      4  C   UNL     1      -5.602 -10.412  14.468  0.00  0.00    +0.149 C 
BRANCH   4   5
ATOM      5  N   UNL     1      -5.335 -10.068  15.169  0.00  0.00    -0.184 NA
ATOM      6  C   UNL     1      -5.702 -10.253  15.884  0.00  0.00    +0.344 C 
ATOM      7  O   UNL     1      -6.336 -10.781  15.899  0.00  0.00    -0.249 OA
ATOM      8  N   UNL     1      -5.434  -9.910  16.586  0.00  0.00    -0.161 NA
BRANCH   8   9
ATOM      9  C   UNL     1      -5.802 -10.095  17.301  0.00  0.00    +0.075 A 
ATOM     10  C   UNL     1      -6.544  -9.782  17.477  0.00  0.00    +0.017 A 
ATOM     11  C   UNL     1      -6.910  -9.968  18.193  0.00  0.00    +0.001 A 
ATOM     12  C   UNL     1      -6.535 -10.467  18.732  0.00  0.00    +0.000 A 
ATOM     13  C   UNL     1      -5.792 -10.780  18.555  0.00  0.00    +0.001 A 
ATOM     14  C   UNL     1      -5.425 -10.595  17.840  0.00  0.00    +0.017 A 
ENDBRANCH   8   9
ENDBRANCH   4   5
ENDBRANCH   3   4
BRANCH  17  18
ATOM     18  N   UNL     1      -4.806  -9.850  11.732  0.00  0.00    -0.208 NA
BRANCH  18  19
ATOM     19  C   UNL     1      -4.192 -10.058  11.223  0.00  0.00    +0.134 C 
BRANCH  19  20
ATOM     20  C   UNL     1      -4.198  -9.798  10.440  0.00  0.00    +0.077 A 
ATOM     21  N   UNL     1      -4.390 -10.322   9.832  0.00  0.00    -0.247 NA
ATOM     22  C   UNL     1      -4.396 -10.061   9.050  0.00  0.00    +0.098 A 
ATOM     23  C   UNL     1      -4.209  -9.277   8.875  0.00  0.00    +0.021 A 
ATOM     24  C   UNL     1      -4.017  -8.753   9.482  0.00  0.00    +0.003 A 
ATOM     25  C   UNL     1      -4.011  -9.013  10.266  0.00  0.00    +0.016 A 
ENDBRANCH  19  20
ENDBRANCH  18  19
ENDBRANCH  17  18
TORSDOF 6
ENDMDL
MODEL 9
REMARK VINA RESULT:      -6.9     14.329     15.449
REMARK  Name = 
REMARK  6 active torsions:
REMARK  status: ('A' for Active; 'I' for Inactive)
REMARK    1  A    between atoms: C_3  and  C_4
REMARK    2  A    between atoms: C_4  and  N_5
REMARK    3  A    between atoms: N_8  and  C_9
REMARK    4  A    between atoms: C_17  and  N_18
REMARK    5  A    between atoms: N_18  and  C_19
REMARK    6  A    between atoms: C_19  and  C_20
REMARK                            x       y       z     vdW  Elec       q    Type
REMARK                         _______ _______ _______ _____ _____    ______ ____
ROOT
ATOM      1  O   UNL     1      -5.155  -9.593  16.447  0.00  0.00    -0.219 OA
ATOM      2  C   UNL     1      -5.548  -9.968  15.827  0.00  0.00    +0.199 C 
ATOM      3  C   UNL     1      -6.366 -10.022  15.732  0.00  0.00    +0.169 C 
ATOM     15  O   UNL     1      -6.515 -10.442  15.038  0.00  0.00    -0.350 OA
ATOM     16  C   UNL     1      -5.790 -10.650  14.704  0.00  0.00    +0.162 C 
ATOM     17  C   UNL     1      -5.192 -10.357  15.192  0.00  0.00    +0.135 C 
ENDROOT
BRANCH   3   4
ATOM      4  C   UNL     1      -6.934  -9.708  16.241  0.00  0.00    +0.149 C 
BRANCH   4   5
ATOM      5  N   UNL     1      -7.711  -9.608  15.981  0.00  0.00    -0.184 NA
ATOM      6  C   UNL     1      -8.269  -9.256  16.476  0.00  0.00    +0.344 C 
ATOM      7  O   UNL     1      -8.051  -9.004  17.231  0.00  0.00    -0.249 OA
ATOM      8  N   UNL     1      -9.046  -9.155  16.215  0.00  0.00    -0.161 NA
BRANCH   8   9
ATOM      9  C   UNL     1      -9.604  -8.803  16.710  0.00  0.00    +0.075 A 
ATOM     10  C   UNL     1     -10.028  -9.264  17.247  0.00  0.00    +0.017 A 
ATOM     11  C   UNL     1     -10.586  -8.910  17.742  0.00  0.00    +0.001 A 
ATOM     12  C   UNL     1     -10.720  -8.098  17.700  0.00  0.00    +0.000 A 
ATOM     13  C   UNL     1     -10.295  -7.637  17.163  0.00  0.00    +0.001 A 
ATOM     14  C   UNL     1      -9.737  -7.989  16.668  0.00  0.00    +0.017 A 
ENDBRANCH   8   9
ENDBRANCH   4   5
ENDBRANCH   3   4
BRANCH  17  18
ATOM     18  N   UNL     1      -4.381 -10.438  15.066  0.00  0.00    -0.208 NA
BRANCH  18  19
ATOM     19  C   UNL     1      -4.102 -10.726  14.345  0.00  0.00    +0.134 C 
BRANCH  19  20
ATOM     20  C   UNL     1      -3.297 -10.681  14.166  0.00  0.00    +0.077 A 
ATOM     21  N   UNL     1      -2.735 -10.773  14.763  0.00  0.00    -0.247 NA
ATOM     22  C   UNL     1      -1.932 -10.727  14.583  0.00  0.00    +0.098 A 
ATOM     23  C   UNL     1      -1.689 -10.590  13.807  0.00  0.00    +0.021 A 
ATOM     24  C   UNL     1      -2.251 -10.498  13.209  0.00  0.00    +0.003 A 
ATOM     25  C   UNL     1      -3.056 -10.544  13.389  0.00  0.00    +0.016 A 
ENDBRANCH  19  20
ENDBRANCH  18  19
ENDBRANCH  17  18
TORSDOF 6
ENDMDL
MODEL 10
REMARK VINA RESULT:      -6.3     15.494     17.655
REMARK  Name = 
REMARK  6 active torsions:
REMARK  status: ('A' for Active; 'I' for Inactive)
REMARK    1  A    between atoms: C_3  and  C_4
REMARK    2  A    between atoms: C_4  and  N_5
REMARK    3  A    between atoms: N_8  and  C_9
REMARK    4  A    between atoms: C_17  and  N_18
REMARK    5  A    between atoms: N_18  and  C_19
REMARK    6  A    between atoms: C_19  and  C_20
REMARK                            x       y       z     vdW  Elec       q    Type
REMARK                         _______ _______ _______ _____ _____    ______ ____
ROOT
ATOM      1  O   UNL     1      -4.825 -10.437  13.272  0.00  0.00    -0.219 OA
ATOM      2  C   UNL     1      -4.168 -10.400  12.774  0.00  0.00    +0.199 C 
ATOM      3  C   UNL     1      -4.184 -10.270  11.959  0.00  0.00    +0.169 C 
ATOM     15  O   UNL     1      -3.407 -10.277  11.685  0.00  0.00    -0.350 OA
ATOM     16  C   UNL     1      -2.909 -10.411  12.329  0.00  0.00    +0.162 C 
ATOM     17  C   UNL     1      -3.381 -10.487  13.003  0.00  0.00    +0.135 C 
ENDROOT
BRANCH   3   4
ATOM      4  C   UNL     1      -4.860 -10.154  11.500  0.00  0.00    +0.149 C 
BRANCH   4   5
ATOM      5  N   UNL     1      -4.867  -9.568  10.919  0.00  0.00    -0.184 NA
ATOM      6  C   UNL     1      -5.513  -9.500  10.410  0.00  0.00    +0.344 C 
ATOM      7  O   UNL     1      -6.152 -10.018  10.483  0.00  0.00    -0.249 OA
ATOM      8  N   UNL     1      -5.520  -8.914   9.829  0.00  0.00    -0.161 NA
BRANCH   8   9
ATOM      9  C   UNL     1      -6.167  -8.847   9.321  0.00  0.00    +0.075 A 
ATOM     10  C   UNL     1      -6.781  -8.326   9.500  0.00  0.00    +0.017 A 
ATOM     11  C   UNL     1      -7.427  -8.259   8.991  0.00  0.00    +0.001 A 
ATOM     12  C   UNL     1      -7.459  -8.712   8.303  0.00  0.00    +0.000 A 
ATOM     13  C   UNL     1      -6.845  -9.233   8.124  0.00  0.00    +0.001 A 
ATOM     14  C   UNL     1      -6.198  -9.301   8.632  0.00  0.00    +0.017 A 
ENDBRANCH   8   9
ENDBRANCH   4   5
ENDBRANCH   3   4
BRANCH  17  18
ATOM     18  N   UNL     1      -3.111 -10.626  13.770  0.00  0.00    -0.208 NA
BRANCH  18  19
ATOM     19  C   UNL     1      -2.351 -10.393  13.989  0.00  0.00    +0.134 C 
BRANCH  19  20
ATOM     20  C   UNL     1      -2.091 -10.506  14.764  0.00  0.00    +0.077 A 
ATOM     21  N   UNL     1      -1.284 -10.492  14.935  0.00  0.00    -0.247 NA
ATOM     22  C   UNL     1      -1.026 -10.605  15.710  0.00  0.00    +0.098 A 
ATOM     23  C   UNL     1      -1.572 -10.732  16.314  0.00  0.00    +0.021 A 
ATOM     24  C   UNL     1      -2.380 -10.746  16.143  0.00  0.00    +0.003 A 
ATOM     25  C   UNL     1      -2.640 -10.633  15.368  0.00  0.00    +0.016 A 
ENDBRANCH  19  20
ENDBRANCH  18  19
ENDBRANCH  17  18
TORSDOF 6
ENDMDL
