REMARK  Name = 
REMARK  3 active torsions:
REMARK  status: ('A' for Active; 'I' for Inactive)
REMARK    1  A    between atoms: C_2  and  C_3
REMARK    2  A    between atoms: N_12  and  C_13
REMARK    3  A    between atoms: C_13  and  C_14
REMARK                            x       y       z     vdW  Elec       q    Type
REMARK                         _______ _______ _______ _____ _____    ______ ____
ROOT
ATOM      1  O   UNL     1       4.067   3.173   0.000  0.00  0.00    -0.275 OA
ATOM      2  C   UNL     1       4.067   2.348   0.000  0.00  0.00    +0.225 C 
ATOM      6  N   UNL     1       3.352   1.935   0.000  0.00  0.00    -0.276 N 
ATOM      7  C   UNL     1       3.352   1.110   0.000  0.00  0.00    +0.115 C 
ATOM      8  C   UNL     1       2.638   0.698   0.000  0.00  0.00    +0.116 C 
ATOM      9  N   UNL     1       1.923   1.110   0.000  0.00  0.00    -0.261 N 
ATOM     10  C   UNL     1       1.923   1.935   0.000  0.00  0.00    +0.116 C 
ATOM     11  C   UNL     1       1.139   2.190   0.000  0.00  0.00    +0.117 C 
ATOM     12  N   UNL     1       0.654   1.523   0.000  0.00  0.00    -0.258 N 
ATOM     20  C   UNL     1       1.139   0.856   0.000  0.00  0.00    +0.308 C 
ATOM     21  O   UNL     1       0.884   0.071   0.000  0.00  0.00    -0.252 OA
ATOM     22  C   UNL     1       2.638   2.348   0.000  0.00  0.00    +0.115 C 
ENDROOT
BRANCH   2   3
ATOM      3  C   UNL     1       4.781   1.935   0.000  0.00  0.00    +0.077 C 
ATOM      4  C   UNL     1       5.606   1.935   0.000  0.00  0.00    +0.010 C 
ATOM      5  C   UNL     1       5.194   1.221   0.000  0.00  0.00    +0.010 C 
ENDBRANCH   2   3
BRANCH  12  13
ATOM     13  C   UNL     1      -0.171   1.523   0.000  0.00  0.00    +0.123 C 
BRANCH  13  14
ATOM     14  C   UNL     1      -0.584   2.237   0.000  0.00  0.00    +0.017 A 
ATOM     15  C   UNL     1      -1.409   2.237   0.000  0.00  0.00    +0.001 A 
ATOM     16  C   UNL     1      -1.821   2.952   0.000  0.00  0.00    +0.020 A 
ATOM     17  C   UNL     1      -1.409   3.666   0.000  0.00  0.00    +0.099 A 
ATOM     18  N   UNL     1      -0.584   3.666   0.000  0.00  0.00    -0.243 NA
ATOM     19  C   UNL     1      -0.171   2.952   0.000  0.00  0.00    +0.096 A 
ENDBRANCH  13  14
ENDBRANCH  12  13
TORSDOF 3
