MODEL 1
REMARK VINA RESULT:     -11.5      0.000      0.000
REMARK  Name = 
REMARK  7 active torsions:
REMARK  status: ('A' for Active; 'I' for Inactive)
REMARK    1  A    between atoms: C_3  and  C_4
REMARK    2  A    between atoms: C_4  and  N_5
REMARK    3  A    between atoms: C_9  and  C_22
REMARK    4  A    between atoms: C_11  and  C_12
REMARK    5  A    between atoms: C_12  and  C_13
REMARK    6  A    between atoms: N_24  and  C_25
REMARK    7  A    between atoms: C_25  and  C_26
REMARK                            x       y       z     vdW  Elec       q    Type
REMARK                         _______ _______ _______ _____ _____    ______ ____
ROOT
ATOM      5  N   UNL     1      -3.246   2.837  25.009  0.00  0.00    -0.315 N 
ATOM      6  C   UNL     1      -2.508   2.470  24.987  0.00  0.00    +0.072 A 
ATOM      7  C   UNL     1      -2.630   1.655  24.953  0.00  0.00    -0.002 A 
ATOM      8  C   UNL     1      -2.016   1.105  24.925  0.00  0.00    +0.055 C 
ATOM      9  C   UNL     1      -2.065   0.281  24.890  0.00  0.00    +0.155 C 
ATOM     10  N   UNL     1      -2.739  -0.195  24.876  0.00  0.00    -0.207 NA
ATOM     11  C   UNL     1      -3.531   0.036  24.893  0.00  0.00    +0.095 C 
ATOM     16  C   UNL     1      -3.845   0.798  24.928  0.00  0.00    -0.005 A 
ATOM     17  C   UNL     1      -4.711   0.860  24.938  0.00  0.00    -0.003 A 
ATOM     18  C   UNL     1      -5.091   1.591  24.972  0.00  0.00    +0.001 A 
ATOM     19  C   UNL     1      -4.648   2.285  24.997  0.00  0.00    +0.017 A 
ATOM     20  C   UNL     1      -3.824   2.250  24.989  0.00  0.00    +0.060 A 
ATOM     21  C   UNL     1      -3.443   1.519  24.955  0.00  0.00    +0.011 A 
ENDROOT
BRANCH   9  22
ATOM     22  C   UNL     1      -1.345  -0.119  24.867  0.00  0.00    +0.258 C 
ATOM     23  O   UNL     1      -1.074  -0.520  25.536  0.00  0.00    -0.272 OA
ATOM     24  N   UNL     1      -0.894  -0.120  24.176  0.00  0.00    -0.199 NA
BRANCH  24  25
ATOM     25  C   UNL     1      -0.174  -0.520  24.153  0.00  0.00    +0.141 C 
BRANCH  25  26
ATOM     26  C   UNL     1       0.202  -0.654  23.430  0.00  0.00    -0.003 C 
ATOM     27  C   UNL     1       0.883  -0.233  23.234  0.00  0.00    -0.003 C 
ENDBRANCH  25  26
ENDBRANCH  24  25
ENDBRANCH   9  22
BRANCH   5   4
ATOM      4  C   UNL     1      -3.381   3.651  25.044  0.00  0.00    +0.183 C 
BRANCH   4   3
ATOM      1  C   UNL     1      -1.469   5.217  25.175  0.00  0.00    +0.090 C 
ATOM      2  C   UNL     1      -2.106   4.695  25.131  0.00  0.00    -0.088 C 
ATOM      3  C   UNL     1      -2.743   4.173  25.088  0.00  0.00    -0.066 C 
ENDBRANCH   4   3
ENDBRANCH   5   4
BRANCH  11  12
ATOM     12  C   UNL     1      -4.082  -0.577  24.872  0.00  0.00    +0.022 C 
BRANCH  12  13
ATOM     13  C   UNL     1      -3.891  -1.292  24.508  0.00  0.00    +0.002 C 
ATOM     14  C   UNL     1      -3.638  -1.932  24.963  0.00  0.00    +0.000 C 
ATOM     15  C   UNL     1      -3.951  -1.369  23.689  0.00  0.00    +0.000 C 
ENDBRANCH  12  13
ENDBRANCH  11  12
TORSDOF 7
ENDMDL
MODEL 2
REMARK VINA RESULT:     -11.0      1.655      2.982
REMARK  Name = 
REMARK  7 active torsions:
REMARK  status: ('A' for Active; 'I' for Inactive)
REMARK    1  A    between atoms: C_3  and  C_4
REMARK    2  A    between atoms: C_4  and  N_5
REMARK    3  A    between atoms: C_9  and  C_22
REMARK    4  A    between atoms: C_11  and  C_12
REMARK    5  A    between atoms: C_12  and  C_13
REMARK    6  A    between atoms: N_24  and  C_25
REMARK    7  A    between atoms: C_25  and  C_26
REMARK                            x       y       z     vdW  Elec       q    Type
REMARK                         _______ _______ _______ _____ _____    ______ ____
ROOT
ATOM      5  N   UNL     1      -1.775   2.576  24.881  0.00  0.00    -0.315 N 
ATOM      6  C   UNL     1      -1.888   1.763  24.959  0.00  0.00    +0.072 A 
ATOM      7  C   UNL     1      -2.698   1.613  24.918  0.00  0.00    -0.002 A 
ATOM      8  C   UNL     1      -3.024   0.857  24.975  0.00  0.00    +0.055 C 
ATOM      9  C   UNL     1      -3.818   0.635  24.942  0.00  0.00    +0.155 C 
ATOM     10  N   UNL     1      -4.483   1.115  24.844  0.00  0.00    -0.207 NA
ATOM     11  C   UNL     1      -4.517   1.934  24.755  0.00  0.00    +0.095 C 
ATOM     16  C   UNL     1      -3.895   2.477  24.742  0.00  0.00    -0.005 A 
ATOM     17  C   UNL     1      -4.113   3.312  24.638  0.00  0.00    -0.003 A 
ATOM     18  C   UNL     1      -3.542   3.906  24.616  0.00  0.00    +0.001 A 
ATOM     19  C   UNL     1      -2.744   3.715  24.692  0.00  0.00    +0.017 A 
ATOM     20  C   UNL     1      -2.515   2.929  24.792  0.00  0.00    +0.060 A 
ATOM     21  C   UNL     1      -3.085   2.333  24.814  0.00  0.00    +0.011 A 
ENDROOT
BRANCH   9  22
ATOM     22  C   UNL     1      -3.968  -0.172  25.016  0.00  0.00    +0.258 C 
ATOM     23  O   UNL     1      -4.061  -0.506  25.765  0.00  0.00    -0.272 OA
ATOM     24  N   UNL     1      -4.025  -0.646  24.343  0.00  0.00    -0.199 NA
BRANCH  24  25
ATOM     25  C   UNL     1      -4.174  -1.453  24.418  0.00  0.00    +0.141 C 
BRANCH  25  26
ATOM     26  C   UNL     1      -4.253  -1.923  23.744  0.00  0.00    -0.003 C 
ATOM     27  C   UNL     1      -4.063  -2.724  23.775  0.00  0.00    -0.003 C 
ENDBRANCH  25  26
ENDBRANCH  24  25
ENDBRANCH   9  22
BRANCH   5   4
ATOM      4  C   UNL     1      -1.049   2.967  24.891  0.00  0.00    +0.183 C 
BRANCH   4   3
ATOM      1  C   UNL     1       0.552   2.554  26.733  0.00  0.00    +0.090 C 
ATOM      2  C   UNL     1       0.019   2.691  26.119  0.00  0.00    -0.088 C 
ATOM      3  C   UNL     1      -0.515   2.829  25.505  0.00  0.00    -0.066 C 
ENDBRANCH   4   3
ENDBRANCH   5   4
BRANCH  11  12
ATOM     12  C   UNL     1      -5.272   2.254  24.668  0.00  0.00    +0.022 C 
BRANCH  12  13
ATOM     13  C   UNL     1      -5.895   1.971  25.128  0.00  0.00    +0.002 C 
ATOM     14  C   UNL     1      -6.494   1.520  24.781  0.00  0.00    +0.000 C 
ATOM     15  C   UNL     1      -5.922   2.138  25.935  0.00  0.00    +0.000 C 
ENDBRANCH  12  13
ENDBRANCH  11  12
TORSDOF 7
ENDMDL
MODEL 3
REMARK VINA RESULT:     -10.7      1.576      3.919
REMARK  Name = 
REMARK  7 active torsions:
REMARK  status: ('A' for Active; 'I' for Inactive)
REMARK    1  A    between atoms: C_3  and  C_4
REMARK    2  A    between atoms: C_4  and  N_5
REMARK    3  A    between atoms: C_9  and  C_22
REMARK    4  A    between atoms: C_11  and  C_12
REMARK    5  A    between atoms: C_12  and  C_13
REMARK    6  A    between atoms: N_24  and  C_25
REMARK    7  A    between atoms: C_25  and  C_26
REMARK                            x       y       z     vdW  Elec       q    Type
REMARK                         _______ _______ _______ _____ _____    ______ ____
ROOT
ATOM      5  N   UNL     1      -4.054  -0.270  24.292  0.00  0.00    -0.315 N 
ATOM      6  C   UNL     1      -3.250  -0.085  24.272  0.00  0.00    +0.072 A 
ATOM      7  C   UNL     1      -3.163   0.698  24.515  0.00  0.00    -0.002 A 
ATOM      8  C   UNL     1      -2.432   1.079  24.564  0.00  0.00    +0.055 C 
ATOM      9  C   UNL     1      -2.272   1.854  24.797  0.00  0.00    +0.155 C 
ATOM     10  N   UNL     1      -2.802   2.440  25.037  0.00  0.00    -0.207 NA
ATOM     11  C   UNL     1      -3.623   2.394  25.103  0.00  0.00    +0.095 C 
ATOM     16  C   UNL     1      -4.117   1.753  24.946  0.00  0.00    -0.005 A 
ATOM     17  C   UNL     1      -4.967   1.880  25.071  0.00  0.00    -0.003 A 
ATOM     18  C   UNL     1      -5.517   1.282  24.934  0.00  0.00    +0.001 A 
ATOM     19  C   UNL     1      -5.266   0.542  24.672  0.00  0.00    +0.017 A 
ATOM     20  C   UNL     1      -4.463   0.399  24.547  0.00  0.00    +0.060 A 
ATOM     21  C   UNL     1      -3.911   0.998  24.684  0.00  0.00    +0.011 A 
ENDROOT
BRANCH   9  22
ATOM     22  C   UNL     1      -1.477   2.073  24.789  0.00  0.00    +0.258 C 
ATOM     23  O   UNL     1      -1.110   2.266  24.076  0.00  0.00    -0.272 OA
ATOM     24  N   UNL     1      -1.048   2.099  25.494  0.00  0.00    -0.199 NA
BRANCH  24  25
ATOM     25  C   UNL     1      -0.254   2.318  25.485  0.00  0.00    +0.141 C 
BRANCH  25  26
ATOM     26  C   UNL     1       0.058   2.766  26.104  0.00  0.00    -0.003 C 
ATOM     27  C   UNL     1       0.433   2.393  26.736  0.00  0.00    -0.003 C 
ENDBRANCH  25  26
ENDBRANCH  24  25
ENDBRANCH   9  22
BRANCH   5   4
ATOM      4  C   UNL     1      -4.389  -0.997  24.092  0.00  0.00    +0.183 C 
BRANCH   4   3
ATOM      1  C   UNL     1      -3.232  -3.100  24.697  0.00  0.00    +0.090 C 
ATOM      2  C   UNL     1      -3.618  -2.399  24.495  0.00  0.00    -0.088 C 
ATOM      3  C   UNL     1      -4.003  -1.698  24.294  0.00  0.00    -0.066 C 
ENDBRANCH   4   3
ENDBRANCH   5   4
BRANCH  11  12
ATOM     12  C   UNL     1      -3.999   3.081  25.361  0.00  0.00    +0.022 C 
BRANCH  12  13
ATOM     13  C   UNL     1      -3.674   3.820  25.189  0.00  0.00    +0.002 C 
ATOM     14  C   UNL     1      -3.728   4.127  24.425  0.00  0.00    +0.000 C 
ATOM     15  C   UNL     1      -3.294   4.252  25.780  0.00  0.00    +0.000 C 
ENDBRANCH  12  13
ENDBRANCH  11  12
TORSDOF 7
ENDMDL
MODEL 4
REMARK VINA RESULT:     -10.6      1.163      3.911
REMARK  Name = 
REMARK  7 active torsions:
REMARK  status: ('A' for Active; 'I' for Inactive)
REMARK    1  A    between atoms: C_3  and  C_4
REMARK    2  A    between atoms: C_4  and  N_5
REMARK    3  A    between atoms: C_9  and  C_22
REMARK    4  A    between atoms: C_11  and  C_12
REMARK    5  A    between atoms: C_12  and  C_13
REMARK    6  A    between atoms: N_24  and  C_25
REMARK    7  A    between atoms: C_25  and  C_26
REMARK                            x       y       z     vdW  Elec       q    Type
REMARK                         _______ _______ _______ _____ _____    ______ ____
ROOT
ATOM      5  N   UNL     1      -1.856  -0.300  24.649  0.00  0.00    -0.315 N 
ATOM      6  C   UNL     1      -1.730   0.507  24.533  0.00  0.00    +0.072 A 
ATOM      7  C   UNL     1      -2.454   0.893  24.621  0.00  0.00    -0.002 A 
ATOM      8  C   UNL     1      -2.544   1.710  24.543  0.00  0.00    +0.055 C 
ATOM      9  C   UNL     1      -3.232   2.160  24.618  0.00  0.00    +0.155 C 
ATOM     10  N   UNL     1      -3.999   1.904  24.788  0.00  0.00    -0.207 NA
ATOM     11  C   UNL     1      -4.266   1.136  24.925  0.00  0.00    +0.095 C 
ATOM     16  C   UNL     1      -3.833   0.433  24.927  0.00  0.00    -0.005 A 
ATOM     17  C   UNL     1      -4.278  -0.294  25.093  0.00  0.00    -0.003 A 
ATOM     18  C   UNL     1      -3.909  -1.031  25.110  0.00  0.00    +0.001 A 
ATOM     19  C   UNL     1      -3.099  -1.090  24.968  0.00  0.00    +0.017 A 
ATOM     20  C   UNL     1      -2.657  -0.412  24.809  0.00  0.00    +0.060 A 
ATOM     21  C   UNL     1      -3.026   0.326  24.791  0.00  0.00    +0.011 A 
ENDROOT
BRANCH   9  22
ATOM     22  C   UNL     1      -3.143   2.972  24.508  0.00  0.00    +0.258 C 
ATOM     23  O   UNL     1      -3.478   3.338  23.849  0.00  0.00    -0.272 OA
ATOM     24  N   UNL     1      -2.718   3.419  25.056  0.00  0.00    -0.199 NA
BRANCH  24  25
ATOM     25  C   UNL     1      -2.628   4.231  24.946  0.00  0.00    +0.141 C 
BRANCH  25  26
ATOM     26  C   UNL     1      -2.183   4.674  25.482  0.00  0.00    -0.003 C 
ATOM     27  C   UNL     1      -1.616   5.205  25.207  0.00  0.00    -0.003 C 
ENDBRANCH  25  26
ENDBRANCH  24  25
ENDBRANCH   9  22
BRANCH   5   4
ATOM      4  C   UNL     1      -1.281  -0.890  24.611  0.00  0.00    +0.183 C 
BRANCH   4   3
ATOM      1  C   UNL     1       0.842  -0.474  23.409  0.00  0.00    +0.090 C 
ATOM      2  C   UNL     1       0.134  -0.612  23.810  0.00  0.00    -0.088 C 
ATOM      3  C   UNL     1      -0.573  -0.751  24.210  0.00  0.00    -0.066 C 
ENDBRANCH   4   3
ENDBRANCH   5   4
BRANCH  11  12
ATOM     12  C   UNL     1      -5.072   1.060  25.082  0.00  0.00    +0.022 C 
BRANCH  12  13
ATOM     13  C   UNL     1      -5.514   1.722  25.299  0.00  0.00    +0.002 C 
ATOM     14  C   UNL     1      -5.964   2.121  24.733  0.00  0.00    +0.000 C 
ATOM     15  C   UNL     1      -5.508   1.985  26.080  0.00  0.00    +0.000 C 
ENDBRANCH  12  13
ENDBRANCH  11  12
TORSDOF 7
ENDMDL
MODEL 5
REMARK VINA RESULT:     -10.4      1.502      4.901
REMARK  Name = 
REMARK  7 active torsions:
REMARK  status: ('A' for Active; 'I' for Inactive)
REMARK    1  A    between atoms: C_3  and  C_4
REMARK    2  A    between atoms: C_4  and  N_5
REMARK    3  A    between atoms: C_9  and  C_22
REMARK    4  A    between atoms: C_11  and  C_12
REMARK    5  A    between atoms: C_12  and  C_13
REMARK    6  A    between atoms: N_24  and  C_25
REMARK    7  A    between atoms: C_25  and  C_26
REMARK                            x       y       z     vdW  Elec       q    Type
REMARK                         _______ _______ _______ _____ _____    ______ ____
ROOT
ATOM      5  N   UNL     1      -2.465  -0.838  24.880  0.00  0.00    -0.315 N 
ATOM      6  C   UNL     1      -3.082  -0.306  24.753  0.00  0.00    +0.072 A 
ATOM      7  C   UNL     1      -2.760   0.452  24.710  0.00  0.00    -0.002 A 
ATOM      8  C   UNL     1      -3.212   1.131  24.587  0.00  0.00    +0.055 C 
ATOM      9  C   UNL     1      -2.959   1.915  24.534  0.00  0.00    +0.155 C 
ATOM     10  N   UNL     1      -2.192   2.213  24.591  0.00  0.00    -0.207 NA
ATOM     11  C   UNL     1      -1.488   1.800  24.715  0.00  0.00    +0.095 C 
ATOM     16  C   UNL     1      -1.378   0.988  24.813  0.00  0.00    -0.005 A 
ATOM     17  C   UNL     1      -0.560   0.721  24.935  0.00  0.00    -0.003 A 
ATOM     18  C   UNL     1      -0.378  -0.076  25.039  0.00  0.00    +0.001 A 
ATOM     19  C   UNL     1      -0.978  -0.641  25.030  0.00  0.00    +0.017 A 
ATOM     20  C   UNL     1      -1.762  -0.410  24.915  0.00  0.00    +0.060 A 
ATOM     21  C   UNL     1      -1.945   0.388  24.811  0.00  0.00    +0.011 A 
ENDROOT
BRANCH   9  22
ATOM     22  C   UNL     1      -3.551   2.474  24.408  0.00  0.00    +0.258 C 
ATOM     23  O   UNL     1      -3.689   2.763  23.647  0.00  0.00    -0.272 OA
ATOM     24  N   UNL     1      -4.005   2.746  25.041  0.00  0.00    -0.199 NA
BRANCH  24  25
ATOM     25  C   UNL     1      -4.597   3.306  24.914  0.00  0.00    +0.141 C 
BRANCH  25  26
ATOM     26  C   UNL     1      -4.928   3.709  25.553  0.00  0.00    -0.003 C 
ATOM     27  C   UNL     1      -5.747   3.741  25.641  0.00  0.00    -0.003 C 
ENDBRANCH  25  26
ENDBRANCH  24  25
ENDBRANCH   9  22
BRANCH   5   4
ATOM      4  C   UNL     1      -2.539  -1.657  24.957  0.00  0.00    +0.183 C 
BRANCH   4   3
ATOM      1  C   UNL     1      -4.371  -2.847  23.794  0.00  0.00    +0.090 C 
ATOM      2  C   UNL     1      -3.760  -2.450  24.181  0.00  0.00    -0.088 C 
ATOM      3  C   UNL     1      -3.150  -2.053  24.569  0.00  0.00    -0.066 C 
ENDBRANCH   4   3
ENDBRANCH   5   4
BRANCH  11  12
ATOM     12  C   UNL     1      -0.804   2.260  24.745  0.00  0.00    +0.022 C 
BRANCH  12  13
ATOM     13  C   UNL     1      -0.821   3.000  25.108  0.00  0.00    +0.002 C 
ATOM     14  C   UNL     1      -0.790   3.686  24.649  0.00  0.00    +0.000 C 
ATOM     15  C   UNL     1      -0.867   3.057  25.930  0.00  0.00    +0.000 C 
ENDBRANCH  12  13
ENDBRANCH  11  12
TORSDOF 7
ENDMDL
MODEL 6
REMARK VINA RESULT:     -10.1      1.511      2.789
REMARK  Name = 
REMARK  7 active torsions:
REMARK  status: ('A' for Active; 'I' for Inactive)
REMARK    1  A    between atoms: C_3  and  C_4
REMARK    2  A    between atoms: C_4  and  N_5
REMARK    3  A    between atoms: C_9  and  C_22
REMARK    4  A    between atoms: C_11  and  C_12
REMARK    5  A    between atoms: C_12  and  C_13
REMARK    6  A    between atoms: N_24  and  C_25
REMARK    7  A    between atoms: C_25  and  C_26
REMARK                            x       y       z     vdW  Elec       q    Type
REMARK                         _______ _______ _______ _____ _____    ______ ____
ROOT
ATOM      5  N   UNL     1      -4.420   0.955  24.637  0.00  0.00    -0.315 N 
ATOM      6  C   UNL     1      -3.773   1.466  24.678  0.00  0.00    +0.072 A 
ATOM      7  C   UNL     1      -3.087   1.010  24.656  0.00  0.00    -0.002 A 
ATOM      8  C   UNL     1      -2.327   1.331  24.685  0.00  0.00    +0.055 C 
ATOM      9  C   UNL     1      -1.602   0.938  24.668  0.00  0.00    +0.155 C 
ATOM     10  N   UNL     1      -1.457   0.127  24.616  0.00  0.00    -0.207 NA
ATOM     11  C   UNL     1      -2.001  -0.490  24.569  0.00  0.00    +0.095 C 
ATOM     16  C   UNL     1      -2.826  -0.450  24.563  0.00  0.00    -0.005 A 
ATOM     17  C   UNL     1      -3.249  -1.207  24.508  0.00  0.00    -0.003 A 
ATOM     18  C   UNL     1      -4.073  -1.240  24.497  0.00  0.00    +0.001 A 
ATOM     19  C   UNL     1      -4.514  -0.546  24.538  0.00  0.00    +0.017 A 
ATOM     20  C   UNL     1      -4.133   0.184  24.590  0.00  0.00    +0.060 A 
ATOM     21  C   UNL     1      -3.308   0.218  24.601  0.00  0.00    +0.011 A 
ENDROOT
BRANCH   9  22
ATOM     22  C   UNL     1      -0.933   1.419  24.707  0.00  0.00    +0.258 C 
ATOM     23  O   UNL     1      -0.509   1.592  24.021  0.00  0.00    -0.272 OA
ATOM     24  N   UNL     1      -0.688   1.727  25.432  0.00  0.00    -0.199 NA
BRANCH  24  25
ATOM     25  C   UNL     1      -0.019   2.208  25.471  0.00  0.00    +0.141 C 
BRANCH  25  26
ATOM     26  C   UNL     1       0.074   2.736  26.098  0.00  0.00    -0.003 C 
ATOM     27  C   UNL     1       0.452   2.493  26.789  0.00  0.00    -0.003 C 
ENDBRANCH  25  26
ENDBRANCH  24  25
ENDBRANCH   9  22
BRANCH   5   4
ATOM      4  C   UNL     1      -5.214   1.178  24.643  0.00  0.00    +0.183 C 
BRANCH   4   3
ATOM      1  C   UNL     1      -5.889   3.323  25.676  0.00  0.00    +0.090 C 
ATOM      2  C   UNL     1      -5.664   2.608  25.332  0.00  0.00    -0.088 C 
ATOM      3  C   UNL     1      -5.439   1.893  24.988  0.00  0.00    -0.066 C 
ENDBRANCH   4   3
ENDBRANCH   5   4
BRANCH  11  12
ATOM     12  C   UNL     1      -1.680  -1.248  24.523  0.00  0.00    +0.022 C 
BRANCH  12  13
ATOM     13  C   UNL     1      -0.931  -1.399  24.835  0.00  0.00    +0.002 C 
ATOM     14  C   UNL     1      -0.837  -1.512  25.648  0.00  0.00    +0.000 C 
ATOM     15  C   UNL     1      -0.275  -1.436  24.336  0.00  0.00    +0.000 C 
ENDBRANCH  12  13
ENDBRANCH  11  12
TORSDOF 7
ENDMDL
MODEL 7
REMARK VINA RESULT:     -10.1      1.447      3.433
REMARK  Name = 
REMARK  7 active torsions:
REMARK  status: ('A' for Active; 'I' for Inactive)
REMARK    1  A    between atoms: C_3  and  C_4
REMARK    2  A    between atoms: C_4  and  N_5
REMARK    3  A    between atoms: C_9  and  C_22
REMARK    4  A    between atoms: C_11  and  C_12
REMARK    5  A    between atoms: C_12  and  C_13
REMARK    6  A    between atoms: N_24  and  C_25
REMARK    7  A    between atoms: C_25  and  C_26
REMARK                            x       y       z     vdW  Elec       q    Type
REMARK                         _______ _______ _______ _____ _____    ______ ____
ROOT
ATOM      5  N   UNL     1      -1.191   2.382  24.930  0.00  0.00    -0.315 N 
ATOM      6  C   UNL     1      -1.992   2.576  24.901  0.00  0.00    +0.072 A 
ATOM      7  C   UNL     1      -2.422   1.874  24.845  0.00  0.00    -0.002 A 
ATOM      8  C   UNL     1      -3.246   1.849  24.804  0.00  0.00    +0.055 C 
ATOM      9  C   UNL     1      -3.738   1.189  24.747  0.00  0.00    +0.155 C 
ATOM     10  N   UNL     1      -3.527   0.391  24.718  0.00  0.00    -0.207 NA
ATOM     11  C   UNL     1      -2.773   0.058  24.738  0.00  0.00    +0.095 C 
ATOM     16  C   UNL     1      -2.043   0.439  24.792  0.00  0.00    -0.005 A 
ATOM     17  C   UNL     1      -1.340  -0.072  24.801  0.00  0.00    -0.003 A 
ATOM     18  C   UNL     1      -0.580   0.242  24.853  0.00  0.00    +0.001 A 
ATOM     19  C   UNL     1      -0.472   1.058  24.899  0.00  0.00    +0.017 A 
ATOM     20  C   UNL     1      -1.126   1.561  24.893  0.00  0.00    +0.060 A 
ATOM     21  C   UNL     1      -1.888   1.248  24.840  0.00  0.00    +0.011 A 
ENDROOT
BRANCH   9  22
ATOM     22  C   UNL     1      -4.546   1.346  24.716  0.00  0.00    +0.258 C 
ATOM     23  O   UNL     1      -4.950   1.287  23.999  0.00  0.00    -0.272 OA
ATOM     24  N   UNL     1      -4.952   1.563  25.401  0.00  0.00    -0.199 NA
BRANCH  24  25
ATOM     25  C   UNL     1      -5.761   1.721  25.370  0.00  0.00    +0.141 C 
BRANCH  25  26
ATOM     26  C   UNL     1      -6.112   2.197  25.945  0.00  0.00    -0.003 C 
ATOM     27  C   UNL     1      -6.576   1.857  26.535  0.00  0.00    -0.003 C 
ENDBRANCH  25  26
ENDBRANCH  24  25
ENDBRANCH   9  22
BRANCH   5   4
ATOM      4  C   UNL     1      -0.565   2.917  24.988  0.00  0.00    +0.183 C 
BRANCH   4   3
ATOM      1  C   UNL     1      -1.011   5.351  24.953  0.00  0.00    +0.090 C 
ATOM      2  C   UNL     1      -0.863   4.540  24.964  0.00  0.00    -0.088 C 
ATOM      3  C   UNL     1      -0.714   3.728  24.975  0.00  0.00    -0.066 C 
ENDBRANCH   4   3
ENDBRANCH   5   4
BRANCH  11  12
ATOM     12  C   UNL     1      -2.745  -0.766  24.698  0.00  0.00    +0.022 C 
BRANCH  12  13
ATOM     13  C   UNL     1      -3.374  -1.214  24.985  0.00  0.00    +0.002 C 
ATOM     14  C   UNL     1      -3.909  -1.560  24.458  0.00  0.00    +0.000 C 
ATOM     15  C   UNL     1      -3.471  -1.319  25.797  0.00  0.00    +0.000 C 
ENDBRANCH  12  13
ENDBRANCH  11  12
TORSDOF 7
ENDMDL
