REMARK  Name = 
REMARK  6 active torsions:
REMARK  status: ('A' for Active; 'I' for Inactive)
REMARK    1  A    between atoms: N_4  and  C_5
REMARK    2  A    between atoms: C_8  and  S_11
REMARK    3  A    between atoms: S_11  and  N_14
REMARK    4  A    between atoms: N_14  and  C_15
REMARK    5  A    between atoms: N_23  and  C_24
REMARK    6  A    between atoms: C_24  and  C_25
REMARK                            x       y       z     vdW  Elec       q    Type
REMARK                         _______ _______ _______ _____ _____    ______ ____
ROOT
ATOM     15  C   UNL     1      -1.296  -1.150   0.000  0.00  0.00    +0.147 A 
ATOM     16  C   UNL     1      -1.167  -0.335   0.000  0.00  0.00    +0.024 A 
ATOM     17  C   UNL     1      -0.397  -0.039   0.000  0.00  0.00    +0.014 A 
ATOM     18  C   UNL     1       0.244  -0.558   0.000  0.00  0.00    +0.041 A 
ATOM     19  C   UNL     1       1.163  -0.557   0.000  0.00  0.00    +0.054 C 
ATOM     20  C   UNL     1       1.713  -0.121   0.000  0.00  0.00    +0.011 C 
ATOM     21  C   UNL     1       1.582  -0.925   0.000  0.00  0.00    +0.039 C 
ATOM     22  C   UNL     1       1.629  -1.912   0.000  0.00  0.00    +0.074 C 
ATOM     23  N   UNL     1       0.813  -2.091   0.000  0.00  0.00    -0.269 NA
ATOM     32  C   UNL     1       1.225  -1.510   0.000  0.00  0.00    +0.078 C 
ATOM     33  C   UNL     1       0.622  -0.936   0.000  0.00  0.00    +0.110 C 
ATOM     34  N   UNL     1       0.115  -1.373   0.000  0.00  0.00    -0.298 N 
ATOM     35  C   UNL     1      -0.655  -1.669   0.000  0.00  0.00    +0.277 A 
ATOM     36  O   UNL     1      -0.784  -2.484   0.000  0.00  0.00    -0.266 OA
ENDROOT
BRANCH  15  14
ATOM     14  N   UNL     1      -2.066  -1.445   0.000  0.00  0.00    -0.092 NA
BRANCH  14  11
ATOM     11  S   UNL     1      -2.195  -2.260   0.000  0.00  0.00    +0.093 S 
ATOM     12  O   UNL     1      -1.380  -2.389   0.000  0.00  0.00    -0.148 OA
ATOM     13  O   UNL     1      -3.010  -2.131   0.000  0.00  0.00    -0.148 OA
BRANCH  11   8
ATOM      5  C   UNL     1      -2.582  -4.705   0.000  0.00  0.00    +0.073 A 
ATOM      6  C   UNL     1      -3.223  -4.186   0.000  0.00  0.00    +0.018 A 
ATOM      7  C   UNL     1      -3.094  -3.371   0.000  0.00  0.00    +0.022 A 
ATOM      8  C   UNL     1      -2.324  -3.075   0.000  0.00  0.00    +0.127 A 
ATOM      9  C   UNL     1      -1.683  -3.594   0.000  0.00  0.00    +0.022 A 
ATOM     10  C   UNL     1      -1.812  -4.409   0.000  0.00  0.00    +0.018 A 
BRANCH   5   4
ATOM      1  C   UNL     1      -2.199  -6.854   0.000  0.00  0.00    +0.097 C 
ATOM      2  C   UNL     1      -2.070  -6.039   0.000  0.00  0.00    +0.246 C 
ATOM      3  O   UNL     1      -1.300  -5.743   0.000  0.00  0.00    -0.273 OA
ATOM      4  N   UNL     1      -2.711  -5.520   0.000  0.00  0.00    -0.179 NA
ENDBRANCH   5   4
ENDBRANCH  11   8
ENDBRANCH  14  11
ENDBRANCH  15  14
BRANCH  23  24
ATOM     24  C   UNL     1       0.125  -2.547   0.000  0.00  0.00    +0.099 C 
BRANCH  24  25
ATOM     25  C   UNL     1       0.176  -3.370   0.000  0.00  0.00    -0.006 A 
ATOM     26  C   UNL     1       0.914  -3.738   0.000  0.00  0.00    -0.001 A 
ATOM     27  C   UNL     1       0.965  -4.562   0.000  0.00  0.00    +0.029 A 
ATOM     28  C   UNL     1       0.277  -5.017   0.000  0.00  0.00    +0.140 A 
ATOM     29  F   UNL     1       0.328  -5.841   0.000  0.00  0.00    -0.204 F 
ATOM     30  C   UNL     1      -0.461  -4.650   0.000  0.00  0.00    +0.029 A 
ATOM     31  C   UNL     1      -0.512  -3.826   0.000  0.00  0.00    -0.001 A 
ENDBRANCH  24  25
ENDBRANCH  23  24
TORSDOF 6
