MODEL 1
REMARK VINA RESULT:     -14.5      0.000      0.000
REMARK  Name = 
REMARK  4 active torsions:
REMARK  status: ('A' for Active; 'I' for Inactive)
REMARK    1  A    between atoms: O_2  and  C_3
REMARK    2  A    between atoms: C_8  and  N_9
REMARK    3  A    between atoms: N_12  and  C_13
REMARK    4  A    between atoms: C_23  and  C_25
REMARK                            x       y       z     vdW  Elec       q    Type
REMARK                         _______ _______ _______ _____ _____    ______ ____
ROOT
ATOM     13  C   UNL     1      -3.839   1.356  24.189  0.00  0.00    +0.131 A 
ATOM     14  C   UNL     1      -4.630   1.125  24.236  0.00  0.00    +0.023 A 
ATOM     15  C   UNL     1      -5.165   1.571  24.678  0.00  0.00    +0.014 A 
ATOM     16  C   UNL     1      -4.909   2.249  25.073  0.00  0.00    +0.041 A 
ATOM     17  C   UNL     1      -5.224   2.922  25.613  0.00  0.00    +0.058 C 
ATOM     18  C   UNL     1      -5.812   3.151  25.921  0.00  0.00    +0.011 C 
ATOM     19  C   UNL     1      -5.030   3.377  25.872  0.00  0.00    +0.043 C 
ATOM     20  C   UNL     1      -4.143   3.806  25.933  0.00  0.00    +0.096 C 
ATOM     21  N   UNL     1      -3.699   3.279  25.460  0.00  0.00    -0.274 N 
ATOM     22  C   UNL     1      -4.372   3.349  25.682  0.00  0.00    +0.100 C 
ATOM     23  C   UNL     1      -3.046   2.957  25.072  0.00  0.00    +0.267 C 
ATOM     24  O   UNL     1      -3.130   2.268  24.625  0.00  0.00    -0.268 OA
ATOM     31  C   UNL     1      -4.692   2.677  25.308  0.00  0.00    +0.110 C 
ATOM     32  N   UNL     1      -4.118   2.480  25.025  0.00  0.00    -0.298 N 
ATOM     33  C   UNL     1      -3.583   2.034  24.583  0.00  0.00    +0.276 A 
ATOM     34  O   UNL     1      -2.782   2.054  24.389  0.00  0.00    -0.266 OA
ENDROOT
BRANCH  23  25
ATOM     25  C   UNL     1      -2.310   3.324  25.130  0.00  0.00    +0.135 A 
ATOM     26  N   UNL     1      -2.132   3.971  24.651  0.00  0.00    -0.239 NA
ATOM     27  C   UNL     1      -1.394   4.338  24.710  0.00  0.00    +0.099 A 
ATOM     28  C   UNL     1      -0.836   4.056  25.247  0.00  0.00    +0.021 A 
ATOM     29  C   UNL     1      -1.013   3.409  25.726  0.00  0.00    +0.003 A 
ATOM     30  C   UNL     1      -1.751   3.042  25.668  0.00  0.00    +0.024 A 
ENDBRANCH  23  25
BRANCH  13  12
ATOM      9  N   UNL     1      -3.790  -0.283  24.366  0.00  0.00    -0.158 NA
ATOM     10  C   UNL     1      -3.280   0.090  23.835  0.00  0.00    +0.348 C 
ATOM     11  O   UNL     1      -2.746  -0.357  23.392  0.00  0.00    -0.248 OA
ATOM     12  N   UNL     1      -3.306   0.910  23.746  0.00  0.00    -0.156 NA
BRANCH   9   8
ATOM      3  C   UNL     1      -3.538  -1.434  25.176  0.00  0.00    +0.154 A 
ATOM      4  C   UNL     1      -3.512  -2.254  25.264  0.00  0.00    +0.038 A 
ATOM      5  C   UNL     1      -3.712  -2.743  24.631  0.00  0.00    +0.003 A 
ATOM      6  C   UNL     1      -3.938  -2.413  23.909  0.00  0.00    +0.002 A 
ATOM      7  C   UNL     1      -3.964  -1.593  23.821  0.00  0.00    +0.020 A 
ATOM      8  C   UNL     1      -3.764  -1.104  24.454  0.00  0.00    +0.109 A 
BRANCH   3   2
ATOM      1  C   UNL     1      -3.134  -1.274  26.536  0.00  0.00    +0.253 C 
ATOM      2  O   UNL     1      -3.339  -0.944  25.808  0.00  0.00    -0.470 OA
ENDBRANCH   3   2
ENDBRANCH   9   8
ENDBRANCH  13  12
TORSDOF 4
ENDMDL
MODEL 2
REMARK VINA RESULT:     -13.3      1.177      4.061
REMARK  Name = 
REMARK  4 active torsions:
REMARK  status: ('A' for Active; 'I' for Inactive)
REMARK    1  A    between atoms: O_2  and  C_3
REMARK    2  A    between atoms: C_8  and  N_9
REMARK    3  A    between atoms: N_12  and  C_13
REMARK    4  A    between atoms: C_23  and  C_25
REMARK                            x       y       z     vdW  Elec       q    Type
REMARK                         _______ _______ _______ _____ _____    ______ ____
ROOT
ATOM     13  C   UNL     1      -3.326   1.963  23.782  0.00  0.00    +0.131 A 
ATOM     14  C   UNL     1      -3.637   2.726  23.823  0.00  0.00    +0.023 A 
ATOM     15  C   UNL     1      -4.343   2.864  24.227  0.00  0.00    +0.014 A 
ATOM     16  C   UNL     1      -4.739   2.238  24.590  0.00  0.00    +0.041 A 
ATOM     17  C   UNL     1      -5.493   2.061  25.084  0.00  0.00    +0.058 C 
ATOM     18  C   UNL     1      -6.054   2.376  25.364  0.00  0.00    +0.011 C 
ATOM     19  C   UNL     1      -5.744   1.624  25.322  0.00  0.00    +0.043 C 
ATOM     20  C   UNL     1      -5.535   0.660  25.382  0.00  0.00    +0.096 C 
ATOM     21  N   UNL     1      -4.821   0.645  24.950  0.00  0.00    -0.274 N 
ATOM     22  C   UNL     1      -5.305   1.127  25.151  0.00  0.00    +0.100 C 
ATOM     23  C   UNL     1      -4.142   0.337  24.596  0.00  0.00    +0.267 C 
ATOM     24  O   UNL     1      -3.628   0.835  24.185  0.00  0.00    -0.268 OA
ATOM     31  C   UNL     1      -4.954   1.799  24.806  0.00  0.00    +0.110 C 
ATOM     32  N   UNL     1      -4.428   1.474  24.549  0.00  0.00    -0.298 N 
ATOM     33  C   UNL     1      -3.722   1.337  24.145  0.00  0.00    +0.276 A 
ATOM     34  O   UNL     1      -3.231   0.698  23.970  0.00  0.00    -0.266 OA
ENDROOT
BRANCH  23  25
ATOM     25  C   UNL     1      -3.977  -0.469  24.652  0.00  0.00    +0.135 A 
ATOM     26  N   UNL     1      -3.561  -0.762  25.301  0.00  0.00    -0.239 NA
ATOM     27  C   UNL     1      -3.396  -1.569  25.358  0.00  0.00    +0.099 A 
ATOM     28  C   UNL     1      -3.648  -2.083  24.764  0.00  0.00    +0.021 A 
ATOM     29  C   UNL     1      -4.064  -1.791  24.114  0.00  0.00    +0.003 A 
ATOM     30  C   UNL     1      -4.228  -0.984  24.058  0.00  0.00    +0.024 A 
ENDBRANCH  23  25
BRANCH  13  12
ATOM      9  N   UNL     1      -1.957   2.775  24.216  0.00  0.00    -0.158 NA
ATOM     10  C   UNL     1      -1.936   2.232  23.595  0.00  0.00    +0.348 C 
ATOM     11  O   UNL     1      -1.229   2.095  23.190  0.00  0.00    -0.248 OA
ATOM     12  N   UNL     1      -2.620   1.826  23.379  0.00  0.00    -0.156 NA
BRANCH   9   8
ATOM      3  C   UNL     1      -0.984   3.123  25.203  0.00  0.00    +0.154 A 
ATOM      4  C   UNL     1      -0.299   3.528  25.420  0.00  0.00    +0.038 A 
ATOM      5  C   UNL     1       0.098   3.992  24.865  0.00  0.00    +0.003 A 
ATOM      6  C   UNL     1      -0.190   4.051  24.094  0.00  0.00    +0.002 A 
ATOM      7  C   UNL     1      -0.875   3.645  23.877  0.00  0.00    +0.020 A 
ATOM      8  C   UNL     1      -1.272   3.181  24.432  0.00  0.00    +0.109 A 
BRANCH   3   2
ATOM      1  C   UNL     1      -1.068   2.562  26.514  0.00  0.00    +0.253 C 
ATOM      2  O   UNL     1      -1.381   2.659  25.757  0.00  0.00    -0.470 OA
ENDBRANCH   3   2
ENDBRANCH   9   8
ENDBRANCH  13  12
TORSDOF 4
ENDMDL
MODEL 3
REMARK VINA RESULT:     -13.0      0.933      2.430
REMARK  Name = 
REMARK  4 active torsions:
REMARK  status: ('A' for Active; 'I' for Inactive)
REMARK    1  A    between atoms: O_2  and  C_3
REMARK    2  A    between atoms: C_8  and  N_9
REMARK    3  A    between atoms: N_12  and  C_13
REMARK    4  A    between atoms: C_23  and  C_25
REMARK                            x       y       z     vdW  Elec       q    Type
REMARK                         _______ _______ _______ _____ _____    ______ ____
ROOT
ATOM     13  C   UNL     1      -2.701   1.060  24.064  0.00  0.00    +0.131 A 
ATOM     14  C   UNL     1      -1.932   0.761  24.024  0.00  0.00    +0.023 A 
ATOM     15  C   UNL     1      -1.319   1.145  24.421  0.00  0.00    +0.014 A 
ATOM     16  C   UNL     1      -1.475   1.827  24.858  0.00  0.00    +0.041 A 
ATOM     17  C   UNL     1      -1.049   2.452  25.381  0.00  0.00    +0.058 C 
ATOM     18  C   UNL     1      -0.416   2.619  25.633  0.00  0.00    +0.011 C 
ATOM     19  C   UNL     1      -1.176   2.911  25.671  0.00  0.00    +0.043 C 
ATOM     20  C   UNL     1      -2.012   3.410  25.835  0.00  0.00    +0.096 C 
ATOM     21  N   UNL     1      -2.545   2.940  25.396  0.00  0.00    -0.274 N 
ATOM     22  C   UNL     1      -1.849   2.945  25.549  0.00  0.00    +0.100 C 
ATOM     23  C   UNL     1      -3.259   2.688  25.068  0.00  0.00    +0.267 C 
ATOM     24  O   UNL     1      -3.280   2.011  24.596  0.00  0.00    -0.268 OA
ATOM     31  C   UNL     1      -1.629   2.263  25.126  0.00  0.00    +0.110 C 
ATOM     32  N   UNL     1      -2.243   2.125  24.898  0.00  0.00    -0.298 N 
ATOM     33  C   UNL     1      -2.856   1.742  24.501  0.00  0.00    +0.276 A 
ATOM     34  O   UNL     1      -3.668   1.835  24.391  0.00  0.00    -0.266 OA
ENDROOT
BRANCH  23  25
ATOM     25  C   UNL     1      -3.951   3.113  25.212  0.00  0.00    +0.135 A 
ATOM     26  N   UNL     1      -4.459   2.881  25.819  0.00  0.00    -0.239 NA
ATOM     27  C   UNL     1      -5.152   3.306  25.963  0.00  0.00    +0.099 A 
ATOM     28  C   UNL     1      -5.336   3.963  25.499  0.00  0.00    +0.021 A 
ATOM     29  C   UNL     1      -4.829   4.195  24.892  0.00  0.00    +0.003 A 
ATOM     30  C   UNL     1      -4.136   3.770  24.748  0.00  0.00    +0.024 A 
ENDBRANCH  23  25
BRANCH  13  12
ATOM      9  N   UNL     1      -3.032  -0.523  24.392  0.00  0.00    -0.158 NA
ATOM     10  C   UNL     1      -3.479  -0.115  23.830  0.00  0.00    +0.348 C 
ATOM     11  O   UNL     1      -4.092  -0.500  23.432  0.00  0.00    -0.248 OA
ATOM     12  N   UNL     1      -3.313   0.676  23.667  0.00  0.00    -0.156 NA
BRANCH   9   8
ATOM      3  C   UNL     1      -3.217  -1.580  25.336  0.00  0.00    +0.154 A 
ATOM      4  C   UNL     1      -3.383  -2.371  25.500  0.00  0.00    +0.038 A 
ATOM      5  C   UNL     1      -3.531  -2.897  24.882  0.00  0.00    +0.003 A 
ATOM      6  C   UNL     1      -3.513  -2.633  24.101  0.00  0.00    +0.002 A 
ATOM      7  C   UNL     1      -3.346  -1.842  23.937  0.00  0.00    +0.020 A 
ATOM      8  C   UNL     1      -3.198  -1.315  24.555  0.00  0.00    +0.109 A 
BRANCH   3   2
ATOM      1  C   UNL     1      -3.029  -1.328  26.730  0.00  0.00    +0.253 C 
ATOM      2  O   UNL     1      -3.069  -1.053  25.953  0.00  0.00    -0.470 OA
ENDBRANCH   3   2
ENDBRANCH   9   8
ENDBRANCH  13  12
TORSDOF 4
ENDMDL
MODEL 4
REMARK VINA RESULT:     -12.6      1.440      2.803
REMARK  Name = 
REMARK  4 active torsions:
REMARK  status: ('A' for Active; 'I' for Inactive)
REMARK    1  A    between atoms: O_2  and  C_3
REMARK    2  A    between atoms: C_8  and  N_9
REMARK    3  A    between atoms: N_12  and  C_13
REMARK    4  A    between atoms: C_23  and  C_25
REMARK                            x       y       z     vdW  Elec       q    Type
REMARK                         _______ _______ _______ _____ _____    ______ ____
ROOT
ATOM     13  C   UNL     1      -2.330   0.793  24.634  0.00  0.00    +0.131 A 
ATOM     14  C   UNL     1      -1.769   0.635  24.050  0.00  0.00    +0.023 A 
ATOM     15  C   UNL     1      -1.787   1.050  23.337  0.00  0.00    +0.014 A 
ATOM     16  C   UNL     1      -2.367   1.622  23.208  0.00  0.00    +0.041 A 
ATOM     17  C   UNL     1      -2.649   2.221  22.571  0.00  0.00    +0.058 C 
ATOM     18  C   UNL     1      -2.497   2.450  21.925  0.00  0.00    +0.011 C 
ATOM     19  C   UNL     1      -3.049   2.603  22.504  0.00  0.00    +0.043 C 
ATOM     20  C   UNL     1      -3.792   2.927  23.070  0.00  0.00    +0.096 C 
ATOM     21  N   UNL     1      -3.673   2.448  23.744  0.00  0.00    -0.274 N 
ATOM     22  C   UNL     1      -3.371   2.544  23.106  0.00  0.00    +0.100 C 
ATOM     23  C   UNL     1      -3.798   2.134  24.497  0.00  0.00    +0.267 C 
ATOM     24  O   UNL     1      -3.299   1.543  24.786  0.00  0.00    -0.268 OA
ATOM     31  C   UNL     1      -2.762   1.980  23.175  0.00  0.00    +0.110 C 
ATOM     32  N   UNL     1      -2.929   1.779  23.792  0.00  0.00    -0.298 N 
ATOM     33  C   UNL     1      -2.910   1.365  24.505  0.00  0.00    +0.276 A 
ATOM     34  O   UNL     1      -3.338   1.339  25.210  0.00  0.00    -0.266 OA
ENDROOT
BRANCH  23  25
ATOM     25  C   UNL     1      -4.421   2.411  24.961  0.00  0.00    +0.135 A 
ATOM     26  N   UNL     1      -4.315   3.074  25.441  0.00  0.00    -0.239 NA
ATOM     27  C   UNL     1      -4.938   3.351  25.905  0.00  0.00    +0.099 A 
ATOM     28  C   UNL     1      -5.667   2.966  25.889  0.00  0.00    +0.021 A 
ATOM     29  C   UNL     1      -5.774   2.304  25.409  0.00  0.00    +0.003 A 
ATOM     30  C   UNL     1      -5.150   2.026  24.945  0.00  0.00    +0.024 A 
ENDBRANCH  23  25
BRANCH  13  12
ATOM      9  N   UNL     1      -2.519  -0.847  24.640  0.00  0.00    -0.158 NA
ATOM     10  C   UNL     1      -2.406  -0.441  25.350  0.00  0.00    +0.348 C 
ATOM     11  O   UNL     1      -2.386  -0.856  26.063  0.00  0.00    -0.248 OA
ATOM     12  N   UNL     1      -2.311   0.378  25.346  0.00  0.00    -0.156 NA
BRANCH   9   8
ATOM      3  C   UNL     1      -3.307  -2.003  24.350  0.00  0.00    +0.154 A 
ATOM      4  C   UNL     1      -3.402  -2.822  24.354  0.00  0.00    +0.038 A 
ATOM      5  C   UNL     1      -2.803  -3.305  24.651  0.00  0.00    +0.003 A 
ATOM      6  C   UNL     1      -2.109  -2.969  24.946  0.00  0.00    +0.002 A 
ATOM      7  C   UNL     1      -2.014  -2.149  24.942  0.00  0.00    +0.020 A 
ATOM      8  C   UNL     1      -2.613  -1.667  24.644  0.00  0.00    +0.109 A 
BRANCH   3   2
ATOM      1  C   UNL     1      -4.572  -1.857  23.702  0.00  0.00    +0.253 C 
ATOM      2  O   UNL     1      -3.905  -1.520  24.052  0.00  0.00    -0.470 OA
ENDBRANCH   3   2
ENDBRANCH   9   8
ENDBRANCH  13  12
TORSDOF 4
ENDMDL
MODEL 5
REMARK VINA RESULT:     -12.1      1.661      4.776
REMARK  Name = 
REMARK  4 active torsions:
REMARK  status: ('A' for Active; 'I' for Inactive)
REMARK    1  A    between atoms: O_2  and  C_3
REMARK    2  A    between atoms: C_8  and  N_9
REMARK    3  A    between atoms: N_12  and  C_13
REMARK    4  A    between atoms: C_23  and  C_25
REMARK                            x       y       z     vdW  Elec       q    Type
REMARK                         _______ _______ _______ _____ _____    ______ ____
ROOT
ATOM     13  C   UNL     1      -2.841   1.227  23.736  0.00  0.00    +0.131 A 
ATOM     14  C   UNL     1      -2.323   1.818  23.485  0.00  0.00    +0.023 A 
ATOM     15  C   UNL     1      -1.508   1.696  23.521  0.00  0.00    +0.014 A 
ATOM     16  C   UNL     1      -1.211   0.983  23.810  0.00  0.00    +0.041 A 
ATOM     17  C   UNL     1      -0.414   0.555  23.972  0.00  0.00    +0.058 C 
ATOM     18  C   UNL     1       0.280   0.648  23.923  0.00  0.00    +0.011 C 
ATOM     19  C   UNL     1      -0.234   0.066  24.171  0.00  0.00    +0.043 C 
ATOM     20  C   UNL     1      -0.685  -0.744  24.511  0.00  0.00    +0.096 C 
ATOM     21  N   UNL     1      -1.481  -0.507  24.427  0.00  0.00    -0.274 N 
ATOM     22  C   UNL     1      -0.835  -0.235  24.304  0.00  0.00    +0.100 C 
ATOM     23  C   UNL     1      -2.305  -0.551  24.459  0.00  0.00    +0.267 C 
ATOM     24  O   UNL     1      -2.762   0.087  24.204  0.00  0.00    -0.268 OA
ATOM     31  C   UNL     1      -1.072   0.504  24.004  0.00  0.00    +0.110 C 
ATOM     32  N   UNL     1      -1.729   0.391  24.062  0.00  0.00    -0.298 N 
ATOM     33  C   UNL     1      -2.544   0.513  24.025  0.00  0.00    +0.276 A 
ATOM     34  O   UNL     1      -3.234   0.100  24.206  0.00  0.00    -0.266 OA
ENDROOT
BRANCH  23  25
ATOM     25  C   UNL     1      -2.671  -1.233  24.745  0.00  0.00    +0.135 A 
ATOM     26  N   UNL     1      -2.802  -1.873  24.243  0.00  0.00    -0.239 NA
ATOM     27  C   UNL     1      -3.169  -2.555  24.529  0.00  0.00    +0.099 A 
ATOM     28  C   UNL     1      -3.402  -2.596  25.319  0.00  0.00    +0.021 A 
ATOM     29  C   UNL     1      -3.271  -1.956  25.822  0.00  0.00    +0.003 A 
ATOM     30  C   UNL     1      -2.905  -1.274  25.536  0.00  0.00    +0.024 A 
ENDBRANCH  23  25
BRANCH  13  12
ATOM      9  N   UNL     1      -3.532   2.447  24.606  0.00  0.00    -0.158 NA
ATOM     10  C   UNL     1      -4.001   1.959  24.134  0.00  0.00    +0.348 C 
ATOM     11  O   UNL     1      -4.817   2.082  24.096  0.00  0.00    -0.248 OA
ATOM     12  N   UNL     1      -3.656   1.350  23.699  0.00  0.00    -0.156 NA
BRANCH   9   8
ATOM      3  C   UNL     1      -3.423   3.497  25.570  0.00  0.00    +0.154 A 
ATOM      4  C   UNL     1      -3.769   4.106  26.004  0.00  0.00    +0.038 A 
ATOM      5  C   UNL     1      -4.571   4.277  25.910  0.00  0.00    +0.003 A 
ATOM      6  C   UNL     1      -5.026   3.837  25.380  0.00  0.00    +0.002 A 
ATOM      7  C   UNL     1      -4.681   3.228  24.946  0.00  0.00    +0.020 A 
ATOM      8  C   UNL     1      -3.879   3.057  25.041  0.00  0.00    +0.109 A 
BRANCH   3   2
ATOM      1  C   UNL     1      -2.153   3.802  26.147  0.00  0.00    +0.253 C 
ATOM      2  O   UNL     1      -2.622   3.326  25.664  0.00  0.00    -0.470 OA
ENDBRANCH   3   2
ENDBRANCH   9   8
ENDBRANCH  13  12
TORSDOF 4
ENDMDL
MODEL 6
REMARK VINA RESULT:     -12.0      1.686      4.032
REMARK  Name = 
REMARK  4 active torsions:
REMARK  status: ('A' for Active; 'I' for Inactive)
REMARK    1  A    between atoms: O_2  and  C_3
REMARK    2  A    between atoms: C_8  and  N_9
REMARK    3  A    between atoms: N_12  and  C_13
REMARK    4  A    between atoms: C_23  and  C_25
REMARK                            x       y       z     vdW  Elec       q    Type
REMARK                         _______ _______ _______ _____ _____    ______ ____
ROOT
ATOM     13  C   UNL     1      -3.402   0.719  23.882  0.00  0.00    +0.131 A 
ATOM     14  C   UNL     1      -4.085   0.292  24.061  0.00  0.00    +0.023 A 
ATOM     15  C   UNL     1      -4.028  -0.434  24.450  0.00  0.00    +0.014 A 
ATOM     16  C   UNL     1      -3.288  -0.732  24.660  0.00  0.00    +0.041 A 
ATOM     17  C   UNL     1      -2.902  -1.456  25.072  0.00  0.00    +0.058 C 
ATOM     18  C   UNL     1      -3.064  -2.064  25.383  0.00  0.00    +0.011 C 
ATOM     19  C   UNL     1      -2.392  -1.639  25.205  0.00  0.00    +0.043 C 
ATOM     20  C   UNL     1      -1.479  -1.282  25.080  0.00  0.00    +0.096 C 
ATOM     21  N   UNL     1      -1.662  -0.567  24.688  0.00  0.00    -0.274 N 
ATOM     22  C   UNL     1      -2.013  -1.124  24.958  0.00  0.00    +0.100 C 
ATOM     23  C   UNL     1      -1.539   0.157  24.312  0.00  0.00    +0.267 C 
ATOM     24  O   UNL     1      -2.184   0.593  24.035  0.00  0.00    -0.268 OA
ATOM     31  C   UNL     1      -2.787  -0.878  24.773  0.00  0.00    +0.110 C 
ATOM     32  N   UNL     1      -2.605  -0.304  24.481  0.00  0.00    -0.298 N 
ATOM     33  C   UNL     1      -2.662   0.421  24.092  0.00  0.00    +0.276 A 
ATOM     34  O   UNL     1      -2.155   1.010  23.816  0.00  0.00    -0.266 OA
ENDROOT
BRANCH  23  25
ATOM     25  C   UNL     1      -0.773   0.446  24.212  0.00  0.00    +0.135 A 
ATOM     26  N   UNL     1      -0.301   0.161  23.600  0.00  0.00    -0.239 NA
ATOM     27  C   UNL     1       0.466   0.450  23.500  0.00  0.00    +0.099 A 
ATOM     28  C   UNL     1       0.759   1.024  24.015  0.00  0.00    +0.021 A 
ATOM     29  C   UNL     1       0.288   1.310  24.628  0.00  0.00    +0.003 A 
ATOM     30  C   UNL     1      -0.479   1.021  24.727  0.00  0.00    +0.024 A 
ENDBRANCH  23  25
BRANCH  13  12
ATOM      9  N   UNL     1      -4.174   1.985  24.607  0.00  0.00    -0.158 NA
ATOM     10  C   UNL     1      -3.846   2.077  23.855  0.00  0.00    +0.348 C 
ATOM     11  O   UNL     1      -3.903   2.803  23.465  0.00  0.00    -0.248 OA
ATOM     12  N   UNL     1      -3.460   1.444  23.493  0.00  0.00    -0.156 NA
BRANCH   9   8
ATOM      3  C   UNL     1      -5.281   2.499  25.349  0.00  0.00    +0.154 A 
ATOM      4  C   UNL     1      -5.667   3.132  25.711  0.00  0.00    +0.038 A 
ATOM      5  C   UNL     1      -5.331   3.885  25.691  0.00  0.00    +0.003 A 
ATOM      6  C   UNL     1      -4.609   4.005  25.310  0.00  0.00    +0.002 A 
ATOM      7  C   UNL     1      -4.223   3.372  24.949  0.00  0.00    +0.020 A 
ATOM      8  C   UNL     1      -4.559   2.619  24.968  0.00  0.00    +0.109 A 
BRANCH   3   2
ATOM      1  C   UNL     1      -6.311   1.614  25.795  0.00  0.00    +0.253 C 
ATOM      2  O   UNL     1      -5.617   1.746  25.368  0.00  0.00    -0.470 OA
ENDBRANCH   3   2
ENDBRANCH   9   8
ENDBRANCH  13  12
TORSDOF 4
ENDMDL
