REMARK  Name = 
REMARK  5 active torsions:
REMARK  status: ('A' for Active; 'I' for Inactive)
REMARK    1  A    between atoms: O_2  and  C_3
REMARK    2  A    between atoms: C_3  and  C_4
REMARK    3  A    between atoms: N_6  and  C_7
REMARK    4  A    between atoms: C_11  and  N_15
REMARK    5  A    between atoms: C_19  and  C_20
REMARK                            x       y       z     vdW  Elec       q    Type
REMARK                         _______ _______ _______ _____ _____    ______ ____
ROOT
ATOM      7  C   UNL     1       1.270  -0.922   0.000  0.00  0.00    +0.154 C 
ATOM      8  C   UNL     1       0.785  -0.255   0.000  0.00  0.00    +0.166 C 
ATOM      9  O   UNL     1       1.270   0.412   0.000  0.00  0.00    -0.350 OA
ATOM     10  C   UNL     1       2.054   0.158   0.000  0.00  0.00    +0.169 C 
ATOM     11  C   UNL     1       2.839   0.412   0.000  0.00  0.00    +0.167 C 
ATOM     12  C   UNL     1       3.324  -0.255   0.000  0.00  0.00    +0.169 C 
ATOM     13  O   UNL     1       2.839  -0.922   0.000  0.00  0.00    -0.350 OA
ATOM     14  C   UNL     1       2.054  -0.667   0.000  0.00  0.00    +0.167 C 
ENDROOT
BRANCH  11  15
ATOM     15  N   UNL     1       3.094   1.197   0.000  0.00  0.00    -0.210 N 
ATOM     16  N   UNL     1       2.609   1.865   0.000  0.00  0.00    -0.043 NA
ATOM     17  N   UNL     1       3.094   2.532   0.000  0.00  0.00    -0.023 NA
ATOM     18  N   UNL     1       3.878   2.277   0.000  0.00  0.00    -0.108 NA
ATOM     19  C   UNL     1       3.878   1.452   0.000  0.00  0.00    +0.184 A 
BRANCH  19  20
ATOM     20  C   UNL     1       4.546   0.967   0.000  0.00  0.00    +0.037 A 
ATOM     21  C   UNL     1       5.300   1.303   0.000  0.00  0.00    +0.003 A 
ATOM     22  C   UNL     1       5.967   0.818   0.000  0.00  0.00    +0.000 A 
ATOM     23  C   UNL     1       5.881  -0.003   0.000  0.00  0.00    +0.000 A 
ATOM     24  C   UNL     1       5.127  -0.338   0.000  0.00  0.00    +0.000 A 
ATOM     25  C   UNL     1       4.460   0.147   0.000  0.00  0.00    +0.003 A 
ENDBRANCH  19  20
ENDBRANCH  11  15
BRANCH   7   6
ATOM      4  C   UNL     1       0.208  -1.879   0.000  0.00  0.00    +0.272 C 
ATOM      5  O   UNL     1      -0.344  -1.265   0.000  0.00  0.00    -0.271 OA
ATOM      6  N   UNL     1       1.015  -1.707   0.000  0.00  0.00    -0.200 NA
BRANCH   4   3
ATOM      3  C   UNL     1      -0.047  -2.663   0.000  0.00  0.00    +0.229 C 
BRANCH   3   2
ATOM      1  C   UNL     1      -1.109  -3.619   0.000  0.00  0.00    +0.175 C 
ATOM      2  O   UNL     1      -0.854  -2.835   0.000  0.00  0.00    -0.342 OA
ENDBRANCH   3   2
ENDBRANCH   4   3
ENDBRANCH   7   6
TORSDOF 5
