MODEL 1
REMARK VINA RESULT:     -11.2      0.000      0.000
REMARK  Name = 
REMARK  5 active torsions:
REMARK  status: ('A' for Active; 'I' for Inactive)
REMARK    1  A    between atoms: C_2  and  C_3
REMARK    2  A    between atoms: C_3  and  C_4
REMARK    3  A    between atoms: C_22  and  N_25
REMARK    4  A    between atoms: N_31  and  C_32
REMARK    5  A    between atoms: C_32  and  C_33
REMARK                            x       y       z     vdW  Elec       q    Type
REMARK                         _______ _______ _______ _____ _____    ______ ____
ROOT
ATOM      4  C   UNL     1       0.611   0.384  23.510  0.00  0.00    +0.012 C 
ATOM      5  C   UNL     1       0.656  -0.422  23.678  0.00  0.00    +0.022 C 
ATOM      6  C   UNL     1       0.004  -0.813  24.000  0.00  0.00    +0.093 C 
ATOM      7  N   UNL     1      -0.687  -0.474  24.169  0.00  0.00    -0.278 N 
ATOM      8  C   UNL     1      -0.737   0.409  23.985  0.00  0.00    +0.093 C 
ATOM      9  C   UNL     1      -0.275   1.022  23.680  0.00  0.00    +0.021 C 
ATOM     10  C   UNL     1      -0.731   1.710  23.686  0.00  0.00    +0.006 C 
ATOM     11  C   UNL     1      -1.473   1.521  23.994  0.00  0.00    +0.047 C 
ATOM     12  C   UNL     1      -2.265   1.910  24.188  0.00  0.00    +0.205 C 
ATOM     13  O   UNL     1      -2.688   1.737  24.378  0.00  0.00    -0.476 OA
ATOM     14  C   UNL     1      -2.819   0.682  24.665  0.00  0.00    +0.136 A 
ATOM     15  C   UNL     1      -3.451   0.261  24.987  0.00  0.00    +0.030 A 
ATOM     16  C   UNL     1      -3.374  -0.545  25.144  0.00  0.00    +0.119 C 
ATOM     17  N   UNL     1      -2.663  -0.931  24.978  0.00  0.00    -0.204 NA
ATOM     18  C   UNL     1      -2.030  -0.509  24.656  0.00  0.00    +0.174 C 
ATOM     19  C   UNL     1      -1.320  -0.894  24.491  0.00  0.00    +0.243 C 
ATOM     20  O   UNL     1      -1.242  -1.701  24.647  0.00  0.00    -0.273 OA
ATOM     21  C   UNL     1      -4.162   0.646  25.153  0.00  0.00    +0.015 A 
ATOM     22  C   UNL     1      -4.240   1.452  24.997  0.00  0.00    +0.048 A 
ATOM     23  C   UNL     1      -3.607   1.874  24.675  0.00  0.00    +0.018 A 
ATOM     24  C   UNL     1      -2.897   1.489  24.509  0.00  0.00    +0.038 A 
ENDROOT
BRANCH  22  25
ATOM     25  N   UNL     1      -4.950   1.838  25.162  0.00  0.00    -0.303 N 
ATOM     26  C   UNL     1      -4.959   2.488  25.669  0.00  0.00    +0.123 C 
ATOM     27  C   UNL     1      -5.669   2.874  25.834  0.00  0.00    +0.164 C 
ATOM     28  O   UNL     1      -6.372   2.608  25.493  0.00  0.00    -0.350 OA
ATOM     29  C   UNL     1      -6.363   1.958  24.986  0.00  0.00    +0.164 C 
ATOM     30  C   UNL     1      -5.653   1.572  24.821  0.00  0.00    +0.123 C 
ENDBRANCH  22  25
BRANCH   4   3
ATOM      3  C   UNL     1       1.281   0.743  23.189  0.00  0.00    +0.087 C 
BRANCH   3   2
ATOM      1  O   UNL     1       1.706  -0.246  22.248  0.00  0.00    -0.273 OA
ATOM      2  C   UNL     1       1.880   0.279  22.860  0.00  0.00    +0.242 C 
ATOM     31  N   UNL     1       2.652   0.342  23.143  0.00  0.00    -0.201 NA
BRANCH  31  32
ATOM     32  C   UNL     1       3.251  -0.121  22.815  0.00  0.00    +0.142 C 
BRANCH  32  33
ATOM     33  C   UNL     1       4.008  -0.106  23.140  0.00  0.00    +0.003 A 
ATOM     34  C   UNL     1       4.295  -0.763  23.550  0.00  0.00    +0.018 A 
ATOM     35  C   UNL     1       5.053  -0.748  23.875  0.00  0.00    +0.099 A 
ATOM     36  N   UNL     1       5.524  -0.077  23.790  0.00  0.00    -0.242 NA
ATOM     37  C   UNL     1       5.239   0.579  23.381  0.00  0.00    +0.099 A 
ATOM     38  C   UNL     1       4.481   0.565  23.055  0.00  0.00    +0.018 A 
ENDBRANCH  32  33
ENDBRANCH  31  32
ENDBRANCH   3   2
ENDBRANCH   4   3
TORSDOF 5
ENDMDL
MODEL 2
REMARK VINA RESULT:     -10.0      1.126      1.941
REMARK  Name = 
REMARK  5 active torsions:
REMARK  status: ('A' for Active; 'I' for Inactive)
REMARK    1  A    between atoms: C_2  and  C_3
REMARK    2  A    between atoms: C_3  and  C_4
REMARK    3  A    between atoms: C_22  and  N_25
REMARK    4  A    between atoms: N_31  and  C_32
REMARK    5  A    between atoms: C_32  and  C_33
REMARK                            x       y       z     vdW  Elec       q    Type
REMARK                         _______ _______ _______ _____ _____    ______ ____
ROOT
ATOM      4  C   UNL     1       0.406   0.619  23.753  0.00  0.00    +0.012 C 
ATOM      5  C   UNL     1       0.792   1.347  23.755  0.00  0.00    +0.022 C 
ATOM      6  C   UNL     1       0.374   2.035  23.939  0.00  0.00    +0.093 C 
ATOM      7  N   UNL     1      -0.393   2.061  24.121  0.00  0.00    -0.278 N 
ATOM      8  C   UNL     1      -0.816   1.263  24.119  0.00  0.00    +0.093 C 
ATOM      9  C   UNL     1      -0.664   0.463  23.982  0.00  0.00    +0.021 C 
ATOM     10  C   UNL     1      -1.368   0.047  24.094  0.00  0.00    +0.006 C 
ATOM     11  C   UNL     1      -1.954   0.591  24.299  0.00  0.00    +0.047 C 
ATOM     12  C   UNL     1      -2.832   0.621  24.508  0.00  0.00    +0.205 C 
ATOM     13  O   UNL     1      -3.139   0.992  24.626  0.00  0.00    -0.476 OA
ATOM     14  C   UNL     1      -2.805   2.039  24.680  0.00  0.00    +0.136 A 
ATOM     15  C   UNL     1      -3.193   2.746  24.860  0.00  0.00    +0.030 A 
ATOM     16  C   UNL     1      -2.777   3.458  24.853  0.00  0.00    +0.119 C 
ATOM     17  N   UNL     1      -1.973   3.465  24.667  0.00  0.00    -0.204 NA
ATOM     18  C   UNL     1      -1.585   2.759  24.487  0.00  0.00    +0.174 C 
ATOM     19  C   UNL     1      -0.782   2.766  24.301  0.00  0.00    +0.243 C 
ATOM     20  O   UNL     1      -0.367   3.479  24.294  0.00  0.00    -0.273 OA
ATOM     21  C   UNL     1      -3.996   2.738  25.046  0.00  0.00    +0.015 A 
ATOM     22  C   UNL     1      -4.412   2.026  25.053  0.00  0.00    +0.048 A 
ATOM     23  C   UNL     1      -4.024   1.320  24.873  0.00  0.00    +0.018 A 
ATOM     24  C   UNL     1      -3.221   1.327  24.687  0.00  0.00    +0.038 A 
ENDROOT
BRANCH  22  25
ATOM     25  N   UNL     1      -5.215   2.019  25.239  0.00  0.00    -0.303 N 
ATOM     26  C   UNL     1      -5.460   2.134  26.019  0.00  0.00    +0.123 C 
ATOM     27  C   UNL     1      -6.263   2.127  26.205  0.00  0.00    +0.164 C 
ATOM     28  O   UNL     1      -6.823   2.004  25.612  0.00  0.00    -0.350 OA
ATOM     29  C   UNL     1      -6.579   1.889  24.832  0.00  0.00    +0.164 C 
ATOM     30  C   UNL     1      -5.775   1.897  24.646  0.00  0.00    +0.123 C 
ENDBRANCH  22  25
BRANCH   4   3
ATOM      3  C   UNL     1       0.854  -0.048  23.564  0.00  0.00    +0.087 C 
BRANCH   3   2
ATOM      1  O   UNL     1       1.274   0.075  22.203  0.00  0.00    -0.273 OA
ATOM      2  C   UNL     1       1.459   0.006  23.004  0.00  0.00    +0.242 C 
ATOM     31  N   UNL     1       2.247  -0.009  23.246  0.00  0.00    -0.201 NA
BRANCH  31  32
ATOM     32  C   UNL     1       2.852   0.046  22.687  0.00  0.00    +0.142 C 
BRANCH  32  33
ATOM     33  C   UNL     1       3.638   0.074  22.932  0.00  0.00    +0.003 A 
ATOM     34  C   UNL     1       4.084   0.759  22.811  0.00  0.00    +0.018 A 
ATOM     35  C   UNL     1       4.870   0.787  23.056  0.00  0.00    +0.099 A 
ATOM     36  N   UNL     1       5.213   0.132  23.421  0.00  0.00    -0.242 NA
ATOM     37  C   UNL     1       4.769  -0.553  23.542  0.00  0.00    +0.099 A 
ATOM     38  C   UNL     1       3.981  -0.581  23.297  0.00  0.00    +0.018 A 
ENDBRANCH  32  33
ENDBRANCH  31  32
ENDBRANCH   3   2
ENDBRANCH   4   3
TORSDOF 5
ENDMDL
MODEL 3
REMARK VINA RESULT:      -9.0      0.953      1.327
REMARK  Name = 
REMARK  5 active torsions:
REMARK  status: ('A' for Active; 'I' for Inactive)
REMARK    1  A    between atoms: C_2  and  C_3
REMARK    2  A    between atoms: C_3  and  C_4
REMARK    3  A    between atoms: C_22  and  N_25
REMARK    4  A    between atoms: N_31  and  C_32
REMARK    5  A    between atoms: C_32  and  C_33
REMARK                            x       y       z     vdW  Elec       q    Type
REMARK                         _______ _______ _______ _____ _____    ______ ____
ROOT
ATOM      4  C   UNL     1      -0.225  -0.646  24.280  0.00  0.00    +0.012 C 
ATOM      5  C   UNL     1      -0.554  -1.387  24.132  0.00  0.00    +0.022 C 
ATOM      6  C   UNL     1      -1.373  -1.487  24.160  0.00  0.00    +0.093 C 
ATOM      7  N   UNL     1      -1.892  -0.916  24.320  0.00  0.00    -0.278 N 
ATOM      8  C   UNL     1      -1.531  -0.104  24.482  0.00  0.00    +0.093 C 
ATOM      9  C   UNL     1      -0.795   0.269  24.522  0.00  0.00    +0.021 C 
ATOM     10  C   UNL     1      -0.922   1.063  24.709  0.00  0.00    +0.006 C 
ATOM     11  C   UNL     1      -1.735   1.179  24.785  0.00  0.00    +0.047 C 
ATOM     12  C   UNL     1      -2.330   1.833  24.969  0.00  0.00    +0.205 C 
ATOM     13  O   UNL     1      -2.825   1.842  25.001  0.00  0.00    -0.476 OA
ATOM     14  C   UNL     1      -3.441   0.945  24.835  0.00  0.00    +0.136 A 
ATOM     15  C   UNL     1      -4.255   0.810  24.854  0.00  0.00    +0.030 A 
ATOM     16  C   UNL     1      -4.553   0.056  24.702  0.00  0.00    +0.119 C 
ATOM     17  N   UNL     1      -4.036  -0.564  24.530  0.00  0.00    -0.204 NA
ATOM     18  C   UNL     1      -3.222  -0.430  24.511  0.00  0.00    +0.174 C 
ATOM     19  C   UNL     1      -2.706  -1.049  24.339  0.00  0.00    +0.243 C 
ATOM     20  O   UNL     1      -3.003  -1.803  24.187  0.00  0.00    -0.273 OA
ATOM     21  C   UNL     1      -4.772   1.430  25.026  0.00  0.00    +0.015 A 
ATOM     22  C   UNL     1      -4.475   2.185  25.179  0.00  0.00    +0.048 A 
ATOM     23  C   UNL     1      -3.660   2.319  25.160  0.00  0.00    +0.018 A 
ATOM     24  C   UNL     1      -3.144   1.699  24.988  0.00  0.00    +0.038 A 
ENDROOT
BRANCH  22  25
ATOM     25  N   UNL     1      -4.991   2.804  25.350  0.00  0.00    -0.303 N 
ATOM     26  C   UNL     1      -5.702   2.654  25.741  0.00  0.00    +0.123 C 
ATOM     27  C   UNL     1      -6.218   3.274  25.912  0.00  0.00    +0.164 C 
ATOM     28  O   UNL     1      -6.024   4.045  25.693  0.00  0.00    -0.350 OA
ATOM     29  C   UNL     1      -5.313   4.196  25.303  0.00  0.00    +0.164 C 
ATOM     30  C   UNL     1      -4.797   3.576  25.131  0.00  0.00    +0.123 C 
ENDBRANCH  22  25
BRANCH   4   3
ATOM      3  C   UNL     1       0.598  -0.582  24.245  0.00  0.00    +0.087 C 
BRANCH   3   2
ATOM      1  O   UNL     1       0.559  -0.546  22.816  0.00  0.00    -0.273 OA
ATOM      2  C   UNL     1       0.969  -0.430  23.523  0.00  0.00    +0.242 C 
ATOM     31  N   UNL     1       1.748  -0.162  23.509  0.00  0.00    -0.201 NA
BRANCH  31  32
ATOM     32  C   UNL     1       2.120  -0.009  22.788  0.00  0.00    +0.142 C 
BRANCH  32  33
ATOM     33  C   UNL     1       2.911   0.222  22.772  0.00  0.00    +0.003 A 
ATOM     34  C   UNL     1       3.508  -0.342  22.852  0.00  0.00    +0.018 A 
ATOM     35  C   UNL     1       4.299  -0.111  22.836  0.00  0.00    +0.099 A 
ATOM     36  N   UNL     1       4.494   0.684  22.741  0.00  0.00    -0.242 NA
ATOM     37  C   UNL     1       3.899   1.249  22.662  0.00  0.00    +0.099 A 
ATOM     38  C   UNL     1       3.107   1.018  22.677  0.00  0.00    +0.018 A 
ENDBRANCH  32  33
ENDBRANCH  31  32
ENDBRANCH   3   2
ENDBRANCH   4   3
TORSDOF 5
ENDMDL
MODEL 4
REMARK VINA RESULT:      -9.0      1.373      6.414
REMARK  Name = 
REMARK  5 active torsions:
REMARK  status: ('A' for Active; 'I' for Inactive)
REMARK    1  A    between atoms: C_2  and  C_3
REMARK    2  A    between atoms: C_3  and  C_4
REMARK    3  A    between atoms: C_22  and  N_25
REMARK    4  A    between atoms: N_31  and  C_32
REMARK    5  A    between atoms: C_32  and  C_33
REMARK                            x       y       z     vdW  Elec       q    Type
REMARK                         _______ _______ _______ _____ _____    ______ ____
ROOT
ATOM      4  C   UNL     1      -4.263   0.568  24.719  0.00  0.00    +0.012 C 
ATOM      5  C   UNL     1      -4.362  -0.075  25.226  0.00  0.00    +0.022 C 
ATOM      6  C   UNL     1      -3.729  -0.583  25.375  0.00  0.00    +0.093 C 
ATOM      7  N   UNL     1      -3.008  -0.509  25.064  0.00  0.00    -0.278 N 
ATOM      8  C   UNL     1      -2.900   0.195  24.509  0.00  0.00    +0.093 C 
ATOM      9  C   UNL     1      -3.326   0.829  24.195  0.00  0.00    +0.021 C 
ATOM     10  C   UNL     1      -2.820   1.256  23.702  0.00  0.00    +0.006 C 
ATOM     11  C   UNL     1      -2.082   0.885  23.712  0.00  0.00    +0.047 C 
ATOM     12  C   UNL     1      -1.256   0.970  23.357  0.00  0.00    +0.205 C 
ATOM     13  O   UNL     1      -0.840   0.706  23.403  0.00  0.00    -0.476 OA
ATOM     14  C   UNL     1      -0.777  -0.190  24.039  0.00  0.00    +0.136 A 
ATOM     15  C   UNL     1      -0.166  -0.718  24.210  0.00  0.00    +0.030 A 
ATOM     16  C   UNL     1      -0.298  -1.351  24.722  0.00  0.00    +0.119 C 
ATOM     17  N   UNL     1      -1.042  -1.457  25.064  0.00  0.00    -0.204 NA
ATOM     18  C   UNL     1      -1.653  -0.930  24.893  0.00  0.00    +0.174 C 
ATOM     19  C   UNL     1      -2.396  -1.036  25.234  0.00  0.00    +0.243 C 
ATOM     20  O   UNL     1      -2.528  -1.669  25.746  0.00  0.00    -0.273 OA
ATOM     21  C   UNL     1       0.577  -0.612  23.869  0.00  0.00    +0.015 A 
ATOM     22  C   UNL     1       0.710   0.021  23.357  0.00  0.00    +0.048 A 
ATOM     23  C   UNL     1       0.098   0.549  23.186  0.00  0.00    +0.018 A 
ATOM     24  C   UNL     1      -0.645   0.443  23.527  0.00  0.00    +0.038 A 
ENDROOT
BRANCH  22  25
ATOM     25  N   UNL     1       1.453   0.128  23.015  0.00  0.00    -0.303 N 
ATOM     26  C   UNL     1       1.646  -0.265  22.315  0.00  0.00    +0.123 C 
ATOM     27  C   UNL     1       2.389  -0.158  21.974  0.00  0.00    +0.164 C 
ATOM     28  O   UNL     1       2.940   0.340  22.332  0.00  0.00    -0.350 OA
ATOM     29  C   UNL     1       2.747   0.733  23.032  0.00  0.00    +0.164 C 
ATOM     30  C   UNL     1       2.004   0.626  23.373  0.00  0.00    +0.123 C 
ENDBRANCH  22  25
BRANCH   4   3
ATOM      3  C   UNL     1      -4.917   1.056  24.592  0.00  0.00    +0.087 C 
BRANCH   3   2
ATOM      1  O   UNL     1      -5.634   1.556  25.723  0.00  0.00    -0.273 OA
ATOM      2  C   UNL     1      -5.082   1.669  25.120  0.00  0.00    +0.242 C 
ATOM     31  N   UNL     1      -4.696   2.393  25.044  0.00  0.00    -0.201 NA
BRANCH  31  32
ATOM     32  C   UNL     1      -4.860   3.007  25.572  0.00  0.00    +0.142 C 
BRANCH  32  33
ATOM     33  C   UNL     1      -4.310   3.609  25.688  0.00  0.00    +0.003 A 
ATOM     34  C   UNL     1      -3.854   3.624  26.377  0.00  0.00    +0.018 A 
ATOM     35  C   UNL     1      -3.304   4.227  26.493  0.00  0.00    +0.099 A 
ATOM     36  N   UNL     1      -3.208   4.814  25.923  0.00  0.00    -0.242 NA
ATOM     37  C   UNL     1      -3.663   4.800  25.235  0.00  0.00    +0.099 A 
ATOM     38  C   UNL     1      -4.214   4.197  25.118  0.00  0.00    +0.018 A 
ENDBRANCH  32  33
ENDBRANCH  31  32
ENDBRANCH   3   2
ENDBRANCH   4   3
TORSDOF 5
ENDMDL
MODEL 5
REMARK VINA RESULT:      -7.4     16.463     17.139
REMARK  Name = 
REMARK  5 active torsions:
REMARK  status: ('A' for Active; 'I' for Inactive)
REMARK    1  A    between atoms: C_2  and  C_3
REMARK    2  A    between atoms: C_3  and  C_4
REMARK    3  A    between atoms: C_22  and  N_25
REMARK    4  A    between atoms: N_31  and  C_32
REMARK    5  A    between atoms: C_32  and  C_33
REMARK                            x       y       z     vdW  Elec       q    Type
REMARK                         _______ _______ _______ _____ _____    ______ ____
ROOT
ATOM      4  C   UNL     1      -5.491  -8.740  10.066  0.00  0.00    +0.012 C 
ATOM      5  C   UNL     1      -5.878  -8.888   9.353  0.00  0.00    +0.022 C 
ATOM      6  C   UNL     1      -6.663  -9.142   9.356  0.00  0.00    +0.093 C 
ATOM      7  N   UNL     1      -7.097  -9.260  10.004  0.00  0.00    -0.278 N 
ATOM      8  C   UNL     1      -6.674  -9.097  10.784  0.00  0.00    +0.093 C 
ATOM      9  C   UNL     1      -5.939  -8.850  11.070  0.00  0.00    +0.021 C 
ATOM     10  C   UNL     1      -5.979  -8.835  11.895  0.00  0.00    +0.006 C 
ATOM     11  C   UNL     1      -6.738  -9.072  12.116  0.00  0.00    +0.047 C 
ATOM     12  C   UNL     1      -7.235  -9.207  12.858  0.00  0.00    +0.205 C 
ATOM     13  O   UNL     1      -7.703  -9.356  12.929  0.00  0.00    -0.476 OA
ATOM     14  C   UNL     1      -8.376  -9.601  12.095  0.00  0.00    +0.136 A 
ATOM     15  C   UNL     1      -9.161  -9.855  12.061  0.00  0.00    +0.030 A 
ATOM     16  C   UNL     1      -9.519  -9.996  11.332  0.00  0.00    +0.119 C 
ATOM     17  N   UNL     1      -9.092  -9.882  10.634  0.00  0.00    -0.204 NA
ATOM     18  C   UNL     1      -8.308  -9.627  10.668  0.00  0.00    +0.174 C 
ATOM     19  C   UNL     1      -7.881  -9.514   9.971  0.00  0.00    +0.243 C 
ATOM     20  O   UNL     1      -8.239  -9.654   9.241  0.00  0.00    -0.273 OA
ATOM     21  C   UNL     1      -9.588  -9.969  12.758  0.00  0.00    +0.015 A 
ATOM     22  C   UNL     1      -9.230  -9.829  13.488  0.00  0.00    +0.048 A 
ATOM     23  C   UNL     1      -8.445  -9.575  13.522  0.00  0.00    +0.018 A 
ATOM     24  C   UNL     1      -8.019  -9.461  12.825  0.00  0.00    +0.038 A 
ENDROOT
BRANCH  22  25
ATOM     25  N   UNL     1      -9.657  -9.943  14.185  0.00  0.00    -0.303 N 
ATOM     26  C   UNL     1     -10.149  -9.346  14.471  0.00  0.00    +0.123 C 
ATOM     27  C   UNL     1     -10.575  -9.459  15.168  0.00  0.00    +0.164 C 
ATOM     28  O   UNL     1     -10.510 -10.171  15.580  0.00  0.00    -0.350 OA
ATOM     29  C   UNL     1     -10.018 -10.769  15.294  0.00  0.00    +0.164 C 
ATOM     30  C   UNL     1      -9.591 -10.655  14.597  0.00  0.00    +0.123 C 
ENDBRANCH  22  25
BRANCH   4   3
ATOM      3  C   UNL     1      -4.706  -8.488  10.027  0.00  0.00    +0.087 C 
BRANCH   3   2
ATOM      1  O   UNL     1      -4.104  -9.525   9.248  0.00  0.00    -0.273 OA
ATOM      2  C   UNL     1      -4.101  -9.039   9.915  0.00  0.00    +0.242 C 
ATOM     31  N   UNL     1      -3.495  -9.103  10.470  0.00  0.00    -0.201 NA
BRANCH  31  32
ATOM     32  C   UNL     1      -2.890  -9.654  10.359  0.00  0.00    +0.142 C 
BRANCH  32  33
ATOM     33  C   UNL     1      -2.325  -9.771  10.948  0.00  0.00    +0.003 A 
ATOM     34  C   UNL     1      -2.429 -10.370  11.506  0.00  0.00    +0.018 A 
ATOM     35  C   UNL     1      -1.864 -10.487  12.095  0.00  0.00    +0.099 A 
ATOM     36  N   UNL     1      -1.196 -10.006  12.128  0.00  0.00    -0.242 NA
ATOM     37  C   UNL     1      -1.091  -9.407  11.570  0.00  0.00    +0.099 A 
ATOM     38  C   UNL     1      -1.656  -9.289  10.980  0.00  0.00    +0.018 A 
ENDBRANCH  32  33
ENDBRANCH  31  32
ENDBRANCH   3   2
ENDBRANCH   4   3
TORSDOF 5
ENDMDL
MODEL 6
REMARK VINA RESULT:      -7.4     17.673     19.082
REMARK  Name = 
REMARK  5 active torsions:
REMARK  status: ('A' for Active; 'I' for Inactive)
REMARK    1  A    between atoms: C_2  and  C_3
REMARK    2  A    between atoms: C_3  and  C_4
REMARK    3  A    between atoms: C_22  and  N_25
REMARK    4  A    between atoms: N_31  and  C_32
REMARK    5  A    between atoms: C_32  and  C_33
REMARK                            x       y       z     vdW  Elec       q    Type
REMARK                         _______ _______ _______ _____ _____    ______ ____
ROOT
ATOM      4  C   UNL     1      17.178  -6.013  25.003  0.00  0.00    +0.012 C 
ATOM      5  C   UNL     1      17.292  -6.651  24.494  0.00  0.00    +0.022 C 
ATOM      6  C   UNL     1      17.076  -7.411  24.732  0.00  0.00    +0.093 C 
ATOM      7  N   UNL     1      16.757  -7.592  25.430  0.00  0.00    -0.278 N 
ATOM      8  C   UNL     1      16.631  -6.893  25.987  0.00  0.00    +0.093 C 
ATOM      9  C   UNL     1      16.744  -6.075  26.018  0.00  0.00    +0.021 C 
ATOM     10  C   UNL     1      16.478  -5.809  26.752  0.00  0.00    +0.006 C 
ATOM     11  C   UNL     1      16.201  -6.461  27.174  0.00  0.00    +0.047 C 
ATOM     12  C   UNL     1      15.835  -6.669  27.974  0.00  0.00    +0.205 C 
ATOM     13  O   UNL     1      15.685  -7.096  28.176  0.00  0.00    -0.476 OA
ATOM     14  C   UNL     1      15.759  -8.057  27.647  0.00  0.00    +0.136 A 
ATOM     15  C   UNL     1      15.554  -8.830  27.853  0.00  0.00    +0.030 A 
ATOM     16  C   UNL     1      15.682  -9.447  27.321  0.00  0.00    +0.119 C 
ATOM     17  N   UNL     1      16.015  -9.292  26.581  0.00  0.00    -0.204 NA
ATOM     18  C   UNL     1      16.219  -8.519  26.375  0.00  0.00    +0.174 C 
ATOM     19  C   UNL     1      16.552  -8.364  25.637  0.00  0.00    +0.243 C 
ATOM     20  O   UNL     1      16.680  -8.981  25.105  0.00  0.00    -0.273 OA
ATOM     21  C   UNL     1      15.221  -8.986  28.592  0.00  0.00    +0.015 A 
ATOM     22  C   UNL     1      15.093  -8.369  29.125  0.00  0.00    +0.048 A 
ATOM     23  C   UNL     1      15.298  -7.596  28.919  0.00  0.00    +0.018 A 
ATOM     24  C   UNL     1      15.631  -7.441  28.180  0.00  0.00    +0.038 A 
ENDROOT
BRANCH  22  25
ATOM     25  N   UNL     1      14.761  -8.524  29.863  0.00  0.00    -0.303 N 
ATOM     26  C   UNL     1      13.941  -8.562  29.947  0.00  0.00    +0.123 C 
ATOM     27  C   UNL     1      13.608  -8.717  30.686  0.00  0.00    +0.164 C 
ATOM     28  O   UNL     1      14.095  -8.834  31.341  0.00  0.00    -0.350 OA
ATOM     29  C   UNL     1      14.915  -8.796  31.257  0.00  0.00    +0.164 C 
ATOM     30  C   UNL     1      15.248  -8.641  30.519  0.00  0.00    +0.123 C 
ENDBRANCH  22  25
BRANCH   4   3
ATOM      3  C   UNL     1      17.405  -5.266  24.733  0.00  0.00    +0.087 C 
BRANCH   3   2
ATOM      1  O   UNL     1      17.030  -5.531  23.379  0.00  0.00    -0.273 OA
ATOM      2  C   UNL     1      17.144  -4.996  23.998  0.00  0.00    +0.242 C 
ATOM     31  N   UNL     1      16.997  -4.194  23.882  0.00  0.00    -0.201 NA
BRANCH  31  32
ATOM     32  C   UNL     1      16.736  -3.923  23.147  0.00  0.00    +0.142 C 
BRANCH  32  33
ATOM     33  C   UNL     1      16.682  -3.114  23.001  0.00  0.00    +0.003 A 
ATOM     34  C   UNL     1      15.956  -2.727  23.078  0.00  0.00    +0.018 A 
ATOM     35  C   UNL     1      15.903  -1.918  22.931  0.00  0.00    +0.099 A 
ATOM     36  N   UNL     1      16.573  -1.493  22.709  0.00  0.00    -0.242 NA
ATOM     37  C   UNL     1      17.299  -1.878  22.632  0.00  0.00    +0.099 A 
ATOM     38  C   UNL     1      17.353  -2.688  22.778  0.00  0.00    +0.018 A 
ENDBRANCH  32  33
ENDBRANCH  31  32
ENDBRANCH   3   2
ENDBRANCH   4   3
TORSDOF 5
ENDMDL
