MODEL 1
REMARK VINA RESULT:     -10.4      0.000      0.000
REMARK  Name = 
REMARK  6 active torsions:
REMARK  status: ('A' for Active; 'I' for Inactive)
REMARK    1  A    between atoms: C_2  and  C_3
REMARK    2  A    between atoms: C_5  and  C_6
REMARK    3  A    between atoms: C_6  and  C_7
REMARK    4  A    between atoms: C_10  and  C_11
REMARK    5  A    between atoms: C_11  and  O_12
REMARK    6  A    between atoms: O_12  and  C_13
REMARK                            x       y       z     vdW  Elec       q    Type
REMARK                         _______ _______ _______ _____ _____    ______ ____
ROOT
ATOM      7  C   UNL     1      -4.215   2.156  24.591  0.00  0.00    +0.103 A 
ATOM      8  N   UNL     1      -4.687   2.074  25.262  0.00  0.00    -0.082 NA
ATOM      9  O   UNL     1      -4.836   1.271  25.372  0.00  0.00    -0.354 OA
ATOM     10  C   UNL     1      -4.456   0.856  24.769  0.00  0.00    +0.198 A 
ATOM     19  C   UNL     1      -4.072   1.403  24.286  0.00  0.00    +0.057 A 
ENDROOT
BRANCH   7   6
ATOM      6  C   UNL     1      -3.934   2.867  24.279  0.00  0.00    +0.079 C 
BRANCH   6   5
ATOM      3  C   UNL     1      -1.906   3.458  24.824  0.00  0.00    +0.164 C 
ATOM      4  O   UNL     1      -2.530   3.065  24.457  0.00  0.00    -0.354 OA
ATOM      5  C   UNL     1      -3.310   3.260  24.646  0.00  0.00    +0.121 C 
ATOM     20  C   UNL     1      -3.464   3.849  25.204  0.00  0.00    +0.033 C 
ATOM     21  C   UNL     1      -2.838   4.243  25.571  0.00  0.00    +0.038 C 
ATOM     22  C   UNL     1      -2.060   4.048  25.382  0.00  0.00    +0.180 C 
ATOM     23  O   UNL     1      -1.434   4.441  25.749  0.00  0.00    -0.220 OA
BRANCH   3   2
ATOM      1  N   UNL     1      -0.963   2.828  23.954  0.00  0.00    -0.129 NA
ATOM      2  C   UNL     1      -1.127   3.263  24.635  0.00  0.00    +0.141 C 
ENDBRANCH   3   2
ENDBRANCH   6   5
ENDBRANCH   7   6
BRANCH  10  11
ATOM     11  C   UNL     1      -4.460   0.037  24.667  0.00  0.00    +0.272 C 
BRANCH  11  12
ATOM     12  O   UNL     1      -3.748  -0.381  24.654  0.00  0.00    -0.467 OA
BRANCH  12  13
ATOM     13  C   UNL     1      -3.754  -1.202  24.578  0.00  0.00    +0.139 A 
ATOM     14  C   UNL     1      -4.113  -1.553  23.923  0.00  0.00    +0.037 A 
ATOM     15  C   UNL     1      -4.119  -2.374  23.847  0.00  0.00    +0.003 A 
ATOM     16  C   UNL     1      -3.765  -2.845  24.426  0.00  0.00    +0.000 A 
ATOM     17  C   UNL     1      -3.406  -2.493  25.080  0.00  0.00    +0.003 A 
ATOM     18  C   UNL     1      -3.401  -1.672  25.156  0.00  0.00    +0.037 A 
ENDBRANCH  12  13
ENDBRANCH  11  12
ENDBRANCH  10  11
TORSDOF 6
ENDMDL
MODEL 2
REMARK VINA RESULT:     -10.3      1.173      1.359
REMARK  Name = 
REMARK  6 active torsions:
REMARK  status: ('A' for Active; 'I' for Inactive)
REMARK    1  A    between atoms: C_2  and  C_3
REMARK    2  A    between atoms: C_5  and  C_6
REMARK    3  A    between atoms: C_6  and  C_7
REMARK    4  A    between atoms: C_10  and  C_11
REMARK    5  A    between atoms: C_11  and  O_12
REMARK    6  A    between atoms: O_12  and  C_13
REMARK                            x       y       z     vdW  Elec       q    Type
REMARK                         _______ _______ _______ _____ _____    ______ ____
ROOT
ATOM      7  C   UNL     1      -3.366   2.202  23.665  0.00  0.00    +0.103 A 
ATOM      8  N   UNL     1      -2.639   1.985  23.341  0.00  0.00    -0.082 NA
ATOM      9  O   UNL     1      -2.614   1.162  23.301  0.00  0.00    -0.354 OA
ATOM     10  C   UNL     1      -3.325   0.870  23.599  0.00  0.00    +0.198 A 
ATOM     19  C   UNL     1      -3.790   1.512  23.824  0.00  0.00    +0.057 A 
ENDROOT
BRANCH   7   6
ATOM      6  C   UNL     1      -3.623   2.973  23.805  0.00  0.00    +0.079 C 
BRANCH   6   5
ATOM      3  C   UNL     1      -2.629   4.024  25.438  0.00  0.00    +0.164 C 
ATOM      4  O   UNL     1      -2.761   3.672  24.705  0.00  0.00    -0.354 OA
ATOM      5  C   UNL     1      -3.491   3.325  24.538  0.00  0.00    +0.121 C 
ATOM     20  C   UNL     1      -4.090   3.330  25.107  0.00  0.00    +0.033 C 
ATOM     21  C   UNL     1      -3.957   3.683  25.842  0.00  0.00    +0.038 C 
ATOM     22  C   UNL     1      -3.228   4.029  26.007  0.00  0.00    +0.180 C 
ATOM     23  O   UNL     1      -3.095   4.382  26.742  0.00  0.00    -0.220 OA
BRANCH   3   2
ATOM      1  N   UNL     1      -1.564   4.903  25.071  0.00  0.00    -0.129 NA
ATOM      2  C   UNL     1      -1.899   4.372  25.605  0.00  0.00    +0.141 C 
ENDBRANCH   3   2
ENDBRANCH   6   5
ENDBRANCH   7   6
BRANCH  10  11
ATOM     11  C   UNL     1      -3.535   0.074  23.662  0.00  0.00    +0.272 C 
BRANCH  11  12
ATOM     12  O   UNL     1      -3.526  -0.299  24.398  0.00  0.00    -0.467 OA
BRANCH  12  13
ATOM     13  C   UNL     1      -3.597  -1.119  24.446  0.00  0.00    +0.139 A 
ATOM     14  C   UNL     1      -4.084  -1.523  23.916  0.00  0.00    +0.037 A 
ATOM     15  C   UNL     1      -4.154  -2.343  23.963  0.00  0.00    +0.003 A 
ATOM     16  C   UNL     1      -3.737  -2.761  24.541  0.00  0.00    +0.000 A 
ATOM     17  C   UNL     1      -3.250  -2.357  25.070  0.00  0.00    +0.003 A 
ATOM     18  C   UNL     1      -3.180  -1.536  25.022  0.00  0.00    +0.037 A 
ENDBRANCH  12  13
ENDBRANCH  11  12
ENDBRANCH  10  11
TORSDOF 6
ENDMDL
MODEL 3
REMARK VINA RESULT:     -10.2      1.507      2.337
REMARK  Name = 
REMARK  6 active torsions:
REMARK  status: ('A' for Active; 'I' for Inactive)
REMARK    1  A    between atoms: C_2  and  C_3
REMARK    2  A    between atoms: C_5  and  C_6
REMARK    3  A    between atoms: C_6  and  C_7
REMARK    4  A    between atoms: C_10  and  C_11
REMARK    5  A    between atoms: C_11  and  O_12
REMARK    6  A    between atoms: O_12  and  C_13
REMARK                            x       y       z     vdW  Elec       q    Type
REMARK                         _______ _______ _______ _____ _____    ______ ____
ROOT
ATOM      7  C   UNL     1      -1.049   1.493  25.173  0.00  0.00    +0.103 A 
ATOM      8  N   UNL     1      -0.937   1.479  24.356  0.00  0.00    -0.082 NA
ATOM      9  O   UNL     1      -1.268   0.782  24.065  0.00  0.00    -0.354 OA
ATOM     10  C   UNL     1      -1.586   0.366  24.703  0.00  0.00    +0.198 A 
ATOM     19  C   UNL     1      -1.450   0.804  25.387  0.00  0.00    +0.057 A 
ENDROOT
BRANCH   7   6
ATOM      6  C   UNL     1      -0.803   2.090  25.686  0.00  0.00    +0.079 C 
BRANCH   6   5
ATOM      3  C   UNL     1      -2.033   3.893  25.701  0.00  0.00    +0.164 C 
ATOM      4  O   UNL     1      -1.789   3.115  25.826  0.00  0.00    -0.354 OA
ATOM      5  C   UNL     1      -1.048   2.868  25.561  0.00  0.00    +0.121 C 
ATOM     20  C   UNL     1      -0.551   3.399  25.170  0.00  0.00    +0.033 C 
ATOM     21  C   UNL     1      -0.796   4.177  25.045  0.00  0.00    +0.038 C 
ATOM     22  C   UNL     1      -1.536   4.424  25.310  0.00  0.00    +0.180 C 
ATOM     23  O   UNL     1      -1.782   5.202  25.185  0.00  0.00    -0.220 OA
BRANCH   3   2
ATOM      1  N   UNL     1      -3.448   3.704  25.777  0.00  0.00    -0.129 NA
ATOM      2  C   UNL     1      -2.774   4.140  25.966  0.00  0.00    +0.141 C 
ENDBRANCH   3   2
ENDBRANCH   6   5
ENDBRANCH   7   6
BRANCH  10  11
ATOM     11  C   UNL     1      -1.972  -0.363  24.662  0.00  0.00    +0.272 C 
BRANCH  11  12
ATOM     12  O   UNL     1      -2.792  -0.401  24.745  0.00  0.00    -0.467 OA
BRANCH  12  13
ATOM     13  C   UNL     1      -3.190  -1.105  24.585  0.00  0.00    +0.139 A 
ATOM     14  C   UNL     1      -2.962  -1.803  24.964  0.00  0.00    +0.037 A 
ATOM     15  C   UNL     1      -3.360  -2.507  24.804  0.00  0.00    +0.003 A 
ATOM     16  C   UNL     1      -3.986  -2.515  24.266  0.00  0.00    +0.000 A 
ATOM     17  C   UNL     1      -4.213  -1.818  23.888  0.00  0.00    +0.003 A 
ATOM     18  C   UNL     1      -3.815  -1.113  24.048  0.00  0.00    +0.037 A 
ENDBRANCH  12  13
ENDBRANCH  11  12
ENDBRANCH  10  11
TORSDOF 6
ENDMDL
MODEL 4
REMARK VINA RESULT:     -10.0      1.397      5.071
REMARK  Name = 
REMARK  6 active torsions:
REMARK  status: ('A' for Active; 'I' for Inactive)
REMARK    1  A    between atoms: C_2  and  C_3
REMARK    2  A    between atoms: C_5  and  C_6
REMARK    3  A    between atoms: C_6  and  C_7
REMARK    4  A    between atoms: C_10  and  C_11
REMARK    5  A    between atoms: C_11  and  O_12
REMARK    6  A    between atoms: O_12  and  C_13
REMARK                            x       y       z     vdW  Elec       q    Type
REMARK                         _______ _______ _______ _____ _____    ______ ____
ROOT
ATOM      7  C   UNL     1      -3.622   0.758  24.089  0.00  0.00    +0.103 A 
ATOM      8  N   UNL     1      -4.063   0.928  24.765  0.00  0.00    -0.082 NA
ATOM      9  O   UNL     1      -3.858   1.685  25.019  0.00  0.00    -0.354 OA
ATOM     10  C   UNL     1      -3.290   1.984  24.500  0.00  0.00    +0.198 A 
ATOM     19  C   UNL     1      -3.144   1.411  23.925  0.00  0.00    +0.057 A 
ENDROOT
BRANCH   7   6
ATOM      6  C   UNL     1      -3.652   0.058  23.653  0.00  0.00    +0.079 C 
BRANCH   6   5
ATOM      3  C   UNL     1      -2.705  -1.667  24.596  0.00  0.00    +0.164 C 
ATOM      4  O   UNL     1      -2.801  -0.941  24.217  0.00  0.00    -0.354 OA
ATOM      5  C   UNL     1      -3.557  -0.668  24.032  0.00  0.00    +0.121 C 
ATOM     20  C   UNL     1      -4.219  -1.122  24.226  0.00  0.00    +0.033 C 
ATOM     21  C   UNL     1      -4.123  -1.848  24.605  0.00  0.00    +0.038 C 
ATOM     22  C   UNL     1      -3.367  -2.121  24.790  0.00  0.00    +0.180 C 
ATOM     23  O   UNL     1      -3.272  -2.848  25.169  0.00  0.00    -0.220 OA
BRANCH   3   2
ATOM      1  N   UNL     1      -1.286  -1.502  24.562  0.00  0.00    -0.129 NA
ATOM      2  C   UNL     1      -1.949  -1.941  24.781  0.00  0.00    +0.141 C 
ENDBRANCH   3   2
ENDBRANCH   6   5
ENDBRANCH   7   6
BRANCH  10  11
ATOM     11  C   UNL     1      -2.932   2.726  24.548  0.00  0.00    +0.272 C 
BRANCH  11  12
ATOM     12  O   UNL     1      -2.365   2.873  25.129  0.00  0.00    -0.467 OA
BRANCH  12  13
ATOM     13  C   UNL     1      -1.941   3.581  25.121  0.00  0.00    +0.139 A 
ATOM     14  C   UNL     1      -2.312   4.286  25.338  0.00  0.00    +0.037 A 
ATOM     15  C   UNL     1      -1.888   4.993  25.330  0.00  0.00    +0.003 A 
ATOM     16  C   UNL     1      -1.094   4.996  25.105  0.00  0.00    +0.000 A 
ATOM     17  C   UNL     1      -0.724   4.291  24.888  0.00  0.00    +0.003 A 
ATOM     18  C   UNL     1      -1.148   3.584  24.896  0.00  0.00    +0.037 A 
ENDBRANCH  12  13
ENDBRANCH  11  12
ENDBRANCH  10  11
TORSDOF 6
ENDMDL
MODEL 5
REMARK VINA RESULT:      -9.7      1.903      5.600
REMARK  Name = 
REMARK  6 active torsions:
REMARK  status: ('A' for Active; 'I' for Inactive)
REMARK    1  A    between atoms: C_2  and  C_3
REMARK    2  A    between atoms: C_5  and  C_6
REMARK    3  A    between atoms: C_6  and  C_7
REMARK    4  A    between atoms: C_10  and  C_11
REMARK    5  A    between atoms: C_11  and  O_12
REMARK    6  A    between atoms: O_12  and  C_13
REMARK                            x       y       z     vdW  Elec       q    Type
REMARK                         _______ _______ _______ _____ _____    ______ ____
ROOT
ATOM      7  C   UNL     1      -0.803  -0.013  25.109  0.00  0.00    +0.103 A 
ATOM      8  N   UNL     1      -0.570   0.133  24.332  0.00  0.00    -0.082 NA
ATOM      9  O   UNL     1      -0.523   0.949  24.228  0.00  0.00    -0.354 OA
ATOM     10  C   UNL     1      -0.727   1.309  24.942  0.00  0.00    +0.198 A 
ATOM     19  C   UNL     1      -0.900   0.715  25.487  0.00  0.00    +0.057 A 
ENDROOT
BRANCH   7   6
ATOM      6  C   UNL     1      -0.919  -0.755  25.450  0.00  0.00    +0.079 C 
BRANCH   6   5
ATOM      3  C   UNL     1      -2.905  -1.609  25.154  0.00  0.00    +0.164 C 
ATOM      4  O   UNL     1      -2.300  -1.120  25.427  0.00  0.00    -0.354 OA
ATOM      5  C   UNL     1      -1.524  -1.244  25.177  0.00  0.00    +0.121 C 
ATOM     20  C   UNL     1      -1.353  -1.859  24.652  0.00  0.00    +0.033 C 
ATOM     21  C   UNL     1      -1.959  -2.348  24.379  0.00  0.00    +0.038 C 
ATOM     22  C   UNL     1      -2.734  -2.224  24.630  0.00  0.00    +0.180 C 
ATOM     23  O   UNL     1      -3.340  -2.713  24.357  0.00  0.00    -0.220 OA
BRANCH   3   2
ATOM      1  N   UNL     1      -3.997  -0.723  25.409  0.00  0.00    -0.129 NA
ATOM      2  C   UNL     1      -3.682  -1.485  25.405  0.00  0.00    +0.141 C 
ENDBRANCH   3   2
ENDBRANCH   6   5
ENDBRANCH   7   6
BRANCH  10  11
ATOM     11  C   UNL     1      -0.753   2.121  25.086  0.00  0.00    +0.272 C 
BRANCH  11  12
ATOM     12  O   UNL     1      -1.341   2.584  24.737  0.00  0.00    -0.467 OA
BRANCH  12  13
ATOM     13  C   UNL     1      -1.394   3.387  24.915  0.00  0.00    +0.139 A 
ATOM     14  C   UNL     1      -2.060   3.680  25.306  0.00  0.00    +0.037 A 
ATOM     15  C   UNL     1      -2.112   4.483  25.484  0.00  0.00    +0.003 A 
ATOM     16  C   UNL     1      -1.500   4.995  25.273  0.00  0.00    +0.000 A 
ATOM     17  C   UNL     1      -0.835   4.701  24.882  0.00  0.00    +0.003 A 
ATOM     18  C   UNL     1      -0.782   3.898  24.704  0.00  0.00    +0.037 A 
ENDBRANCH  12  13
ENDBRANCH  11  12
ENDBRANCH  10  11
TORSDOF 6
ENDMDL
MODEL 6
REMARK VINA RESULT:      -8.1     15.952     18.692
REMARK  Name = 
REMARK  6 active torsions:
REMARK  status: ('A' for Active; 'I' for Inactive)
REMARK    1  A    between atoms: C_2  and  C_3
REMARK    2  A    between atoms: C_5  and  C_6
REMARK    3  A    between atoms: C_6  and  C_7
REMARK    4  A    between atoms: C_10  and  C_11
REMARK    5  A    between atoms: C_11  and  O_12
REMARK    6  A    between atoms: O_12  and  C_13
REMARK                            x       y       z     vdW  Elec       q    Type
REMARK                         _______ _______ _______ _____ _____    ______ ____
ROOT
ATOM      7  C   UNL     1      12.691   7.905  19.335  0.00  0.00    +0.103 A 
ATOM      8  N   UNL     1      13.076   8.629  19.423  0.00  0.00    -0.082 NA
ATOM      9  O   UNL     1      13.886   8.499  19.342  0.00  0.00    -0.354 OA
ATOM     10  C   UNL     1      14.002   7.694  19.203  0.00  0.00    +0.198 A 
ATOM     19  C   UNL     1      13.264   7.327  19.199  0.00  0.00    +0.057 A 
ENDROOT
BRANCH   7   6
ATOM      6  C   UNL     1      11.876   7.781  19.376  0.00  0.00    +0.079 C 
BRANCH   6   5
ATOM      3  C   UNL     1      11.072   7.063  21.273  0.00  0.00    +0.164 C 
ATOM      4  O   UNL     1      11.451   7.072  20.541  0.00  0.00    -0.354 OA
ATOM      5  C   UNL     1      11.497   7.772  20.107  0.00  0.00    +0.121 C 
ATOM     20  C   UNL     1      11.162   8.465  20.407  0.00  0.00    +0.033 C 
ATOM     21  C   UNL     1      10.782   8.456  21.140  0.00  0.00    +0.038 C 
ATOM     22  C   UNL     1      10.737   7.756  21.573  0.00  0.00    +0.180 C 
ATOM     23  O   UNL     1      10.357   7.747  22.305  0.00  0.00    -0.220 OA
BRANCH   3   2
ATOM      1  N   UNL     1      11.068   5.635  21.321  0.00  0.00    -0.129 NA
ATOM      2  C   UNL     1      11.026   6.362  21.707  0.00  0.00    +0.141 C 
ENDBRANCH   3   2
ENDBRANCH   6   5
ENDBRANCH   7   6
BRANCH  10  11
ATOM     11  C   UNL     1      14.729   7.321  19.089  0.00  0.00    +0.272 C 
BRANCH  11  12
ATOM     12  O   UNL     1      15.021   6.800  19.659  0.00  0.00    -0.467 OA
BRANCH  12  13
ATOM     13  C   UNL     1      15.815   6.579  19.648  0.00  0.00    +0.139 A 
ATOM     14  C   UNL     1      16.141   6.249  18.965  0.00  0.00    +0.037 A 
ATOM     15  C   UNL     1      16.936   6.028  18.954  0.00  0.00    +0.003 A 
ATOM     16  C   UNL     1      17.405   6.137  19.624  0.00  0.00    +0.000 A 
ATOM     17  C   UNL     1      17.078   6.467  20.306  0.00  0.00    +0.003 A 
ATOM     18  C   UNL     1      16.283   6.688  20.318  0.00  0.00    +0.037 A 
ENDBRANCH  12  13
ENDBRANCH  11  12
ENDBRANCH  10  11
TORSDOF 6
ENDMDL
MODEL 7
REMARK VINA RESULT:      -7.5     17.840     19.434
REMARK  Name = 
REMARK  6 active torsions:
REMARK  status: ('A' for Active; 'I' for Inactive)
REMARK    1  A    between atoms: C_2  and  C_3
REMARK    2  A    between atoms: C_5  and  C_6
REMARK    3  A    between atoms: C_6  and  C_7
REMARK    4  A    between atoms: C_10  and  C_11
REMARK    5  A    between atoms: C_11  and  O_12
REMARK    6  A    between atoms: O_12  and  C_13
REMARK                            x       y       z     vdW  Elec       q    Type
REMARK                         _______ _______ _______ _____ _____    ______ ____
ROOT
ATOM      7  C   UNL     1      12.729   8.038  18.708  0.00  0.00    +0.103 A 
ATOM      8  N   UNL     1      12.521   7.251  18.842  0.00  0.00    -0.082 NA
ATOM      9  O   UNL     1      13.210   6.832  19.014  0.00  0.00    -0.354 OA
ATOM     10  C   UNL     1      13.844   7.360  18.986  0.00  0.00    +0.198 A 
ATOM     19  C   UNL     1      13.547   8.105  18.797  0.00  0.00    +0.057 A 
ENDROOT
BRANCH   7   6
ATOM      6  C   UNL     1      12.210   8.651  18.518  0.00  0.00    +0.079 C 
BRANCH   6   5
ATOM      3  C   UNL     1      11.832   8.870  16.380  0.00  0.00    +0.164 C 
ATOM      4  O   UNL     1      12.222   8.870  17.106  0.00  0.00    -0.354 OA
ATOM      5  C   UNL     1      11.820   8.651  17.792  0.00  0.00    +0.121 C 
ATOM     20  C   UNL     1      11.025   8.430  17.751  0.00  0.00    +0.033 C 
ATOM     21  C   UNL     1      10.634   8.430  17.024  0.00  0.00    +0.038 C 
ATOM     22  C   UNL     1      11.037   8.649  16.339  0.00  0.00    +0.180 C 
ATOM     23  O   UNL     1      10.646   8.649  15.612  0.00  0.00    -0.220 OA
BRANCH   3   2
ATOM      1  N   UNL     1      12.931   8.703  15.483  0.00  0.00    -0.129 NA
ATOM      2  C   UNL     1      12.234   9.090  15.694  0.00  0.00    +0.141 C 
ENDBRANCH   3   2
ENDBRANCH   6   5
ENDBRANCH   7   6
BRANCH  10  11
ATOM     11  C   UNL     1      14.636   7.173  19.123  0.00  0.00    +0.272 C 
BRANCH  11  12
ATOM     12  O   UNL     1      14.836   6.628  19.710  0.00  0.00    -0.467 OA
BRANCH  12  13
ATOM     13  C   UNL     1      15.624   6.539  19.938  0.00  0.00    +0.139 A 
ATOM     14  C   UNL     1      16.211   6.443  19.365  0.00  0.00    +0.037 A 
ATOM     15  C   UNL     1      16.998   6.355  19.593  0.00  0.00    +0.003 A 
ATOM     16  C   UNL     1      17.200   6.361  20.393  0.00  0.00    +0.000 A 
ATOM     17  C   UNL     1      16.613   6.457  20.965  0.00  0.00    +0.003 A 
ATOM     18  C   UNL     1      15.825   6.546  20.737  0.00  0.00    +0.037 A 
ENDBRANCH  12  13
ENDBRANCH  11  12
ENDBRANCH  10  11
TORSDOF 6
ENDMDL
MODEL 8
REMARK VINA RESULT:      -6.9     16.509     19.185
REMARK  Name = 
REMARK  6 active torsions:
REMARK  status: ('A' for Active; 'I' for Inactive)
REMARK    1  A    between atoms: C_2  and  C_3
REMARK    2  A    between atoms: C_5  and  C_6
REMARK    3  A    between atoms: C_6  and  C_7
REMARK    4  A    between atoms: C_10  and  C_11
REMARK    5  A    between atoms: C_11  and  O_12
REMARK    6  A    between atoms: O_12  and  C_13
REMARK                            x       y       z     vdW  Elec       q    Type
REMARK                         _______ _______ _______ _____ _____    ______ ____
ROOT
ATOM      7  C   UNL     1      14.129   7.597  19.102  0.00  0.00    +0.103 A 
ATOM      8  N   UNL     1      13.699   7.021  18.697  0.00  0.00    -0.082 NA
ATOM      9  O   UNL     1      12.950   6.976  19.038  0.00  0.00    -0.354 OA
ATOM     10  C   UNL     1      12.916   7.524  19.654  0.00  0.00    +0.198 A 
ATOM     19  C   UNL     1      13.644   7.908  19.694  0.00  0.00    +0.057 A 
ENDROOT
BRANCH   7   6
ATOM      6  C   UNL     1      14.907   7.822  18.944  0.00  0.00    +0.079 C 
BRANCH   6   5
ATOM      3  C   UNL     1      16.506   6.407  19.390  0.00  0.00    +0.164 C 
ATOM      4  O   UNL     1      15.882   6.780  19.002  0.00  0.00    -0.354 OA
ATOM      5  C   UNL     1      15.531   7.449  19.333  0.00  0.00    +0.121 C 
ATOM     20  C   UNL     1      15.805   7.746  20.053  0.00  0.00    +0.033 C 
ATOM     21  C   UNL     1      16.430   7.372  20.442  0.00  0.00    +0.038 C 
ATOM     22  C   UNL     1      16.781   6.703  20.111  0.00  0.00    +0.180 C 
ATOM     23  O   UNL     1      17.405   6.330  20.499  0.00  0.00    -0.220 OA
BRANCH   3   2
ATOM      1  N   UNL     1      16.857   5.632  18.242  0.00  0.00    -0.129 NA
ATOM      2  C   UNL     1      16.858   5.738  19.060  0.00  0.00    +0.141 C 
ENDBRANCH   3   2
ENDBRANCH   6   5
ENDBRANCH   7   6
BRANCH  10  11
ATOM     11  C   UNL     1      12.266   7.663  20.143  0.00  0.00    +0.272 C 
BRANCH  11  12
ATOM     12  O   UNL     1      12.324   7.524  20.955  0.00  0.00    -0.467 OA
BRANCH  12  13
ATOM     13  C   UNL     1      11.683   7.687  21.448  0.00  0.00    +0.139 A 
ATOM     14  C   UNL     1      11.630   8.417  21.829  0.00  0.00    +0.037 A 
ATOM     15  C   UNL     1      10.989   8.579  22.321  0.00  0.00    +0.003 A 
ATOM     16  C   UNL     1      10.399   8.012  22.433  0.00  0.00    +0.000 A 
ATOM     17  C   UNL     1      10.453   7.282  22.051  0.00  0.00    +0.003 A 
ATOM     18  C   UNL     1      11.094   7.120  21.559  0.00  0.00    +0.037 A 
ENDBRANCH  12  13
ENDBRANCH  11  12
ENDBRANCH  10  11
TORSDOF 6
ENDMDL
MODEL 9
REMARK VINA RESULT:      -6.5     15.508     18.229
REMARK  Name = 
REMARK  6 active torsions:
REMARK  status: ('A' for Active; 'I' for Inactive)
REMARK    1  A    between atoms: C_2  and  C_3
REMARK    2  A    between atoms: C_5  and  C_6
REMARK    3  A    between atoms: C_6  and  C_7
REMARK    4  A    between atoms: C_10  and  C_11
REMARK    5  A    between atoms: C_11  and  O_12
REMARK    6  A    between atoms: O_12  and  C_13
REMARK                            x       y       z     vdW  Elec       q    Type
REMARK                         _______ _______ _______ _____ _____    ______ ____
ROOT
ATOM      7  C   UNL     1      12.517   7.067  20.053  0.00  0.00    +0.103 A 
ATOM      8  N   UNL     1      12.119   6.518  19.584  0.00  0.00    -0.082 NA
ATOM      9  O   UNL     1      12.141   6.785  18.804  0.00  0.00    -0.354 OA
ATOM     10  C   UNL     1      12.552   7.500  18.791  0.00  0.00    +0.198 A 
ATOM     19  C   UNL     1      12.785   7.674  19.562  0.00  0.00    +0.057 A 
ENDROOT
BRANCH   7   6
ATOM      6  C   UNL     1      12.628   7.018  20.869  0.00  0.00    +0.079 C 
BRANCH   6   5
ATOM      3  C   UNL     1      10.983   7.825  22.053  0.00  0.00    +0.164 C 
ATOM      4  O   UNL     1      11.412   7.334  21.549  0.00  0.00    -0.354 OA
ATOM      5  C   UNL     1      12.199   7.509  21.373  0.00  0.00    +0.121 C 
ATOM     20  C   UNL     1      12.557   8.176  21.703  0.00  0.00    +0.033 C 
ATOM     21  C   UNL     1      12.127   8.667  22.208  0.00  0.00    +0.038 C 
ATOM     22  C   UNL     1      11.340   8.492  22.383  0.00  0.00    +0.180 C 
ATOM     23  O   UNL     1      10.910   8.983  22.888  0.00  0.00    -0.220 OA
BRANCH   3   2
ATOM      1  N   UNL     1       9.962   6.868  22.345  0.00  0.00    -0.129 NA
ATOM      2  C   UNL     1      10.195   7.650  22.229  0.00  0.00    +0.141 C 
ENDBRANCH   3   2
ENDBRANCH   6   5
ENDBRANCH   7   6
BRANCH  10  11
ATOM     11  C   UNL     1      12.704   7.960  18.122  0.00  0.00    +0.272 C 
BRANCH  11  12
ATOM     12  O   UNL     1      13.075   7.623  17.466  0.00  0.00    -0.467 OA
BRANCH  12  13
ATOM     13  C   UNL     1      13.329   8.104  16.845  0.00  0.00    +0.139 A 
ATOM     14  C   UNL     1      12.794   8.607  16.469  0.00  0.00    +0.037 A 
ATOM     15  C   UNL     1      13.047   9.087  15.848  0.00  0.00    +0.003 A 
ATOM     16  C   UNL     1      13.835   9.065  15.603  0.00  0.00    +0.000 A 
ATOM     17  C   UNL     1      14.369   8.562  15.980  0.00  0.00    +0.003 A 
ATOM     18  C   UNL     1      14.116   8.081  16.601  0.00  0.00    +0.037 A 
ENDBRANCH  12  13
ENDBRANCH  11  12
ENDBRANCH  10  11
TORSDOF 6
ENDMDL
MODEL 10
REMARK VINA RESULT:      -6.4     17.581     18.851
REMARK  Name = 
REMARK  6 active torsions:
REMARK  status: ('A' for Active; 'I' for Inactive)
REMARK    1  A    between atoms: C_2  and  C_3
REMARK    2  A    between atoms: C_5  and  C_6
REMARK    3  A    between atoms: C_6  and  C_7
REMARK    4  A    between atoms: C_10  and  C_11
REMARK    5  A    between atoms: C_11  and  O_12
REMARK    6  A    between atoms: O_12  and  C_13
REMARK                            x       y       z     vdW  Elec       q    Type
REMARK                         _______ _______ _______ _____ _____    ______ ____
ROOT
ATOM      7  C   UNL     1      12.689   7.147  20.096  0.00  0.00    +0.103 A 
ATOM      8  N   UNL     1      12.008   7.506  20.393  0.00  0.00    -0.082 NA
ATOM      9  O   UNL     1      11.572   7.793  19.755  0.00  0.00    -0.354 OA
ATOM     10  C   UNL     1      11.983   7.612  19.063  0.00  0.00    +0.198 A 
ATOM     19  C   UNL     1      12.673   7.213  19.273  0.00  0.00    +0.057 A 
ENDROOT
BRANCH   7   6
ATOM      6  C   UNL     1      13.281   6.786  20.542  0.00  0.00    +0.079 C 
BRANCH   6   5
ATOM      3  C   UNL     1      15.120   7.882  20.964  0.00  0.00    +0.164 C 
ATOM      4  O   UNL     1      14.560   7.421  20.571  0.00  0.00    -0.354 OA
ATOM      5  C   UNL     1      13.840   7.247  20.934  0.00  0.00    +0.121 C 
ATOM     20  C   UNL     1      13.680   7.534  21.692  0.00  0.00    +0.033 C 
ATOM     21  C   UNL     1      14.240   7.996  22.085  0.00  0.00    +0.038 C 
ATOM     22  C   UNL     1      14.960   8.170  21.721  0.00  0.00    +0.180 C 
ATOM     23  O   UNL     1      15.520   8.631  22.114  0.00  0.00    -0.220 OA
BRANCH   3   2
ATOM      1  N   UNL     1      16.212   7.492  20.128  0.00  0.00    -0.129 NA
ATOM      2  C   UNL     1      15.840   8.057  20.601  0.00  0.00    +0.141 C 
ENDBRANCH   3   2
ENDBRANCH   6   5
ENDBRANCH   7   6
BRANCH  10  11
ATOM     11  C   UNL     1      11.745   7.798  18.294  0.00  0.00    +0.272 C 
BRANCH  11  12
ATOM     12  O   UNL     1      11.956   8.524  17.961  0.00  0.00    -0.467 OA
BRANCH  12  13
ATOM     13  C   UNL     1      11.720   8.708  17.193  0.00  0.00    +0.139 A 
ATOM     14  C   UNL     1      12.285   8.907  16.625  0.00  0.00    +0.037 A 
ATOM     15  C   UNL     1      12.050   9.091  15.856  0.00  0.00    +0.003 A 
ATOM     16  C   UNL     1      11.249   9.077  15.655  0.00  0.00    +0.000 A 
ATOM     17  C   UNL     1      10.685   8.878  16.223  0.00  0.00    +0.003 A 
ATOM     18  C   UNL     1      10.921   8.694  16.992  0.00  0.00    +0.037 A 
ENDBRANCH  12  13
ENDBRANCH  11  12
ENDBRANCH  10  11
TORSDOF 6
ENDMDL
