MODEL 1
REMARK VINA RESULT:     -13.3      0.000      0.000
REMARK  Name = 
REMARK  4 active torsions:
REMARK  status: ('A' for Active; 'I' for Inactive)
REMARK    1  A    between atoms: C_2  and  C_27
REMARK    2  A    between atoms: N_10  and  C_14
REMARK    3  A    between atoms: C_17  and  O_18
REMARK    4  A    between atoms: O_18  and  C_19
REMARK                            x       y       z     vdW  Elec       q    Type
REMARK                         _______ _______ _______ _____ _____    ______ ____
ROOT
ATOM      1  O   UNL     1      -1.961   2.473  24.929  0.00  0.00    -0.270 OA
ATOM      2  C   UNL     1      -2.295   3.225  24.867  0.00  0.00    +0.249 C 
ATOM      3  N   UNL     1      -3.113   3.309  24.795  0.00  0.00    -0.268 N 
ATOM      4  C   UNL     1      -3.522   4.022  24.727  0.00  0.00    +0.096 C 
ATOM      5  C   UNL     1      -4.327   3.849  24.668  0.00  0.00    +0.045 C 
ATOM      6  C   UNL     1      -4.414   3.029  24.699  0.00  0.00    +0.126 C 
ATOM      7  N   UNL     1      -5.079   2.542  24.666  0.00  0.00    -0.187 NA
ATOM      8  C   UNL     1      -4.995   1.724  24.711  0.00  0.00    +0.333 C 
ATOM      9  O   UNL     1      -5.660   1.237  24.678  0.00  0.00    -0.250 OA
ATOM     10  N   UNL     1      -4.244   1.390  24.789  0.00  0.00    -0.190 N 
ATOM     11  C   UNL     1      -3.578   1.876  24.822  0.00  0.00    +0.256 C 
ATOM     12  O   UNL     1      -2.828   1.543  24.900  0.00  0.00    -0.272 OA
ATOM     13  C   UNL     1      -3.663   2.696  24.777  0.00  0.00    +0.173 C 
ENDROOT
BRANCH  10  14
ATOM     14  C   UNL     1      -4.159   0.570  24.834  0.00  0.00    +0.062 A 
ATOM     15  C   UNL     1      -4.143   0.120  24.143  0.00  0.00    +0.018 A 
ATOM     16  C   UNL     1      -4.058  -0.701  24.188  0.00  0.00    +0.039 A 
ATOM     17  C   UNL     1      -3.989  -1.069  24.923  0.00  0.00    +0.145 A 
ATOM     25  C   UNL     1      -4.005  -0.616  25.614  0.00  0.00    +0.039 A 
ATOM     26  C   UNL     1      -4.090   0.202  25.569  0.00  0.00    +0.018 A 
BRANCH  17  18
ATOM     18  O   UNL     1      -3.904  -1.887  24.968  0.00  0.00    -0.453 OA
BRANCH  18  19
ATOM     19  C   UNL     1      -3.186  -2.239  24.765  0.00  0.00    +0.145 A 
ATOM     20  C   UNL     1      -3.146  -2.757  24.124  0.00  0.00    +0.037 A 
ATOM     21  C   UNL     1      -2.428  -3.109  23.921  0.00  0.00    +0.003 A 
ATOM     22  C   UNL     1      -1.749  -2.942  24.361  0.00  0.00    +0.000 A 
ATOM     23  C   UNL     1      -1.788  -2.425  25.001  0.00  0.00    +0.003 A 
ATOM     24  C   UNL     1      -2.507  -2.073  25.204  0.00  0.00    +0.037 A 
ENDBRANCH  18  19
ENDBRANCH  17  18
ENDBRANCH  10  14
BRANCH   2  27
ATOM     27  C   UNL     1      -1.811   3.893  24.876  0.00  0.00    +0.054 A 
ATOM     28  C   UNL     1      -1.217   3.980  24.310  0.00  0.00    +0.005 A 
ATOM     29  C   UNL     1      -0.732   4.648  24.318  0.00  0.00    +0.000 A 
ATOM     30  C   UNL     1      -0.842   5.229  24.893  0.00  0.00    +0.000 A 
ATOM     31  C   UNL     1      -1.437   5.143  25.460  0.00  0.00    +0.000 A 
ATOM     32  C   UNL     1      -1.921   4.474  25.451  0.00  0.00    +0.005 A 
ENDBRANCH   2  27
TORSDOF 4
ENDMDL
MODEL 2
REMARK VINA RESULT:     -12.7      2.129      6.011
REMARK  Name = 
REMARK  4 active torsions:
REMARK  status: ('A' for Active; 'I' for Inactive)
REMARK    1  A    between atoms: C_2  and  C_27
REMARK    2  A    between atoms: N_10  and  C_14
REMARK    3  A    between atoms: C_17  and  O_18
REMARK    4  A    between atoms: O_18  and  C_19
REMARK                            x       y       z     vdW  Elec       q    Type
REMARK                         _______ _______ _______ _____ _____    ______ ____
ROOT
ATOM      1  O   UNL     1      -2.719  -0.199  24.921  0.00  0.00    -0.270 OA
ATOM      2  C   UNL     1      -2.466  -0.932  24.640  0.00  0.00    +0.249 C 
ATOM      3  N   UNL     1      -1.691  -1.026  24.370  0.00  0.00    -0.268 N 
ATOM      4  C   UNL     1      -1.362  -1.722  24.076  0.00  0.00    +0.096 C 
ATOM      5  C   UNL     1      -0.577  -1.566  23.871  0.00  0.00    +0.045 C 
ATOM      6  C   UNL     1      -0.423  -0.774  24.039  0.00  0.00    +0.126 C 
ATOM      7  N   UNL     1       0.255  -0.313  23.951  0.00  0.00    -0.187 NA
ATOM      8  C   UNL     1       0.245   0.482  24.171  0.00  0.00    +0.333 C 
ATOM      9  O   UNL     1       0.924   0.943  24.083  0.00  0.00    -0.250 OA
ATOM     10  N   UNL     1      -0.443   0.816  24.480  0.00  0.00    -0.190 N 
ATOM     11  C   UNL     1      -1.122   0.355  24.568  0.00  0.00    +0.256 C 
ATOM     12  O   UNL     1      -1.810   0.689  24.877  0.00  0.00    -0.272 OA
ATOM     13  C   UNL     1      -1.112  -0.440  24.347  0.00  0.00    +0.173 C 
ENDROOT
BRANCH  10  14
ATOM     14  C   UNL     1      -0.453   1.611  24.700  0.00  0.00    +0.062 A 
ATOM     15  C   UNL     1      -0.312   1.823  25.485  0.00  0.00    +0.018 A 
ATOM     16  C   UNL     1      -0.322   2.618  25.706  0.00  0.00    +0.039 A 
ATOM     17  C   UNL     1      -0.473   3.201  25.141  0.00  0.00    +0.145 A 
ATOM     25  C   UNL     1      -0.613   2.988  24.357  0.00  0.00    +0.039 A 
ATOM     26  C   UNL     1      -0.603   2.194  24.136  0.00  0.00    +0.018 A 
BRANCH  17  18
ATOM     18  O   UNL     1      -0.483   3.995  25.362  0.00  0.00    -0.453 OA
BRANCH  18  19
ATOM     19  C   UNL     1      -1.198   4.405  25.396  0.00  0.00    +0.145 A 
ATOM     20  C   UNL     1      -1.282   5.123  24.998  0.00  0.00    +0.037 A 
ATOM     21  C   UNL     1      -1.997   5.533  25.032  0.00  0.00    +0.003 A 
ATOM     22  C   UNL     1      -2.629   5.224  25.465  0.00  0.00    +0.000 A 
ATOM     23  C   UNL     1      -2.545   4.507  25.862  0.00  0.00    +0.003 A 
ATOM     24  C   UNL     1      -1.830   4.097  25.828  0.00  0.00    +0.037 A 
ENDBRANCH  18  19
ENDBRANCH  17  18
ENDBRANCH  10  14
BRANCH   2  27
ATOM     27  C   UNL     1      -2.986  -1.572  24.630  0.00  0.00    +0.054 A 
ATOM     28  C   UNL     1      -3.518  -1.661  24.005  0.00  0.00    +0.005 A 
ATOM     29  C   UNL     1      -4.039  -2.301  23.993  0.00  0.00    +0.000 A 
ATOM     30  C   UNL     1      -4.028  -2.852  24.607  0.00  0.00    +0.000 A 
ATOM     31  C   UNL     1      -3.496  -2.764  25.231  0.00  0.00    +0.000 A 
ATOM     32  C   UNL     1      -2.975  -2.124  25.243  0.00  0.00    +0.005 A 
ENDBRANCH   2  27
TORSDOF 4
ENDMDL
MODEL 3
REMARK VINA RESULT:     -12.5      1.155      5.257
REMARK  Name = 
REMARK  4 active torsions:
REMARK  status: ('A' for Active; 'I' for Inactive)
REMARK    1  A    between atoms: C_2  and  C_27
REMARK    2  A    between atoms: N_10  and  C_14
REMARK    3  A    between atoms: C_17  and  O_18
REMARK    4  A    between atoms: O_18  and  C_19
REMARK                            x       y       z     vdW  Elec       q    Type
REMARK                         _______ _______ _______ _____ _____    ______ ____
ROOT
ATOM      1  O   UNL     1      -3.178   0.369  24.812  0.00  0.00    -0.270 OA
ATOM      2  C   UNL     1      -3.885  -0.053  24.763  0.00  0.00    +0.249 C 
ATOM      3  N   UNL     1      -4.606   0.337  24.858  0.00  0.00    -0.268 N 
ATOM      4  C   UNL     1      -5.353  -0.011  24.823  0.00  0.00    +0.096 C 
ATOM      5  C   UNL     1      -5.916   0.580  24.949  0.00  0.00    +0.045 C 
ATOM      6  C   UNL     1      -5.515   1.292  25.060  0.00  0.00    +0.126 C 
ATOM      7  N   UNL     1      -5.783   2.059  25.206  0.00  0.00    -0.187 NA
ATOM      8  C   UNL     1      -5.242   2.675  25.296  0.00  0.00    +0.333 C 
ATOM      9  O   UNL     1      -5.509   3.442  25.442  0.00  0.00    -0.250 OA
ATOM     10  N   UNL     1      -4.433   2.524  25.240  0.00  0.00    -0.190 N 
ATOM     11  C   UNL     1      -4.164   1.758  25.094  0.00  0.00    +0.256 C 
ATOM     12  O   UNL     1      -3.355   1.608  25.038  0.00  0.00    -0.272 OA
ATOM     13  C   UNL     1      -4.706   1.142  25.004  0.00  0.00    +0.173 C 
ENDROOT
BRANCH  10  14
ATOM     14  C   UNL     1      -3.891   3.141  25.330  0.00  0.00    +0.062 A 
ATOM     15  C   UNL     1      -3.680   3.602  24.679  0.00  0.00    +0.018 A 
ATOM     16  C   UNL     1      -3.139   4.219  24.769  0.00  0.00    +0.039 A 
ATOM     17  C   UNL     1      -2.808   4.373  25.509  0.00  0.00    +0.145 A 
ATOM     25  C   UNL     1      -3.019   3.911  26.159  0.00  0.00    +0.039 A 
ATOM     26  C   UNL     1      -3.560   3.295  26.070  0.00  0.00    +0.018 A 
BRANCH  17  18
ATOM     18  O   UNL     1      -2.267   4.989  25.598  0.00  0.00    -0.453 OA
BRANCH  18  19
ATOM     19  C   UNL     1      -1.525   4.941  25.240  0.00  0.00    +0.145 A 
ATOM     20  C   UNL     1      -1.269   5.544  24.738  0.00  0.00    +0.037 A 
ATOM     21  C   UNL     1      -0.528   5.496  24.380  0.00  0.00    +0.003 A 
ATOM     22  C   UNL     1      -0.042   4.845  24.524  0.00  0.00    +0.000 A 
ATOM     23  C   UNL     1      -0.297   4.243  25.026  0.00  0.00    +0.003 A 
ATOM     24  C   UNL     1      -1.039   4.290  25.383  0.00  0.00    +0.037 A 
ENDBRANCH  18  19
ENDBRANCH  17  18
ENDBRANCH  10  14
BRANCH   2  27
ATOM     27  C   UNL     1      -3.872  -0.865  24.618  0.00  0.00    +0.054 A 
ATOM     28  C   UNL     1      -3.646  -1.387  25.217  0.00  0.00    +0.005 A 
ATOM     29  C   UNL     1      -3.633  -2.199  25.073  0.00  0.00    +0.000 A 
ATOM     30  C   UNL     1      -3.844  -2.490  24.331  0.00  0.00    +0.000 A 
ATOM     31  C   UNL     1      -4.070  -1.969  23.732  0.00  0.00    +0.000 A 
ATOM     32  C   UNL     1      -4.083  -1.156  23.876  0.00  0.00    +0.005 A 
ENDBRANCH   2  27
TORSDOF 4
ENDMDL
MODEL 4
REMARK VINA RESULT:     -11.6      1.653      2.406
REMARK  Name = 
REMARK  4 active torsions:
REMARK  status: ('A' for Active; 'I' for Inactive)
REMARK    1  A    between atoms: C_2  and  C_27
REMARK    2  A    between atoms: N_10  and  C_14
REMARK    3  A    between atoms: C_17  and  O_18
REMARK    4  A    between atoms: O_18  and  C_19
REMARK                            x       y       z     vdW  Elec       q    Type
REMARK                         _______ _______ _______ _____ _____    ______ ____
ROOT
ATOM      1  O   UNL     1      -2.377   3.225  24.687  0.00  0.00    -0.270 OA
ATOM      2  C   UNL     1      -1.658   3.505  24.979  0.00  0.00    +0.249 C 
ATOM      3  N   UNL     1      -1.112   2.980  25.306  0.00  0.00    -0.268 N 
ATOM      4  C   UNL     1      -0.375   3.179  25.618  0.00  0.00    +0.096 C 
ATOM      5  C   UNL     1      -0.015   2.485  25.883  0.00  0.00    +0.045 C 
ATOM      6  C   UNL     1      -0.529   1.858  25.734  0.00  0.00    +0.126 C 
ATOM      7  N   UNL     1      -0.469   1.048  25.877  0.00  0.00    -0.187 NA
ATOM      8  C   UNL     1      -1.085   0.544  25.664  0.00  0.00    +0.333 C 
ATOM      9  O   UNL     1      -1.024  -0.267  25.807  0.00  0.00    -0.250 OA
ATOM     10  N   UNL     1      -1.763   0.850  25.307  0.00  0.00    -0.190 N 
ATOM     11  C   UNL     1      -1.825   1.659  25.164  0.00  0.00    +0.256 C 
ATOM     12  O   UNL     1      -2.503   1.965  24.807  0.00  0.00    -0.272 OA
ATOM     13  C   UNL     1      -1.207   2.164  25.378  0.00  0.00    +0.173 C 
ENDROOT
BRANCH  10  14
ATOM     14  C   UNL     1      -2.381   0.345  25.093  0.00  0.00    +0.062 A 
ATOM     15  C   UNL     1      -2.916   0.084  25.665  0.00  0.00    +0.018 A 
ATOM     16  C   UNL     1      -3.533  -0.420  25.451  0.00  0.00    +0.039 A 
ATOM     17  C   UNL     1      -3.615  -0.664  24.667  0.00  0.00    +0.145 A 
ATOM     25  C   UNL     1      -3.079  -0.402  24.096  0.00  0.00    +0.039 A 
ATOM     26  C   UNL     1      -2.462   0.102  24.309  0.00  0.00    +0.018 A 
BRANCH  17  18
ATOM     18  O   UNL     1      -4.232  -1.167  24.453  0.00  0.00    -0.453 OA
BRANCH  18  19
ATOM     19  C   UNL     1      -4.079  -1.963  24.299  0.00  0.00    +0.145 A 
ATOM     20  C   UNL     1      -4.287  -2.289  23.569  0.00  0.00    +0.037 A 
ATOM     21  C   UNL     1      -4.135  -3.085  23.415  0.00  0.00    +0.003 A 
ATOM     22  C   UNL     1      -3.774  -3.555  23.990  0.00  0.00    +0.000 A 
ATOM     23  C   UNL     1      -3.567  -3.230  24.718  0.00  0.00    +0.003 A 
ATOM     24  C   UNL     1      -3.719  -2.434  24.873  0.00  0.00    +0.037 A 
ENDBRANCH  18  19
ENDBRANCH  17  18
ENDBRANCH  10  14
BRANCH   2  27
ATOM     27  C   UNL     1      -1.485   4.311  24.945  0.00  0.00    +0.054 A 
ATOM     28  C   UNL     1      -1.953   4.851  25.357  0.00  0.00    +0.005 A 
ATOM     29  C   UNL     1      -1.781   5.658  25.324  0.00  0.00    +0.000 A 
ATOM     30  C   UNL     1      -1.139   5.924  24.878  0.00  0.00    +0.000 A 
ATOM     31  C   UNL     1      -0.671   5.383  24.466  0.00  0.00    +0.000 A 
ATOM     32  C   UNL     1      -0.843   4.577  24.500  0.00  0.00    +0.005 A 
ENDBRANCH   2  27
TORSDOF 4
ENDMDL
MODEL 5
REMARK VINA RESULT:     -11.0      2.951      4.836
REMARK  Name = 
REMARK  4 active torsions:
REMARK  status: ('A' for Active; 'I' for Inactive)
REMARK    1  A    between atoms: C_2  and  C_27
REMARK    2  A    between atoms: N_10  and  C_14
REMARK    3  A    between atoms: C_17  and  O_18
REMARK    4  A    between atoms: O_18  and  C_19
REMARK                            x       y       z     vdW  Elec       q    Type
REMARK                         _______ _______ _______ _____ _____    ______ ____
ROOT
ATOM      1  O   UNL     1      -0.053   1.012  23.083  0.00  0.00    -0.270 OA
ATOM      2  C   UNL     1       0.398   0.357  23.302  0.00  0.00    +0.249 C 
ATOM      3  N   UNL     1       0.091  -0.198  23.830  0.00  0.00    -0.268 N 
ATOM      4  C   UNL     1       0.475  -0.876  24.098  0.00  0.00    +0.096 C 
ATOM      5  C   UNL     1      -0.033  -1.270  24.616  0.00  0.00    +0.045 C 
ATOM      6  C   UNL     1      -0.731  -0.834  24.667  0.00  0.00    +0.126 C 
ATOM      7  N   UNL     1      -1.427  -0.954  25.093  0.00  0.00    -0.187 NA
ATOM      8  C   UNL     1      -2.046  -0.413  25.034  0.00  0.00    +0.333 C 
ATOM      9  O   UNL     1      -2.743  -0.533  25.460  0.00  0.00    -0.250 OA
ATOM     10  N   UNL     1      -1.970   0.249  24.548  0.00  0.00    -0.190 N 
ATOM     11  C   UNL     1      -1.274   0.371  24.122  0.00  0.00    +0.256 C 
ATOM     12  O   UNL     1      -1.198   1.033  23.636  0.00  0.00    -0.272 OA
ATOM     13  C   UNL     1      -0.654  -0.172  24.181  0.00  0.00    +0.173 C 
ENDROOT
BRANCH  10  14
ATOM     14  C   UNL     1      -2.590   0.792  24.488  0.00  0.00    +0.062 A 
ATOM     15  C   UNL     1      -3.213   0.649  23.967  0.00  0.00    +0.018 A 
ATOM     16  C   UNL     1      -3.832   1.191  23.907  0.00  0.00    +0.039 A 
ATOM     17  C   UNL     1      -3.828   1.875  24.369  0.00  0.00    +0.145 A 
ATOM     25  C   UNL     1      -3.205   2.016  24.890  0.00  0.00    +0.039 A 
ATOM     26  C   UNL     1      -2.586   1.475  24.950  0.00  0.00    +0.018 A 
BRANCH  17  18
ATOM     18  O   UNL     1      -4.447   2.416  24.309  0.00  0.00    -0.453 OA
BRANCH  18  19
ATOM     19  C   UNL     1      -5.054   2.413  24.869  0.00  0.00    +0.145 A 
ATOM     20  C   UNL     1      -5.047   2.959  25.488  0.00  0.00    +0.037 A 
ATOM     21  C   UNL     1      -5.653   2.956  26.047  0.00  0.00    +0.003 A 
ATOM     22  C   UNL     1      -6.266   2.406  25.988  0.00  0.00    +0.000 A 
ATOM     23  C   UNL     1      -6.272   1.860  25.370  0.00  0.00    +0.003 A 
ATOM     24  C   UNL     1      -5.666   1.864  24.811  0.00  0.00    +0.037 A 
ENDBRANCH  18  19
ENDBRANCH  17  18
ENDBRANCH  10  14
BRANCH   2  27
ATOM     27  C   UNL     1       1.157   0.257  22.994  0.00  0.00    +0.054 A 
ATOM     28  C   UNL     1       1.801   0.628  23.354  0.00  0.00    +0.005 A 
ATOM     29  C   UNL     1       2.560   0.528  23.047  0.00  0.00    +0.000 A 
ATOM     30  C   UNL     1       2.676   0.057  22.380  0.00  0.00    +0.000 A 
ATOM     31  C   UNL     1       2.032  -0.314  22.020  0.00  0.00    +0.000 A 
ATOM     32  C   UNL     1       1.273  -0.214  22.327  0.00  0.00    +0.005 A 
ENDBRANCH   2  27
TORSDOF 4
ENDMDL
MODEL 6
REMARK VINA RESULT:     -10.7      1.587      2.800
REMARK  Name = 
REMARK  4 active torsions:
REMARK  status: ('A' for Active; 'I' for Inactive)
REMARK    1  A    between atoms: C_2  and  C_27
REMARK    2  A    between atoms: N_10  and  C_14
REMARK    3  A    between atoms: C_17  and  O_18
REMARK    4  A    between atoms: O_18  and  C_19
REMARK                            x       y       z     vdW  Elec       q    Type
REMARK                         _______ _______ _______ _____ _____    ______ ____
ROOT
ATOM      1  O   UNL     1      -3.667   2.135  25.008  0.00  0.00    -0.270 OA
ATOM      2  C   UNL     1      -3.421   2.918  25.086  0.00  0.00    +0.249 C 
ATOM      3  N   UNL     1      -2.618   3.092  25.174  0.00  0.00    -0.268 N 
ATOM      4  C   UNL     1      -2.292   3.845  25.258  0.00  0.00    +0.096 C 
ATOM      5  C   UNL     1      -1.474   3.762  25.329  0.00  0.00    +0.045 C 
ATOM      6  C   UNL     1      -1.296   2.958  25.289  0.00  0.00    +0.126 C 
ATOM      7  N   UNL     1      -0.580   2.548  25.328  0.00  0.00    -0.187 NA
ATOM      8  C   UNL     1      -0.572   1.726  25.270  0.00  0.00    +0.333 C 
ATOM      9  O   UNL     1       0.143   1.316  25.309  0.00  0.00    -0.250 OA
ATOM     10  N   UNL     1      -1.279   1.312  25.175  0.00  0.00    -0.190 N 
ATOM     11  C   UNL     1      -1.995   1.720  25.136  0.00  0.00    +0.256 C 
ATOM     12  O   UNL     1      -2.702   1.307  25.040  0.00  0.00    -0.272 OA
ATOM     13  C   UNL     1      -2.003   2.544  25.193  0.00  0.00    +0.173 C 
ENDROOT
BRANCH  10  14
ATOM     14  C   UNL     1      -1.272   0.488  25.117  0.00  0.00    +0.062 A 
ATOM     15  C   UNL     1      -1.190   0.128  24.380  0.00  0.00    +0.018 A 
ATOM     16  C   UNL     1      -1.182  -0.696  24.323  0.00  0.00    +0.039 A 
ATOM     17  C   UNL     1      -1.256  -1.158  25.002  0.00  0.00    +0.145 A 
ATOM     25  C   UNL     1      -1.338  -0.796  25.739  0.00  0.00    +0.039 A 
ATOM     26  C   UNL     1      -1.345   0.027  25.797  0.00  0.00    +0.018 A 
BRANCH  17  18
ATOM     18  O   UNL     1      -1.248  -1.980  24.945  0.00  0.00    -0.453 OA
BRANCH  18  19
ATOM     19  C   UNL     1      -1.946  -2.389  24.781  0.00  0.00    +0.145 A 
ATOM     20  C   UNL     1      -2.036  -2.777  24.057  0.00  0.00    +0.037 A 
ATOM     21  C   UNL     1      -2.734  -3.185  23.893  0.00  0.00    +0.003 A 
ATOM     22  C   UNL     1      -3.341  -3.206  24.452  0.00  0.00    +0.000 A 
ATOM     23  C   UNL     1      -3.250  -2.819  25.174  0.00  0.00    +0.003 A 
ATOM     24  C   UNL     1      -2.553  -2.410  25.338  0.00  0.00    +0.037 A 
ENDBRANCH  18  19
ENDBRANCH  17  18
ENDBRANCH  10  14
BRANCH   2  27
ATOM     27  C   UNL     1      -3.976   3.529  25.077  0.00  0.00    +0.054 A 
ATOM     28  C   UNL     1      -4.418   3.694  25.754  0.00  0.00    +0.005 A 
ATOM     29  C   UNL     1      -4.974   4.304  25.746  0.00  0.00    +0.000 A 
ATOM     30  C   UNL     1      -5.087   4.749  25.061  0.00  0.00    +0.000 A 
ATOM     31  C   UNL     1      -4.644   4.584  24.384  0.00  0.00    +0.000 A 
ATOM     32  C   UNL     1      -4.089   3.974  24.392  0.00  0.00    +0.005 A 
ENDBRANCH   2  27
TORSDOF 4
ENDMDL
