MODEL 1
REMARK VINA RESULT:     -12.5      0.000      0.000
REMARK  Name = 
REMARK  7 active torsions:
REMARK  status: ('A' for Active; 'I' for Inactive)
REMARK    1  A    between atoms: O_2  and  C_3
REMARK    2  A    between atoms: C_3  and  C_4
REMARK    3  A    between atoms: C_4  and  N_5
REMARK    4  A    between atoms: N_5  and  C_6
REMARK    5  A    between atoms: C_10  and  C_21
REMARK    6  A    between atoms: C_21  and  O_23
REMARK    7  A    between atoms: C_25  and  C_27
REMARK                            x       y       z     vdW  Elec       q    Type
REMARK                         _______ _______ _______ _____ _____    ______ ____
ROOT
ATOM      6  C   UNL     1      -0.677   0.453  24.260  0.00  0.00    +0.076 C 
ATOM      7  C   UNL     1      -0.686   1.264  24.409  0.00  0.00    +0.040 C 
ATOM      8  C   UNL     1      -1.400   1.647  24.565  0.00  0.00    +0.100 C 
ATOM      9  N   UNL     1      -2.105   1.219  24.570  0.00  0.00    -0.258 NA
ATOM     10  C   UNL     1      -2.819   1.602  24.726  0.00  0.00    +0.162 C 
ATOM     11  C   UNL     1      -2.828   2.412  24.876  0.00  0.00    +0.055 C 
ATOM     12  C   UNL     1      -2.123   2.841  24.870  0.00  0.00    -0.004 A 
ATOM     13  C   UNL     1      -1.409   2.458  24.715  0.00  0.00    +0.070 A 
ATOM     14  N   UNL     1      -0.807   3.021  24.746  0.00  0.00    -0.249 NA
ATOM     15  C   UNL     1      -1.147   3.750  24.920  0.00  0.00    +0.081 A 
ATOM     16  C   UNL     1      -1.962   3.640  24.997  0.00  0.00    +0.015 A 
ATOM     17  C   UNL     1      -2.451   4.281  25.173  0.00  0.00    +0.001 A 
ATOM     18  C   UNL     1      -2.126   5.033  25.273  0.00  0.00    +0.000 A 
ATOM     19  C   UNL     1      -1.311   5.144  25.196  0.00  0.00    +0.002 A 
ATOM     20  C   UNL     1      -0.822   4.503  25.020  0.00  0.00    +0.019 A 
ATOM     25  C   UNL     1      -2.096   0.407  24.420  0.00  0.00    +0.082 C 
ATOM     26  C   UNL     1      -1.383   0.025  24.265  0.00  0.00    +0.038 C 
ENDROOT
BRANCH  25  27
ATOM     27  C   UNL     1      -2.801  -0.020  24.426  0.00  0.00    -0.005 A 
ATOM     28  C   UNL     1      -2.994  -0.487  25.079  0.00  0.00    +0.029 A 
ATOM     29  C   UNL     1      -3.700  -0.915  25.085  0.00  0.00    +0.167 A 
ATOM     30  F   UNL     1      -3.893  -1.383  25.738  0.00  0.00    -0.202 F 
ATOM     31  C   UNL     1      -4.212  -0.876  24.439  0.00  0.00    +0.167 A 
ATOM     32  F   UNL     1      -4.918  -1.304  24.447  0.00  0.00    -0.202 F 
ATOM     33  C   UNL     1      -4.019  -0.409  23.788  0.00  0.00    +0.032 A 
ATOM     34  C   UNL     1      -3.314   0.019  23.781  0.00  0.00    -0.001 A 
ENDBRANCH  25  27
BRANCH  10  21
ATOM     21  C   UNL     1      -3.525   1.174  24.731  0.00  0.00    +0.332 C 
ATOM     22  O   UNL     1      -4.067   0.612  24.465  0.00  0.00    -0.249 OA
BRANCH  21  23
ATOM     23  O   UNL     1      -4.093   1.321  25.311  0.00  0.00    -0.443 OA
ATOM     24  C   UNL     1      -4.770   1.754  25.122  0.00  0.00    +0.256 C 
ENDBRANCH  21  23
ENDBRANCH  10  21
BRANCH   6   5
ATOM      5  N   UNL     1       0.037   0.070  24.104  0.00  0.00    -0.217 NA
BRANCH   5   4
ATOM      4  C   UNL     1       0.389   0.139  23.362  0.00  0.00    +0.121 C 
BRANCH   4   3
ATOM      3  C   UNL     1       1.148  -0.157  23.236  0.00  0.00    +0.161 C 
BRANCH   3   2
ATOM      1  C   UNL     1       2.347  -0.000  22.475  0.00  0.00    +0.174 C 
ATOM      2  O   UNL     1       1.524  -0.036  22.511  0.00  0.00    -0.350 OA
ENDBRANCH   3   2
ENDBRANCH   4   3
ENDBRANCH   5   4
ENDBRANCH   6   5
TORSDOF 7
ENDMDL
MODEL 2
REMARK VINA RESULT:     -12.1      1.752      3.794
REMARK  Name = 
REMARK  7 active torsions:
REMARK  status: ('A' for Active; 'I' for Inactive)
REMARK    1  A    between atoms: O_2  and  C_3
REMARK    2  A    between atoms: C_3  and  C_4
REMARK    3  A    between atoms: C_4  and  N_5
REMARK    4  A    between atoms: N_5  and  C_6
REMARK    5  A    between atoms: C_10  and  C_21
REMARK    6  A    between atoms: C_21  and  O_23
REMARK    7  A    between atoms: C_25  and  C_27
REMARK                            x       y       z     vdW  Elec       q    Type
REMARK                         _______ _______ _______ _____ _____    ______ ____
ROOT
ATOM      6  C   UNL     1      -4.307   1.144  24.743  0.00  0.00    +0.076 C 
ATOM      7  C   UNL     1      -3.588   1.542  24.686  0.00  0.00    +0.040 C 
ATOM      8  C   UNL     1      -2.881   1.118  24.674  0.00  0.00    +0.100 C 
ATOM      9  N   UNL     1      -2.894   0.294  24.720  0.00  0.00    -0.258 NA
ATOM     10  C   UNL     1      -2.187  -0.131  24.708  0.00  0.00    +0.162 C 
ATOM     11  C   UNL     1      -1.467   0.266  24.651  0.00  0.00    +0.055 C 
ATOM     12  C   UNL     1      -1.454   1.090  24.606  0.00  0.00    -0.004 A 
ATOM     13  C   UNL     1      -2.160   1.516  24.617  0.00  0.00    +0.070 A 
ATOM     14  N   UNL     1      -1.976   2.318  24.564  0.00  0.00    -0.249 NA
ATOM     15  C   UNL     1      -1.156   2.389  24.520  0.00  0.00    +0.081 A 
ATOM     16  C   UNL     1      -0.832   1.629  24.546  0.00  0.00    +0.015 A 
ATOM     17  C   UNL     1      -0.014   1.528  24.511  0.00  0.00    +0.001 A 
ATOM     18  C   UNL     1       0.481   2.185  24.451  0.00  0.00    +0.000 A 
ATOM     19  C   UNL     1       0.158   2.945  24.426  0.00  0.00    +0.002 A 
ATOM     20  C   UNL     1      -0.660   3.046  24.460  0.00  0.00    +0.019 A 
ATOM     25  C   UNL     1      -3.615  -0.104  24.777  0.00  0.00    +0.082 C 
ATOM     26  C   UNL     1      -4.321   0.321  24.788  0.00  0.00    +0.038 C 
ENDROOT
BRANCH  25  27
ATOM     27  C   UNL     1      -3.627  -0.928  24.822  0.00  0.00    -0.005 A 
ATOM     28  C   UNL     1      -3.845  -1.373  24.162  0.00  0.00    +0.029 A 
ATOM     29  C   UNL     1      -3.858  -2.197  24.207  0.00  0.00    +0.167 A 
ATOM     30  F   UNL     1      -4.076  -2.642  23.547  0.00  0.00    -0.202 F 
ATOM     31  C   UNL     1      -3.653  -2.575  24.911  0.00  0.00    +0.167 A 
ATOM     32  F   UNL     1      -3.666  -3.400  24.955  0.00  0.00    -0.202 F 
ATOM     33  C   UNL     1      -3.436  -2.130  25.570  0.00  0.00    +0.032 A 
ATOM     34  C   UNL     1      -3.423  -1.306  25.526  0.00  0.00    -0.001 A 
ENDBRANCH  25  27
BRANCH  10  21
ATOM     21  C   UNL     1      -2.201  -0.955  24.754  0.00  0.00    +0.332 C 
ATOM     22  O   UNL     1      -2.455  -1.691  25.027  0.00  0.00    -0.249 OA
BRANCH  21  23
ATOM     23  O   UNL     1      -1.692  -1.403  24.283  0.00  0.00    -0.443 OA
ATOM     24  C   UNL     1      -1.011  -1.733  24.613  0.00  0.00    +0.256 C 
ENDBRANCH  21  23
ENDBRANCH  10  21
BRANCH   6   5
ATOM      5  N   UNL     1      -5.015   1.570  24.754  0.00  0.00    -0.217 NA
BRANCH   5   4
ATOM      4  C   UNL     1      -5.190   2.061  25.393  0.00  0.00    +0.121 C 
BRANCH   4   3
ATOM      3  C   UNL     1      -5.777   2.636  25.323  0.00  0.00    +0.161 C 
BRANCH   3   2
ATOM      1  C   UNL     1      -5.882   4.009  25.702  0.00  0.00    +0.174 C 
ATOM      2  O   UNL     1      -5.864   3.211  25.908  0.00  0.00    -0.350 OA
ENDBRANCH   3   2
ENDBRANCH   4   3
ENDBRANCH   5   4
ENDBRANCH   6   5
TORSDOF 7
ENDMDL
MODEL 3
REMARK VINA RESULT:     -12.1      1.892      3.900
REMARK  Name = 
REMARK  7 active torsions:
REMARK  status: ('A' for Active; 'I' for Inactive)
REMARK    1  A    between atoms: O_2  and  C_3
REMARK    2  A    between atoms: C_3  and  C_4
REMARK    3  A    between atoms: C_4  and  N_5
REMARK    4  A    between atoms: N_5  and  C_6
REMARK    5  A    between atoms: C_10  and  C_21
REMARK    6  A    between atoms: C_21  and  O_23
REMARK    7  A    between atoms: C_25  and  C_27
REMARK                            x       y       z     vdW  Elec       q    Type
REMARK                         _______ _______ _______ _____ _____    ______ ____
ROOT
ATOM      6  C   UNL     1      -1.381   1.400  24.942  0.00  0.00    +0.076 C 
ATOM      7  C   UNL     1      -1.669   0.637  24.821  0.00  0.00    +0.040 C 
ATOM      8  C   UNL     1      -2.476   0.513  24.712  0.00  0.00    +0.100 C 
ATOM      9  N   UNL     1      -2.997   1.153  24.724  0.00  0.00    -0.258 NA
ATOM     10  C   UNL     1      -3.806   1.029  24.615  0.00  0.00    +0.162 C 
ATOM     11  C   UNL     1      -4.094   0.266  24.495  0.00  0.00    +0.055 C 
ATOM     12  C   UNL     1      -3.573  -0.374  24.483  0.00  0.00    -0.004 A 
ATOM     13  C   UNL     1      -2.764  -0.251  24.591  0.00  0.00    +0.070 A 
ATOM     14  N   UNL     1      -2.387  -0.983  24.552  0.00  0.00    -0.249 NA
ATOM     15  C   UNL     1      -2.961  -1.560  24.419  0.00  0.00    +0.081 A 
ATOM     16  C   UNL     1      -3.695  -1.183  24.376  0.00  0.00    +0.015 A 
ATOM     17  C   UNL     1      -4.379  -1.626  24.245  0.00  0.00    +0.001 A 
ATOM     18  C   UNL     1      -4.330  -2.445  24.157  0.00  0.00    +0.000 A 
ATOM     19  C   UNL     1      -3.596  -2.822  24.200  0.00  0.00    +0.002 A 
ATOM     20  C   UNL     1      -2.912  -2.379  24.331  0.00  0.00    +0.019 A 
ATOM     25  C   UNL     1      -2.709   1.917  24.845  0.00  0.00    +0.082 C 
ATOM     26  C   UNL     1      -1.902   2.040  24.954  0.00  0.00    +0.038 C 
ENDROOT
BRANCH  25  27
ATOM     27  C   UNL     1      -3.230   2.556  24.857  0.00  0.00    -0.005 A 
ATOM     28  C   UNL     1      -3.437   2.905  25.576  0.00  0.00    +0.029 A 
ATOM     29  C   UNL     1      -3.959   3.544  25.589  0.00  0.00    +0.167 A 
ATOM     30  F   UNL     1      -4.166   3.893  26.307  0.00  0.00    -0.202 F 
ATOM     31  C   UNL     1      -4.273   3.834  24.883  0.00  0.00    +0.167 A 
ATOM     32  F   UNL     1      -4.794   4.474  24.897  0.00  0.00    -0.202 F 
ATOM     33  C   UNL     1      -4.066   3.486  24.165  0.00  0.00    +0.032 A 
ATOM     34  C   UNL     1      -3.545   2.846  24.152  0.00  0.00    -0.001 A 
ENDBRANCH  25  27
BRANCH  10  21
ATOM     21  C   UNL     1      -4.327   1.669  24.628  0.00  0.00    +0.332 C 
ATOM     22  O   UNL     1      -4.608   2.415  24.418  0.00  0.00    -0.249 OA
BRANCH  21  23
ATOM     23  O   UNL     1      -5.000   1.644  25.103  0.00  0.00    -0.443 OA
ATOM     24  C   UNL     1      -5.741   1.517  24.761  0.00  0.00    +0.256 C 
ENDBRANCH  21  23
ENDBRANCH  10  21
BRANCH   6   5
ATOM      5  N   UNL     1      -0.572   1.524  25.050  0.00  0.00    -0.217 NA
BRANCH   5   4
ATOM      4  C   UNL     1      -0.080   1.631  24.398  0.00  0.00    +0.121 C 
BRANCH   4   3
ATOM      3  C   UNL     1       0.738   1.578  24.485  0.00  0.00    +0.161 C 
BRANCH   3   2
ATOM      1  C   UNL     1       1.701   1.177  23.508  0.00  0.00    +0.174 C 
ATOM      2  O   UNL     1       1.234   1.764  23.852  0.00  0.00    -0.350 OA
ENDBRANCH   3   2
ENDBRANCH   4   3
ENDBRANCH   5   4
ENDBRANCH   6   5
TORSDOF 7
ENDMDL
MODEL 4
REMARK VINA RESULT:     -11.6      2.329      5.265
REMARK  Name = 
REMARK  7 active torsions:
REMARK  status: ('A' for Active; 'I' for Inactive)
REMARK    1  A    between atoms: O_2  and  C_3
REMARK    2  A    between atoms: C_3  and  C_4
REMARK    3  A    between atoms: C_4  and  N_5
REMARK    4  A    between atoms: N_5  and  C_6
REMARK    5  A    between atoms: C_10  and  C_21
REMARK    6  A    between atoms: C_21  and  O_23
REMARK    7  A    between atoms: C_25  and  C_27
REMARK                            x       y       z     vdW  Elec       q    Type
REMARK                         _______ _______ _______ _____ _____    ______ ____
ROOT
ATOM      6  C   UNL     1      -3.700   1.929  24.559  0.00  0.00    +0.076 C 
ATOM      7  C   UNL     1      -3.885   1.134  24.448  0.00  0.00    +0.040 C 
ATOM      8  C   UNL     1      -3.297   0.559  24.513  0.00  0.00    +0.100 C 
ATOM      9  N   UNL     1      -2.522   0.781  24.689  0.00  0.00    -0.258 NA
ATOM     10  C   UNL     1      -1.933   0.207  24.754  0.00  0.00    +0.162 C 
ATOM     11  C   UNL     1      -2.119  -0.589  24.644  0.00  0.00    +0.055 C 
ATOM     12  C   UNL     1      -2.894  -0.811  24.469  0.00  0.00    -0.004 A 
ATOM     13  C   UNL     1      -3.483  -0.237  24.403  0.00  0.00    +0.070 A 
ATOM     14  N   UNL     1      -4.192  -0.619  24.226  0.00  0.00    -0.249 NA
ATOM     15  C   UNL     1      -4.043  -1.428  24.182  0.00  0.00    +0.081 A 
ATOM     16  C   UNL     1      -3.240  -1.547  24.332  0.00  0.00    +0.015 A 
ATOM     17  C   UNL     1      -2.927  -2.311  24.324  0.00  0.00    +0.001 A 
ATOM     18  C   UNL     1      -3.418  -2.956  24.167  0.00  0.00    +0.000 A 
ATOM     19  C   UNL     1      -4.221  -2.837  24.017  0.00  0.00    +0.002 A 
ATOM     20  C   UNL     1      -4.533  -2.073  24.025  0.00  0.00    +0.019 A 
ATOM     25  C   UNL     1      -2.336   1.578  24.799  0.00  0.00    +0.082 C 
ATOM     26  C   UNL     1      -2.925   2.151  24.734  0.00  0.00    +0.038 C 
ENDROOT
BRANCH  25  27
ATOM     27  C   UNL     1      -1.561   1.799  24.975  0.00  0.00    -0.005 A 
ATOM     28  C   UNL     1      -1.083   2.124  24.386  0.00  0.00    +0.029 A 
ATOM     29  C   UNL     1      -0.308   2.346  24.561  0.00  0.00    +0.167 A 
ATOM     30  F   UNL     1       0.171   2.671  23.972  0.00  0.00    -0.202 F 
ATOM     31  C   UNL     1      -0.011   2.242  25.324  0.00  0.00    +0.167 A 
ATOM     32  F   UNL     1       0.765   2.464  25.498  0.00  0.00    -0.202 F 
ATOM     33  C   UNL     1      -0.488   1.917  25.911  0.00  0.00    +0.032 A 
ATOM     34  C   UNL     1      -1.264   1.695  25.737  0.00  0.00    -0.001 A 
ENDBRANCH  25  27
BRANCH  10  21
ATOM     21  C   UNL     1      -1.158   0.429  24.930  0.00  0.00    +0.332 C 
ATOM     22  O   UNL     1      -0.562   0.821  25.344  0.00  0.00    -0.249 OA
BRANCH  21  23
ATOM     23  O   UNL     1      -0.533   0.137  24.478  0.00  0.00    -0.443 OA
ATOM     24  C   UNL     1      -0.128  -0.539  24.724  0.00  0.00    +0.256 C 
ENDBRANCH  21  23
ENDBRANCH  10  21
BRANCH   6   5
ATOM      5  N   UNL     1      -4.289   2.504  24.493  0.00  0.00    -0.217 NA
BRANCH   5   4
ATOM      4  C   UNL     1      -4.649   2.804  25.171  0.00  0.00    +0.121 C 
BRANCH   4   3
ATOM      3  C   UNL     1      -5.291   3.317  25.105  0.00  0.00    +0.161 C 
BRANCH   3   2
ATOM      1  C   UNL     1      -5.982   4.412  25.709  0.00  0.00    +0.174 C 
ATOM      2  O   UNL     1      -5.596   3.686  25.777  0.00  0.00    -0.350 OA
ENDBRANCH   3   2
ENDBRANCH   4   3
ENDBRANCH   5   4
ENDBRANCH   6   5
TORSDOF 7
ENDMDL
MODEL 5
REMARK VINA RESULT:     -11.3      1.871      2.419
REMARK  Name = 
REMARK  7 active torsions:
REMARK  status: ('A' for Active; 'I' for Inactive)
REMARK    1  A    between atoms: O_2  and  C_3
REMARK    2  A    between atoms: C_3  and  C_4
REMARK    3  A    between atoms: C_4  and  N_5
REMARK    4  A    between atoms: N_5  and  C_6
REMARK    5  A    between atoms: C_10  and  C_21
REMARK    6  A    between atoms: C_21  and  O_23
REMARK    7  A    between atoms: C_25  and  C_27
REMARK                            x       y       z     vdW  Elec       q    Type
REMARK                         _______ _______ _______ _____ _____    ______ ____
ROOT
ATOM      6  C   UNL     1      -2.779   0.734  24.523  0.00  0.00    +0.076 C 
ATOM      7  C   UNL     1      -2.305   1.407  24.570  0.00  0.00    +0.040 C 
ATOM      8  C   UNL     1      -2.643   2.139  24.741  0.00  0.00    +0.100 C 
ATOM      9  N   UNL     1      -3.456   2.199  24.865  0.00  0.00    -0.258 NA
ATOM     10  C   UNL     1      -3.795   2.931  25.036  0.00  0.00    +0.162 C 
ATOM     11  C   UNL     1      -3.321   3.604  25.084  0.00  0.00    +0.055 C 
ATOM     12  C   UNL     1      -2.507   3.545  24.960  0.00  0.00    -0.004 A 
ATOM     13  C   UNL     1      -2.168   2.813  24.789  0.00  0.00    +0.070 A 
ATOM     14  N   UNL     1      -1.356   2.923  24.694  0.00  0.00    -0.249 NA
ATOM     15  C   UNL     1      -1.193   3.723  24.807  0.00  0.00    +0.081 A 
ATOM     16  C   UNL     1      -1.905   4.108  24.971  0.00  0.00    +0.015 A 
ATOM     17  C   UNL     1      -1.912   4.921  25.110  0.00  0.00    +0.001 A 
ATOM     18  C   UNL     1      -1.207   5.351  25.084  0.00  0.00    +0.000 A 
ATOM     19  C   UNL     1      -0.495   4.966  24.919  0.00  0.00    +0.002 A 
ATOM     20  C   UNL     1      -0.488   4.153  24.781  0.00  0.00    +0.019 A 
ATOM     25  C   UNL     1      -3.931   1.525  24.817  0.00  0.00    +0.082 C 
ATOM     26  C   UNL     1      -3.592   0.794  24.646  0.00  0.00    +0.038 C 
ENDROOT
BRANCH  25  27
ATOM     27  C   UNL     1      -4.744   1.585  24.941  0.00  0.00    -0.005 A 
ATOM     28  C   UNL     1      -5.066   1.376  25.672  0.00  0.00    +0.029 A 
ATOM     29  C   UNL     1      -5.879   1.436  25.797  0.00  0.00    +0.167 A 
ATOM     30  F   UNL     1      -6.201   1.227  26.527  0.00  0.00    -0.202 F 
ATOM     31  C   UNL     1      -6.371   1.706  25.191  0.00  0.00    +0.167 A 
ATOM     32  F   UNL     1      -7.185   1.765  25.316  0.00  0.00    -0.202 F 
ATOM     33  C   UNL     1      -6.049   1.915  24.461  0.00  0.00    +0.032 A 
ATOM     34  C   UNL     1      -5.236   1.854  24.336  0.00  0.00    -0.001 A 
ENDBRANCH  25  27
BRANCH  10  21
ATOM     21  C   UNL     1      -4.609   2.991  25.160  0.00  0.00    +0.332 C 
ATOM     22  O   UNL     1      -5.406   2.841  25.012  0.00  0.00    -0.249 OA
BRANCH  21  23
ATOM     23  O   UNL     1      -4.900   3.455  25.776  0.00  0.00    -0.443 OA
ATOM     24  C   UNL     1      -5.262   4.178  25.611  0.00  0.00    +0.256 C 
ENDBRANCH  21  23
ENDBRANCH  10  21
BRANCH   6   5
ATOM      5  N   UNL     1      -2.440   0.001  24.351  0.00  0.00    -0.217 NA
BRANCH   5   4
ATOM      4  C   UNL     1      -1.978  -0.382  24.917  0.00  0.00    +0.121 C 
BRANCH   4   3
ATOM      3  C   UNL     1      -1.574  -1.073  24.720  0.00  0.00    +0.161 C 
BRANCH   3   2
ATOM      1  C   UNL     1      -0.435  -1.743  25.264  0.00  0.00    +0.174 C 
ATOM      2  O   UNL     1      -1.232  -1.535  25.313  0.00  0.00    -0.350 OA
ENDBRANCH   3   2
ENDBRANCH   4   3
ENDBRANCH   5   4
ENDBRANCH   6   5
TORSDOF 7
ENDMDL
MODEL 6
REMARK VINA RESULT:     -11.1      2.036      3.594
REMARK  Name = 
REMARK  7 active torsions:
REMARK  status: ('A' for Active; 'I' for Inactive)
REMARK    1  A    between atoms: O_2  and  C_3
REMARK    2  A    between atoms: C_3  and  C_4
REMARK    3  A    between atoms: C_4  and  N_5
REMARK    4  A    between atoms: N_5  and  C_6
REMARK    5  A    between atoms: C_10  and  C_21
REMARK    6  A    between atoms: C_21  and  O_23
REMARK    7  A    between atoms: C_25  and  C_27
REMARK                            x       y       z     vdW  Elec       q    Type
REMARK                         _______ _______ _______ _____ _____    ______ ____
ROOT
ATOM      6  C   UNL     1      -3.846   0.271  24.141  0.00  0.00    +0.076 C 
ATOM      7  C   UNL     1      -3.032   0.399  24.106  0.00  0.00    +0.040 C 
ATOM      8  C   UNL     1      -2.718   1.124  24.342  0.00  0.00    +0.100 C 
ATOM      9  N   UNL     1      -3.218   1.721  24.612  0.00  0.00    -0.258 NA
ATOM     10  C   UNL     1      -2.904   2.447  24.848  0.00  0.00    +0.162 C 
ATOM     11  C   UNL     1      -2.090   2.575  24.813  0.00  0.00    +0.055 C 
ATOM     12  C   UNL     1      -1.590   1.977  24.543  0.00  0.00    -0.004 A 
ATOM     13  C   UNL     1      -1.903   1.252  24.307  0.00  0.00    +0.070 A 
ATOM     14  N   UNL     1      -1.278   0.770  24.067  0.00  0.00    -0.249 NA
ATOM     15  C   UNL     1      -0.579   1.197  24.154  0.00  0.00    +0.081 A 
ATOM     16  C   UNL     1      -0.771   1.944  24.448  0.00  0.00    +0.015 A 
ATOM     17  C   UNL     1      -0.175   2.496  24.592  0.00  0.00    +0.001 A 
ATOM     18  C   UNL     1       0.613   2.303  24.442  0.00  0.00    +0.000 A 
ATOM     19  C   UNL     1       0.805   1.555  24.147  0.00  0.00    +0.002 A 
ATOM     20  C   UNL     1       0.210   1.003  24.003  0.00  0.00    +0.019 A 
ATOM     25  C   UNL     1      -4.032   1.593  24.647  0.00  0.00    +0.082 C 
ATOM     26  C   UNL     1      -4.346   0.868  24.411  0.00  0.00    +0.038 C 
ENDROOT
BRANCH  25  27
ATOM     27  C   UNL     1      -4.532   2.191  24.917  0.00  0.00    -0.005 A 
ATOM     28  C   UNL     1      -4.893   2.123  25.656  0.00  0.00    +0.029 A 
ATOM     29  C   UNL     1      -5.392   2.721  25.928  0.00  0.00    +0.167 A 
ATOM     30  F   UNL     1      -5.753   2.654  26.667  0.00  0.00    -0.202 F 
ATOM     31  C   UNL     1      -5.531   3.387  25.460  0.00  0.00    +0.167 A 
ATOM     32  F   UNL     1      -6.031   3.985  25.732  0.00  0.00    -0.202 F 
ATOM     33  C   UNL     1      -5.171   3.455  24.722  0.00  0.00    +0.032 A 
ATOM     34  C   UNL     1      -4.671   2.857  24.450  0.00  0.00    -0.001 A 
ENDBRANCH  25  27
BRANCH  10  21
ATOM     21  C   UNL     1      -3.404   3.045  25.118  0.00  0.00    +0.332 C 
ATOM     22  O   UNL     1      -4.059   3.546  25.098  0.00  0.00    -0.249 OA
BRANCH  21  23
ATOM     23  O   UNL     1      -3.233   3.440  25.822  0.00  0.00    -0.443 OA
ATOM     24  C   UNL     1      -2.879   4.186  25.800  0.00  0.00    +0.256 C 
ENDBRANCH  21  23
ENDBRANCH  10  21
BRANCH   6   5
ATOM      5  N   UNL     1      -4.160  -0.455  23.905  0.00  0.00    -0.217 NA
BRANCH   5   4
ATOM      4  C   UNL     1      -4.037  -1.127  24.367  0.00  0.00    +0.121 C 
BRANCH   4   3
ATOM      3  C   UNL     1      -4.115  -1.877  24.033  0.00  0.00    +0.161 C 
BRANCH   3   2
ATOM      1  C   UNL     1      -3.570  -3.167  24.315  0.00  0.00    +0.174 C 
ATOM      2  O   UNL     1      -4.078  -2.548  24.512  0.00  0.00    -0.350 OA
ENDBRANCH   3   2
ENDBRANCH   4   3
ENDBRANCH   5   4
ENDBRANCH   6   5
TORSDOF 7
ENDMDL
MODEL 7
REMARK VINA RESULT:     -11.1      1.934      3.895
REMARK  Name = 
REMARK  7 active torsions:
REMARK  status: ('A' for Active; 'I' for Inactive)
REMARK    1  A    between atoms: O_2  and  C_3
REMARK    2  A    between atoms: C_3  and  C_4
REMARK    3  A    between atoms: C_4  and  N_5
REMARK    4  A    between atoms: N_5  and  C_6
REMARK    5  A    between atoms: C_10  and  C_21
REMARK    6  A    between atoms: C_21  and  O_23
REMARK    7  A    between atoms: C_25  and  C_27
REMARK                            x       y       z     vdW  Elec       q    Type
REMARK                         _______ _______ _______ _____ _____    ______ ____
ROOT
ATOM      6  C   UNL     1      -0.235   1.095  24.407  0.00  0.00    +0.076 C 
ATOM      7  C   UNL     1      -0.858   0.561  24.333  0.00  0.00    +0.040 C 
ATOM      8  C   UNL     1      -1.631   0.804  24.486  0.00  0.00    +0.100 C 
ATOM      9  N   UNL     1      -1.781   1.583  24.713  0.00  0.00    -0.258 NA
ATOM     10  C   UNL     1      -2.554   1.827  24.866  0.00  0.00    +0.162 C 
ATOM     11  C   UNL     1      -3.177   1.293  24.792  0.00  0.00    +0.055 C 
ATOM     12  C   UNL     1      -3.028   0.514  24.564  0.00  0.00    -0.004 A 
ATOM     13  C   UNL     1      -2.255   0.269  24.412  0.00  0.00    +0.070 A 
ATOM     14  N   UNL     1      -2.277  -0.527  24.199  0.00  0.00    -0.249 NA
ATOM     15  C   UNL     1      -3.062  -0.776  24.220  0.00  0.00    +0.081 A 
ATOM     16  C   UNL     1      -3.527  -0.132  24.446  0.00  0.00    +0.015 A 
ATOM     17  C   UNL     1      -4.345  -0.218  24.515  0.00  0.00    +0.001 A 
ATOM     18  C   UNL     1      -4.699  -0.947  24.358  0.00  0.00    +0.000 A 
ATOM     19  C   UNL     1      -4.233  -1.591  24.132  0.00  0.00    +0.002 A 
ATOM     20  C   UNL     1      -3.416  -1.505  24.063  0.00  0.00    +0.019 A 
ATOM     25  C   UNL     1      -1.157   2.118  24.787  0.00  0.00    +0.082 C 
ATOM     26  C   UNL     1      -0.384   1.874  24.634  0.00  0.00    +0.038 C 
ENDROOT
BRANCH  25  27
ATOM     27  C   UNL     1      -1.307   2.897  25.014  0.00  0.00    -0.005 A 
ATOM     28  C   UNL     1      -1.251   3.505  24.459  0.00  0.00    +0.029 A 
ATOM     29  C   UNL     1      -1.402   4.284  24.686  0.00  0.00    +0.167 A 
ATOM     30  F   UNL     1      -1.346   4.893  24.131  0.00  0.00    -0.202 F 
ATOM     31  C   UNL     1      -1.607   4.455  25.467  0.00  0.00    +0.167 A 
ATOM     32  F   UNL     1      -1.758   5.235  25.692  0.00  0.00    -0.202 F 
ATOM     33  C   UNL     1      -1.663   3.847  26.020  0.00  0.00    +0.032 A 
ATOM     34  C   UNL     1      -1.513   3.068  25.794  0.00  0.00    -0.001 A 
ENDBRANCH  25  27
BRANCH  10  21
ATOM     21  C   UNL     1      -2.704   2.606  25.093  0.00  0.00    +0.332 C 
ATOM     22  O   UNL     1      -2.585   3.303  25.519  0.00  0.00    -0.249 OA
BRANCH  21  23
ATOM     23  O   UNL     1      -3.320   3.027  24.742  0.00  0.00    -0.443 OA
ATOM     24  C   UNL     1      -4.030   3.133  25.149  0.00  0.00    +0.256 C 
ENDBRANCH  21  23
ENDBRANCH  10  21
BRANCH   6   5
ATOM      5  N   UNL     1       0.539   0.851  24.255  0.00  0.00    -0.217 NA
BRANCH   5   4
ATOM      4  C   UNL     1       0.762   0.642  23.489  0.00  0.00    +0.121 C 
BRANCH   4   3
ATOM      3  C   UNL     1       1.552   0.480  23.319  0.00  0.00    +0.161 C 
BRANCH   3   2
ATOM      1  C   UNL     1       2.535   0.058  22.372  0.00  0.00    +0.174 C 
ATOM      2  O   UNL     1       1.751   0.075  22.628  0.00  0.00    -0.350 OA
ENDBRANCH   3   2
ENDBRANCH   4   3
ENDBRANCH   5   4
ENDBRANCH   6   5
TORSDOF 7
ENDMDL
MODEL 8
REMARK VINA RESULT:     -11.0      1.876      3.598
REMARK  Name = 
REMARK  7 active torsions:
REMARK  status: ('A' for Active; 'I' for Inactive)
REMARK    1  A    between atoms: O_2  and  C_3
REMARK    2  A    between atoms: C_3  and  C_4
REMARK    3  A    between atoms: C_4  and  N_5
REMARK    4  A    between atoms: N_5  and  C_6
REMARK    5  A    between atoms: C_10  and  C_21
REMARK    6  A    between atoms: C_21  and  O_23
REMARK    7  A    between atoms: C_25  and  C_27
REMARK                            x       y       z     vdW  Elec       q    Type
REMARK                         _______ _______ _______ _____ _____    ______ ____
ROOT
ATOM      6  C   UNL     1      -1.512   2.154  24.536  0.00  0.00    +0.076 C 
ATOM      7  C   UNL     1      -2.329   2.255  24.589  0.00  0.00    +0.040 C 
ATOM      8  C   UNL     1      -2.813   1.614  24.774  0.00  0.00    +0.100 C 
ATOM      9  N   UNL     1      -2.480   0.871  24.906  0.00  0.00    -0.258 NA
ATOM     10  C   UNL     1      -2.964   0.228  25.091  0.00  0.00    +0.162 C 
ATOM     11  C   UNL     1      -3.780   0.329  25.145  0.00  0.00    +0.055 C 
ATOM     12  C   UNL     1      -4.114   1.072  25.013  0.00  0.00    -0.004 A 
ATOM     13  C   UNL     1      -3.630   1.715  24.828  0.00  0.00    +0.070 A 
ATOM     14  N   UNL     1      -4.112   2.376  24.727  0.00  0.00    -0.249 NA
ATOM     15  C   UNL     1      -4.893   2.144  24.850  0.00  0.00    +0.081 A 
ATOM     16  C   UNL     1      -4.895   1.337  25.027  0.00  0.00    +0.015 A 
ATOM     17  C   UNL     1      -5.607   0.949  25.177  0.00  0.00    +0.001 A 
ATOM     18  C   UNL     1      -6.319   1.366  25.152  0.00  0.00    +0.000 A 
ATOM     19  C   UNL     1      -6.317   2.173  24.975  0.00  0.00    +0.002 A 
ATOM     20  C   UNL     1      -5.605   2.562  24.824  0.00  0.00    +0.019 A 
ATOM     25  C   UNL     1      -1.662   0.770  24.853  0.00  0.00    +0.082 C 
ATOM     26  C   UNL     1      -1.179   1.411  24.668  0.00  0.00    +0.038 C 
ENDROOT
BRANCH  25  27
ATOM     27  C   UNL     1      -1.330   0.026  24.985  0.00  0.00    -0.005 A 
ATOM     28  C   UNL     1      -1.083  -0.433  24.346  0.00  0.00    +0.029 A 
ATOM     29  C   UNL     1      -0.750  -1.177  24.477  0.00  0.00    +0.167 A 
ATOM     30  F   UNL     1      -0.503  -1.637  23.838  0.00  0.00    -0.202 F 
ATOM     31  C   UNL     1      -0.665  -1.461  25.247  0.00  0.00    +0.167 A 
ATOM     32  F   UNL     1      -0.332  -2.205  25.378  0.00  0.00    -0.202 F 
ATOM     33  C   UNL     1      -0.912  -1.002  25.886  0.00  0.00    +0.032 A 
ATOM     34  C   UNL     1      -1.245  -0.258  25.755  0.00  0.00    -0.001 A 
ENDBRANCH  25  27
BRANCH  10  21
ATOM     21  C   UNL     1      -2.631  -0.515  25.223  0.00  0.00    +0.332 C 
ATOM     22  O   UNL     1      -2.085  -1.053  25.531  0.00  0.00    -0.249 OA
BRANCH  21  23
ATOM     23  O   UNL     1      -2.976  -1.187  24.893  0.00  0.00    -0.443 OA
ATOM     24  C   UNL     1      -3.442  -1.683  25.360  0.00  0.00    +0.256 C 
ENDBRANCH  21  23
ENDBRANCH  10  21
BRANCH   6   5
ATOM      5  N   UNL     1      -1.028   2.797  24.351  0.00  0.00    -0.217 NA
BRANCH   5   4
ATOM      4  C   UNL     1      -0.973   3.435  24.870  0.00  0.00    +0.121 C 
BRANCH   4   3
ATOM      3  C   UNL     1      -0.672   4.156  24.607  0.00  0.00    +0.161 C 
BRANCH   3   2
ATOM      1  C   UNL     1      -1.039   5.505  24.902  0.00  0.00    +0.174 C 
ATOM      2  O   UNL     1      -0.655   4.806  25.115  0.00  0.00    -0.350 OA
ENDBRANCH   3   2
ENDBRANCH   4   3
ENDBRANCH   5   4
ENDBRANCH   6   5
TORSDOF 7
ENDMDL
