MODEL 1
REMARK VINA RESULT:     -11.5      0.000      0.000
REMARK  Name = 
REMARK  5 active torsions:
REMARK  status: ('A' for Active; 'I' for Inactive)
REMARK    1  A    between atoms: N_3  and  C_4
REMARK    2  A    between atoms: C_8  and  N_12
REMARK    3  A    between atoms: C_16  and  O_17
REMARK    4  A    between atoms: O_17  and  C_18
REMARK    5  A    between atoms: N_24  and  C_25
REMARK                            x       y       z     vdW  Elec       q    Type
REMARK                         _______ _______ _______ _____ _____    ______ ____
ROOT
ATOM      4  C   UNL     1      -0.492   1.269  25.149  0.00  0.00    +0.156 C 
ATOM      5  C   UNL     1      -0.379   1.148  24.341  0.00  0.00    +0.166 C 
ATOM      6  O   UNL     1      -0.547   0.358  24.177  0.00  0.00    -0.350 OA
ATOM      7  C   UNL     1      -0.763  -0.010  24.882  0.00  0.00    +0.169 C 
ATOM      8  C   UNL     1      -1.001  -0.725  25.218  0.00  0.00    +0.170 C 
ATOM      9  C   UNL     1      -1.113  -0.604  26.025  0.00  0.00    +0.169 C 
ATOM     10  O   UNL     1      -0.945   0.187  26.190  0.00  0.00    -0.350 OA
ATOM     11  C   UNL     1      -0.729   0.554  25.483  0.00  0.00    +0.167 C 
ENDROOT
BRANCH   8  12
ATOM     12  N   UNL     1      -1.107  -1.437  24.815  0.00  0.00    -0.180 N 
ATOM     13  N   UNL     1      -0.512  -1.891  24.465  0.00  0.00    -0.040 NA
ATOM     14  N   UNL     1      -0.864  -2.555  24.125  0.00  0.00    -0.020 NA
ATOM     15  N   UNL     1      -1.676  -2.512  24.264  0.00  0.00    -0.071 NA
ATOM     16  C   UNL     1      -1.826  -1.821  24.690  0.00  0.00    +0.343 A 
BRANCH  16  17
ATOM     17  O   UNL     1      -2.566  -1.561  24.946  0.00  0.00    -0.421 OA
BRANCH  17  18
ATOM     18  C   UNL     1      -3.249  -1.811  24.557  0.00  0.00    +0.149 A 
ATOM     19  C   UNL     1      -3.677  -1.280  24.093  0.00  0.00    +0.038 A 
ATOM     20  C   UNL     1      -4.360  -1.530  23.703  0.00  0.00    +0.003 A 
ATOM     21  C   UNL     1      -4.615  -2.311  23.778  0.00  0.00    +0.000 A 
ATOM     22  C   UNL     1      -4.187  -2.842  24.243  0.00  0.00    +0.003 A 
ATOM     23  C   UNL     1      -3.504  -2.592  24.632  0.00  0.00    +0.038 A 
ENDBRANCH  17  18
ENDBRANCH  16  17
ENDBRANCH   8  12
BRANCH   4   3
ATOM      1  O   UNL     1      -1.321   2.615  24.677  0.00  0.00    -0.249 OA
ATOM      2  C   UNL     1      -0.800   2.655  25.316  0.00  0.00    +0.339 C 
ATOM      3  N   UNL     1      -0.386   1.982  25.552  0.00  0.00    -0.184 NA
ATOM     24  N   UNL     1      -0.694   3.367  25.718  0.00  0.00    -0.189 NA
BRANCH  24  25
ATOM     25  C   UNL     1      -1.109   4.040  25.483  0.00  0.00    +0.097 C 
ATOM     26  C   UNL     1      -1.897   4.139  25.704  0.00  0.00    +0.022 C 
ATOM     27  C   UNL     1      -2.311   4.812  25.469  0.00  0.00    +0.002 C 
ATOM     28  C   UNL     1      -1.937   5.387  25.011  0.00  0.00    +0.000 C 
ATOM     29  C   UNL     1      -1.148   5.289  24.789  0.00  0.00    +0.002 C 
ATOM     30  C   UNL     1      -0.734   4.616  25.025  0.00  0.00    +0.022 C 
ENDBRANCH  24  25
ENDBRANCH   4   3
TORSDOF 5
ENDMDL
MODEL 2
REMARK VINA RESULT:     -10.9      0.622      5.606
REMARK  Name = 
REMARK  5 active torsions:
REMARK  status: ('A' for Active; 'I' for Inactive)
REMARK    1  A    between atoms: N_3  and  C_4
REMARK    2  A    between atoms: C_8  and  N_12
REMARK    3  A    between atoms: C_16  and  O_17
REMARK    4  A    between atoms: O_17  and  C_18
REMARK    5  A    between atoms: N_24  and  C_25
REMARK                            x       y       z     vdW  Elec       q    Type
REMARK                         _______ _______ _______ _____ _____    ______ ____
ROOT
ATOM      4  C   UNL     1      -1.044  -0.300  25.025  0.00  0.00    +0.156 C 
ATOM      5  C   UNL     1      -1.220  -0.197  25.824  0.00  0.00    +0.166 C 
ATOM      6  O   UNL     1      -0.917   0.533  26.059  0.00  0.00    -0.350 OA
ATOM      7  C   UNL     1      -0.554   0.881  25.406  0.00  0.00    +0.169 C 
ATOM      8  C   UNL     1      -0.142   1.547  25.146  0.00  0.00    +0.170 C 
ATOM      9  C   UNL     1       0.035   1.444  24.347  0.00  0.00    +0.169 C 
ATOM     10  O   UNL     1      -0.269   0.714  24.112  0.00  0.00    -0.350 OA
ATOM     11  C   UNL     1      -0.632   0.366  24.767  0.00  0.00    +0.167 C 
ENDROOT
BRANCH   8  12
ATOM     12  N   UNL     1       0.059   2.202  25.606  0.00  0.00    -0.180 N 
ATOM     13  N   UNL     1       0.624   2.219  26.208  0.00  0.00    -0.040 NA
ATOM     14  N   UNL     1       0.644   2.982  26.519  0.00  0.00    -0.020 NA
ATOM     15  N   UNL     1       0.092   3.438  26.110  0.00  0.00    -0.071 NA
ATOM     16  C   UNL     1      -0.269   2.956  25.546  0.00  0.00    +0.343 A 
BRANCH  16  17
ATOM     17  O   UNL     1      -0.857   3.188  25.015  0.00  0.00    -0.421 OA
BRANCH  17  18
ATOM     18  C   UNL     1      -1.240   3.913  25.113  0.00  0.00    +0.149 A 
ATOM     19  C   UNL     1      -0.897   4.603  24.822  0.00  0.00    +0.038 A 
ATOM     20  C   UNL     1      -1.279   5.327  24.920  0.00  0.00    +0.003 A 
ATOM     21  C   UNL     1      -2.006   5.360  25.311  0.00  0.00    +0.000 A 
ATOM     22  C   UNL     1      -2.349   4.669  25.603  0.00  0.00    +0.003 A 
ATOM     23  C   UNL     1      -1.966   3.945  25.504  0.00  0.00    +0.038 A 
ENDBRANCH  17  18
ENDBRANCH  16  17
ENDBRANCH   8  12
BRANCH   4   3
ATOM      1  O   UNL     1      -2.596  -0.860  25.020  0.00  0.00    -0.249 OA
ATOM      2  C   UNL     1      -2.021  -1.236  24.562  0.00  0.00    +0.339 C 
ATOM      3  N   UNL     1      -1.245  -0.955  24.565  0.00  0.00    -0.184 NA
ATOM     24  N   UNL     1      -2.221  -1.890  24.103  0.00  0.00    -0.189 NA
BRANCH  24  25
ATOM     25  C   UNL     1      -2.997  -2.170  24.099  0.00  0.00    +0.097 C 
ATOM     26  C   UNL     1      -3.593  -1.734  23.732  0.00  0.00    +0.022 C 
ATOM     27  C   UNL     1      -4.369  -2.014  23.729  0.00  0.00    +0.002 C 
ATOM     28  C   UNL     1      -4.549  -2.732  24.094  0.00  0.00    +0.000 C 
ATOM     29  C   UNL     1      -3.953  -3.169  24.462  0.00  0.00    +0.002 C 
ATOM     30  C   UNL     1      -3.178  -2.888  24.464  0.00  0.00    +0.022 C 
ENDBRANCH  24  25
ENDBRANCH   4   3
TORSDOF 5
ENDMDL
MODEL 3
REMARK VINA RESULT:      -9.9      2.318      6.226
REMARK  Name = 
REMARK  5 active torsions:
REMARK  status: ('A' for Active; 'I' for Inactive)
REMARK    1  A    between atoms: N_3  and  C_4
REMARK    2  A    between atoms: C_8  and  N_12
REMARK    3  A    between atoms: C_16  and  O_17
REMARK    4  A    between atoms: O_17  and  C_18
REMARK    5  A    between atoms: N_24  and  C_25
REMARK                            x       y       z     vdW  Elec       q    Type
REMARK                         _______ _______ _______ _____ _____    ______ ____
ROOT
ATOM      4  C   UNL     1      -4.180   0.757  24.570  0.00  0.00    +0.156 C 
ATOM      5  C   UNL     1      -3.843   0.891  23.830  0.00  0.00    +0.166 C 
ATOM      6  O   UNL     1      -3.769   1.706  23.728  0.00  0.00    -0.350 OA
ATOM      7  C   UNL     1      -4.060   2.076  24.405  0.00  0.00    +0.169 C 
ATOM      8  C   UNL     1      -4.194   2.808  24.762  0.00  0.00    +0.170 C 
ATOM      9  C   UNL     1      -4.531   2.674  25.502  0.00  0.00    +0.169 C 
ATOM     10  O   UNL     1      -4.606   1.858  25.604  0.00  0.00    -0.350 OA
ATOM     11  C   UNL     1      -4.314   1.489  24.926  0.00  0.00    +0.167 C 
ENDROOT
BRANCH   8  12
ATOM     12  N   UNL     1      -4.021   3.545  24.434  0.00  0.00    -0.180 N 
ATOM     13  N   UNL     1      -4.470   3.942  23.866  0.00  0.00    -0.040 NA
ATOM     14  N   UNL     1      -4.095   4.657  23.698  0.00  0.00    -0.020 NA
ATOM     15  N   UNL     1      -3.415   4.702  24.161  0.00  0.00    -0.071 NA
ATOM     16  C   UNL     1      -3.369   4.016  24.616  0.00  0.00    +0.343 A 
BRANCH  16  17
ATOM     17  O   UNL     1      -2.774   3.832  25.158  0.00  0.00    -0.421 OA
BRANCH  17  18
ATOM     18  C   UNL     1      -2.024   4.166  25.077  0.00  0.00    +0.149 A 
ATOM     19  C   UNL     1      -1.906   4.963  25.250  0.00  0.00    +0.038 A 
ATOM     20  C   UNL     1      -1.157   5.297  25.169  0.00  0.00    +0.003 A 
ATOM     21  C   UNL     1      -0.524   4.833  24.914  0.00  0.00    +0.000 A 
ATOM     22  C   UNL     1      -0.641   4.034  24.740  0.00  0.00    +0.003 A 
ATOM     23  C   UNL     1      -1.392   3.701  24.822  0.00  0.00    +0.038 A 
ENDBRANCH  17  18
ENDBRANCH  16  17
ENDBRANCH   8  12
BRANCH   4   3
ATOM      1  O   UNL     1      -3.289  -0.564  24.144  0.00  0.00    -0.249 OA
ATOM      2  C   UNL     1      -3.908  -0.642  24.685  0.00  0.00    +0.339 C 
ATOM      3  N   UNL     1      -4.353   0.020  24.898  0.00  0.00    -0.184 NA
ATOM     24  N   UNL     1      -4.080  -1.378  25.012  0.00  0.00    -0.189 NA
BRANCH  24  25
ATOM     25  C   UNL     1      -3.635  -2.039  24.800  0.00  0.00    +0.097 C 
ATOM     26  C   UNL     1      -2.890  -2.160  25.132  0.00  0.00    +0.022 C 
ATOM     27  C   UNL     1      -2.444  -2.821  24.919  0.00  0.00    +0.002 C 
ATOM     28  C   UNL     1      -2.745  -3.362  24.373  0.00  0.00    +0.000 C 
ATOM     29  C   UNL     1      -3.490  -3.242  24.041  0.00  0.00    +0.002 C 
ATOM     30  C   UNL     1      -3.935  -2.580  24.254  0.00  0.00    +0.022 C 
ENDBRANCH  24  25
ENDBRANCH   4   3
TORSDOF 5
ENDMDL
MODEL 4
REMARK VINA RESULT:      -9.5      1.141      5.406
REMARK  Name = 
REMARK  5 active torsions:
REMARK  status: ('A' for Active; 'I' for Inactive)
REMARK    1  A    between atoms: N_3  and  C_4
REMARK    2  A    between atoms: C_8  and  N_12
REMARK    3  A    between atoms: C_16  and  O_17
REMARK    4  A    between atoms: O_17  and  C_18
REMARK    5  A    between atoms: N_24  and  C_25
REMARK                            x       y       z     vdW  Elec       q    Type
REMARK                         _______ _______ _______ _____ _____    ______ ____
ROOT
ATOM      4  C   UNL     1      -0.890   0.397  24.563  0.00  0.00    +0.156 C 
ATOM      5  C   UNL     1      -1.083   0.757  23.847  0.00  0.00    +0.166 C 
ATOM      6  O   UNL     1      -1.080   1.574  23.964  0.00  0.00    -0.350 OA
ATOM      7  C   UNL     1      -0.885   1.719  24.751  0.00  0.00    +0.169 C 
ATOM      8  C   UNL     1      -0.762   2.312  25.311  0.00  0.00    +0.170 C 
ATOM      9  C   UNL     1      -0.568   1.952  26.027  0.00  0.00    +0.169 C 
ATOM     10  O   UNL     1      -0.572   1.136  25.911  0.00  0.00    -0.350 OA
ATOM     11  C   UNL     1      -0.767   0.991  25.122  0.00  0.00    +0.167 C 
ENDROOT
BRANCH   8  12
ATOM     12  N   UNL     1      -0.822   3.124  25.177  0.00  0.00    -0.180 N 
ATOM     13  N   UNL     1      -0.267   3.594  24.787  0.00  0.00    -0.040 NA
ATOM     14  N   UNL     1      -0.550   4.369  24.779  0.00  0.00    -0.020 NA
ATOM     15  N   UNL     1      -1.279   4.378  25.163  0.00  0.00    -0.071 NA
ATOM     16  C   UNL     1      -1.447   3.609  25.409  0.00  0.00    +0.343 A 
BRANCH  16  17
ATOM     17  O   UNL     1      -2.123   3.367  25.817  0.00  0.00    -0.421 OA
BRANCH  17  18
ATOM     18  C   UNL     1      -2.847   3.736  25.672  0.00  0.00    +0.149 A 
ATOM     19  C   UNL     1      -3.295   3.521  25.014  0.00  0.00    +0.038 A 
ATOM     20  C   UNL     1      -4.018   3.890  24.868  0.00  0.00    +0.003 A 
ATOM     21  C   UNL     1      -4.293   4.475  25.382  0.00  0.00    +0.000 A 
ATOM     22  C   UNL     1      -3.845   4.690  26.041  0.00  0.00    +0.003 A 
ATOM     23  C   UNL     1      -3.122   4.320  26.185  0.00  0.00    +0.038 A 
ENDBRANCH  17  18
ENDBRANCH  16  17
ENDBRANCH   8  12
BRANCH   4   3
ATOM      1  O   UNL     1      -2.228  -0.560  24.443  0.00  0.00    -0.249 OA
ATOM      2  C   UNL     1      -1.499  -0.894  24.637  0.00  0.00    +0.339 C 
ATOM      3  N   UNL     1      -0.830  -0.415  24.697  0.00  0.00    -0.184 NA
ATOM     24  N   UNL     1      -1.439  -1.705  24.771  0.00  0.00    -0.189 NA
BRANCH  24  25
ATOM     25  C   UNL     1      -2.108  -2.184  24.711  0.00  0.00    +0.097 C 
ATOM     26  C   UNL     1      -2.698  -2.143  25.285  0.00  0.00    +0.022 C 
ATOM     27  C   UNL     1      -3.367  -2.622  25.225  0.00  0.00    +0.002 C 
ATOM     28  C   UNL     1      -3.446  -3.143  24.590  0.00  0.00    +0.000 C 
ATOM     29  C   UNL     1      -2.855  -3.184  24.015  0.00  0.00    +0.002 C 
ATOM     30  C   UNL     1      -2.187  -2.705  24.076  0.00  0.00    +0.022 C 
ENDBRANCH  24  25
ENDBRANCH   4   3
TORSDOF 5
ENDMDL
MODEL 5
REMARK VINA RESULT:      -9.0      1.981      2.708
REMARK  Name = 
REMARK  5 active torsions:
REMARK  status: ('A' for Active; 'I' for Inactive)
REMARK    1  A    between atoms: N_3  and  C_4
REMARK    2  A    between atoms: C_8  and  N_12
REMARK    3  A    between atoms: C_16  and  O_17
REMARK    4  A    between atoms: O_17  and  C_18
REMARK    5  A    between atoms: N_24  and  C_25
REMARK                            x       y       z     vdW  Elec       q    Type
REMARK                         _______ _______ _______ _____ _____    ______ ____
ROOT
ATOM      4  C   UNL     1      -3.701   1.964  24.402  0.00  0.00    +0.156 C 
ATOM      5  C   UNL     1      -3.453   1.746  23.646  0.00  0.00    +0.166 C 
ATOM      6  O   UNL     1      -3.569   0.934  23.565  0.00  0.00    -0.350 OA
ATOM      7  C   UNL     1      -3.889   0.650  24.269  0.00  0.00    +0.169 C 
ATOM      8  C   UNL     1      -4.159  -0.027  24.656  0.00  0.00    +0.170 C 
ATOM      9  C   UNL     1      -4.407   0.191  25.412  0.00  0.00    +0.169 C 
ATOM     10  O   UNL     1      -4.290   1.003  25.493  0.00  0.00    -0.350 OA
ATOM     11  C   UNL     1      -3.970   1.287  24.787  0.00  0.00    +0.167 C 
ENDROOT
BRANCH   8  12
ATOM     12  N   UNL     1      -4.177  -0.790  24.341  0.00  0.00    -0.180 N 
ATOM     13  N   UNL     1      -4.724  -1.075  23.792  0.00  0.00    -0.040 NA
ATOM     14  N   UNL     1      -4.537  -1.862  23.632  0.00  0.00    -0.020 NA
ATOM     15  N   UNL     1      -3.875  -2.064  24.081  0.00  0.00    -0.071 NA
ATOM     16  C   UNL     1      -3.653  -1.401  24.519  0.00  0.00    +0.343 A 
BRANCH  16  17
ATOM     17  O   UNL     1      -3.018  -1.357  25.044  0.00  0.00    -0.421 OA
BRANCH  17  18
ATOM     18  C   UNL     1      -2.320  -1.768  24.883  0.00  0.00    +0.149 A 
ATOM     19  C   UNL     1      -2.311  -2.592  24.909  0.00  0.00    +0.038 A 
ATOM     20  C   UNL     1      -1.615  -3.003  24.748  0.00  0.00    +0.003 A 
ATOM     21  C   UNL     1      -0.926  -2.589  24.560  0.00  0.00    +0.000 A 
ATOM     22  C   UNL     1      -0.935  -1.764  24.534  0.00  0.00    +0.003 A 
ATOM     23  C   UNL     1      -1.632  -1.354  24.695  0.00  0.00    +0.038 A 
ENDBRANCH  17  18
ENDBRANCH  16  17
ENDBRANCH   8  12
BRANCH   4   3
ATOM      1  O   UNL     1      -2.285   2.811  24.429  0.00  0.00    -0.249 OA
ATOM      2  C   UNL     1      -2.974   3.151  24.731  0.00  0.00    +0.339 C 
ATOM      3  N   UNL     1      -3.682   2.727  24.717  0.00  0.00    -0.184 NA
ATOM     24  N   UNL     1      -2.956   3.913  25.045  0.00  0.00    -0.189 NA
BRANCH  24  25
ATOM     25  C   UNL     1      -2.248   4.337  25.059  0.00  0.00    +0.097 C 
ATOM     26  C   UNL     1      -1.576   4.007  25.405  0.00  0.00    +0.022 C 
ATOM     27  C   UNL     1      -0.868   4.431  25.419  0.00  0.00    +0.002 C 
ATOM     28  C   UNL     1      -0.833   5.185  25.086  0.00  0.00    +0.000 C 
ATOM     29  C   UNL     1      -1.505   5.515  24.740  0.00  0.00    +0.002 C 
ATOM     30  C   UNL     1      -2.213   5.091  24.726  0.00  0.00    +0.022 C 
ENDBRANCH  24  25
ENDBRANCH   4   3
TORSDOF 5
ENDMDL
MODEL 6
REMARK VINA RESULT:      -8.6      2.818      4.680
REMARK  Name = 
REMARK  5 active torsions:
REMARK  status: ('A' for Active; 'I' for Inactive)
REMARK    1  A    between atoms: N_3  and  C_4
REMARK    2  A    between atoms: C_8  and  N_12
REMARK    3  A    between atoms: C_16  and  O_17
REMARK    4  A    between atoms: O_17  and  C_18
REMARK    5  A    between atoms: N_24  and  C_25
REMARK                            x       y       z     vdW  Elec       q    Type
REMARK                         _______ _______ _______ _____ _____    ______ ____
ROOT
ATOM      4  C   UNL     1      -0.155   0.835  23.856  0.00  0.00    +0.156 C 
ATOM      5  C   UNL     1      -0.087   0.833  24.678  0.00  0.00    +0.166 C 
ATOM      6  O   UNL     1      -0.666   1.336  24.982  0.00  0.00    -0.350 OA
ATOM      7  C   UNL     1      -1.091   1.649  24.348  0.00  0.00    +0.169 C 
ATOM      8  C   UNL     1      -1.712   2.152  24.143  0.00  0.00    +0.170 C 
ATOM      9  C   UNL     1      -1.779   2.154  23.321  0.00  0.00    +0.169 C 
ATOM     10  O   UNL     1      -1.201   1.651  23.018  0.00  0.00    -0.350 OA
ATOM     11  C   UNL     1      -0.775   1.338  23.652  0.00  0.00    +0.167 C 
ENDROOT
BRANCH   8  12
ATOM     12  N   UNL     1      -2.183   2.580  24.669  0.00  0.00    -0.180 N 
ATOM     13  N   UNL     1      -1.927   3.188  25.165  0.00  0.00    -0.040 NA
ATOM     14  N   UNL     1      -2.578   3.458  25.594  0.00  0.00    -0.020 NA
ATOM     15  N   UNL     1      -3.235   3.017  25.363  0.00  0.00    -0.071 NA
ATOM     16  C   UNL     1      -2.991   2.474  24.792  0.00  0.00    +0.343 A 
BRANCH  16  17
ATOM     17  O   UNL     1      -3.472   1.923  24.410  0.00  0.00    -0.421 OA
BRANCH  17  18
ATOM     18  C   UNL     1      -4.247   1.803  24.668  0.00  0.00    +0.149 A 
ATOM     19  C   UNL     1      -4.840   2.333  24.452  0.00  0.00    +0.038 A 
ATOM     20  C   UNL     1      -5.614   2.214  24.709  0.00  0.00    +0.003 A 
ATOM     21  C   UNL     1      -5.796   1.562  25.183  0.00  0.00    +0.000 A 
ATOM     22  C   UNL     1      -5.202   1.031  25.398  0.00  0.00    +0.003 A 
ATOM     23  C   UNL     1      -4.428   1.152  25.141  0.00  0.00    +0.038 A 
ENDBRANCH  17  18
ENDBRANCH  16  17
ENDBRANCH   8  12
BRANCH   4   3
ATOM      1  O   UNL     1       1.485   1.015  23.883  0.00  0.00    -0.249 OA
ATOM      2  C   UNL     1       1.136   0.497  23.343  0.00  0.00    +0.339 C 
ATOM      3  N   UNL     1       0.316   0.407  23.330  0.00  0.00    -0.184 NA
ATOM     24  N   UNL     1       1.606   0.070  22.818  0.00  0.00    -0.189 NA
BRANCH  24  25
ATOM     25  C   UNL     1       2.427   0.160  22.831  0.00  0.00    +0.097 C 
ATOM     26  C   UNL     1       2.772   0.841  22.522  0.00  0.00    +0.022 C 
ATOM     27  C   UNL     1       3.592   0.931  22.535  0.00  0.00    +0.002 C 
ATOM     28  C   UNL     1       4.067   0.338  22.858  0.00  0.00    +0.000 C 
ATOM     29  C   UNL     1       3.721  -0.345  23.167  0.00  0.00    +0.002 C 
ATOM     30  C   UNL     1       2.901  -0.433  23.153  0.00  0.00    +0.022 C 
ENDBRANCH  24  25
ENDBRANCH   4   3
TORSDOF 5
ENDMDL
MODEL 7
REMARK VINA RESULT:      -8.6      1.420      1.727
REMARK  Name = 
REMARK  5 active torsions:
REMARK  status: ('A' for Active; 'I' for Inactive)
REMARK    1  A    between atoms: N_3  and  C_4
REMARK    2  A    between atoms: C_8  and  N_12
REMARK    3  A    between atoms: C_16  and  O_17
REMARK    4  A    between atoms: O_17  and  C_18
REMARK    5  A    between atoms: N_24  and  C_25
REMARK                            x       y       z     vdW  Elec       q    Type
REMARK                         _______ _______ _______ _____ _____    ______ ____
ROOT
ATOM      4  C   UNL     1      -1.733   1.789  24.554  0.00  0.00    +0.156 C 
ATOM      5  C   UNL     1      -1.747   1.552  23.764  0.00  0.00    +0.166 C 
ATOM      6  O   UNL     1      -1.556   0.750  23.736  0.00  0.00    -0.350 OA
ATOM      7  C   UNL     1      -1.424   0.491  24.507  0.00  0.00    +0.169 C 
ATOM      8  C   UNL     1      -1.224  -0.164  24.967  0.00  0.00    +0.170 C 
ATOM      9  C   UNL     1      -1.209   0.073  25.757  0.00  0.00    +0.169 C 
ATOM     10  O   UNL     1      -1.400   0.875  25.785  0.00  0.00    -0.350 OA
ATOM     11  C   UNL     1      -1.533   1.134  25.013  0.00  0.00    +0.167 C 
ENDROOT
BRANCH   8  12
ATOM     12  N   UNL     1      -1.066  -0.923  24.685  0.00  0.00    -0.180 N 
ATOM     13  N   UNL     1      -0.366  -1.172  24.326  0.00  0.00    -0.040 NA
ATOM     14  N   UNL     1      -0.448  -1.969  24.133  0.00  0.00    -0.020 NA
ATOM     15  N   UNL     1      -1.198  -2.214  24.372  0.00  0.00    -0.071 NA
ATOM     16  C   UNL     1      -1.580  -1.567  24.714  0.00  0.00    +0.343 A 
BRANCH  16  17
ATOM     17  O   UNL     1      -2.343  -1.565  25.029  0.00  0.00    -0.421 OA
BRANCH  17  18
ATOM     18  C   UNL     1      -2.925  -2.052  24.703  0.00  0.00    +0.149 A 
ATOM     19  C   UNL     1      -3.472  -1.740  24.170  0.00  0.00    +0.038 A 
ATOM     20  C   UNL     1      -4.053  -2.226  23.844  0.00  0.00    +0.003 A 
ATOM     21  C   UNL     1      -4.088  -3.024  24.052  0.00  0.00    +0.000 A 
ATOM     22  C   UNL     1      -3.541  -3.336  24.585  0.00  0.00    +0.003 A 
ATOM     23  C   UNL     1      -2.959  -2.849  24.910  0.00  0.00    +0.038 A 
ENDBRANCH  17  18
ENDBRANCH  16  17
ENDBRANCH   8  12
BRANCH   4   3
ATOM      1  O   UNL     1      -3.290   2.326  24.650  0.00  0.00    -0.249 OA
ATOM      2  C   UNL     1      -2.669   2.818  24.884  0.00  0.00    +0.339 C 
ATOM      3  N   UNL     1      -1.890   2.549  24.835  0.00  0.00    -0.184 NA
ATOM     24  N   UNL     1      -2.827   3.576  25.165  0.00  0.00    -0.189 NA
BRANCH  24  25
ATOM     25  C   UNL     1      -3.606   3.845  25.213  0.00  0.00    +0.097 C 
ATOM     26  C   UNL     1      -3.939   4.259  24.582  0.00  0.00    +0.022 C 
ATOM     27  C   UNL     1      -4.718   4.528  24.630  0.00  0.00    +0.002 C 
ATOM     28  C   UNL     1      -5.163   4.383  25.310  0.00  0.00    +0.000 C 
ATOM     29  C   UNL     1      -4.829   3.969  25.941  0.00  0.00    +0.002 C 
ATOM     30  C   UNL     1      -4.050   3.700  25.892  0.00  0.00    +0.022 C 
ENDBRANCH  24  25
ENDBRANCH   4   3
TORSDOF 5
ENDMDL
