MODEL 1
REMARK VINA RESULT:     -12.8      0.000      0.000
REMARK  Name = 
REMARK  6 active torsions:
REMARK  status: ('A' for Active; 'I' for Inactive)
REMARK    1  A    between atoms: C_4  and  C_5
REMARK    2  A    between atoms: C_5  and  C_6
REMARK    3  A    between atoms: C_9  and  C_10
REMARK    4  A    between atoms: C_10  and  C_11
REMARK    5  A    between atoms: C_19  and  N_20
REMARK    6  A    between atoms: C_21  and  C_23
REMARK                            x       y       z     vdW  Elec       q    Type
REMARK                         _______ _______ _______ _____ _____    ______ ____
ROOT
ATOM      1  C   UNL     1      -5.829   2.077  25.365  0.00  0.00    +0.002 C 
ATOM      2  C   UNL     1      -5.266   1.536  25.097  0.00  0.00    +0.019 C 
ATOM      3  C   UNL     1      -5.801   0.920  25.218  0.00  0.00    +0.002 C 
ATOM      4  C   UNL     1      -4.731   2.152  24.976  0.00  0.00    +0.009 C 
ATOM     18  C   UNL     1      -4.169   1.611  24.708  0.00  0.00    +0.022 C 
ATOM     19  C   UNL     1      -4.704   0.995  24.829  0.00  0.00    +0.095 C 
ENDROOT
BRANCH  19  20
ATOM     20  N   UNL     1      -4.685   0.177  24.725  0.00  0.00    -0.207 NA
ATOM     21  C   UNL     1      -3.981  -0.195  24.505  0.00  0.00    +0.241 C 
ATOM     22  O   UNL     1      -3.298   0.252  24.388  0.00  0.00    -0.273 OA
BRANCH  21  23
ATOM     23  C   UNL     1      -3.962  -1.013  24.401  0.00  0.00    +0.078 C 
ATOM     24  C   UNL     1      -4.231  -1.534  23.821  0.00  0.00    +0.009 C 
ATOM     25  C   UNL     1      -3.935  -2.170  24.254  0.00  0.00    +0.001 C 
ATOM     26  C   UNL     1      -3.665  -1.649  24.835  0.00  0.00    +0.009 C 
ENDBRANCH  21  23
ENDBRANCH  19  20
BRANCH   4   5
ATOM      5  C   UNL     1      -4.750   2.970  25.080  0.00  0.00    +0.049 C 
BRANCH   5   6
ATOM      6  C   UNL     1      -4.063   3.415  24.976  0.00  0.00    +0.100 A 
ATOM      7  N   UNL     1      -3.821   3.779  24.276  0.00  0.00    -0.082 NA
ATOM      8  O   UNL     1      -3.106   4.163  24.422  0.00  0.00    -0.358 OA
ATOM      9  C   UNL     1      -2.906   4.037  25.213  0.00  0.00    +0.154 A 
ATOM     17  C   UNL     1      -3.498   3.575  25.555  0.00  0.00    +0.054 A 
BRANCH   9  10
ATOM     10  C   UNL     1      -2.233   4.324  25.594  0.00  0.00    +0.067 C 
BRANCH  10  11
ATOM     11  C   UNL     1      -1.512   3.929  25.512  0.00  0.00    +0.008 C 
ATOM     12  C   UNL     1      -0.978   4.162  24.929  0.00  0.00    +0.000 C 
ATOM     13  C   UNL     1      -0.258   3.767  24.848  0.00  0.00    +0.000 C 
ATOM     14  C   UNL     1      -0.073   3.138  25.349  0.00  0.00    +0.000 C 
ATOM     15  C   UNL     1      -0.609   2.905  25.932  0.00  0.00    +0.000 C 
ATOM     16  C   UNL     1      -1.329   3.301  26.014  0.00  0.00    +0.000 C 
ENDBRANCH  10  11
ENDBRANCH   9  10
ENDBRANCH   5   6
ENDBRANCH   4   5
TORSDOF 6
ENDMDL
MODEL 2
REMARK VINA RESULT:     -12.6      1.102      4.613
REMARK  Name = 
REMARK  6 active torsions:
REMARK  status: ('A' for Active; 'I' for Inactive)
REMARK    1  A    between atoms: C_4  and  C_5
REMARK    2  A    between atoms: C_5  and  C_6
REMARK    3  A    between atoms: C_9  and  C_10
REMARK    4  A    between atoms: C_10  and  C_11
REMARK    5  A    between atoms: C_19  and  N_20
REMARK    6  A    between atoms: C_21  and  C_23
REMARK                            x       y       z     vdW  Elec       q    Type
REMARK                         _______ _______ _______ _____ _____    ______ ____
ROOT
ATOM      1  C   UNL     1      -5.203   2.653  25.092  0.00  0.00    +0.002 C 
ATOM      2  C   UNL     1      -4.388   2.769  25.025  0.00  0.00    +0.019 C 
ATOM      3  C   UNL     1      -4.500   3.583  25.096  0.00  0.00    +0.002 C 
ATOM      4  C   UNL     1      -4.278   1.955  24.954  0.00  0.00    +0.009 C 
ATOM     18  C   UNL     1      -3.464   2.071  24.887  0.00  0.00    +0.022 C 
ATOM     19  C   UNL     1      -3.575   2.885  24.958  0.00  0.00    +0.095 C 
ENDROOT
BRANCH  19  20
ATOM     20  N   UNL     1      -3.078   3.543  24.961  0.00  0.00    -0.207 NA
ATOM     21  C   UNL     1      -2.265   3.446  25.069  0.00  0.00    +0.241 C 
ATOM     22  O   UNL     1      -1.951   2.691  25.174  0.00  0.00    -0.273 OA
BRANCH  21  23
ATOM     23  C   UNL     1      -1.767   4.104  25.071  0.00  0.00    +0.078 C 
ATOM     24  C   UNL     1      -1.837   4.886  25.323  0.00  0.00    +0.009 C 
ATOM     25  C   UNL     1      -1.065   5.035  25.075  0.00  0.00    +0.001 C 
ATOM     26  C   UNL     1      -0.994   4.252  24.823  0.00  0.00    +0.009 C 
ENDBRANCH  21  23
ENDBRANCH  19  20
BRANCH   4   5
ATOM      5  C   UNL     1      -4.775   1.296  24.952  0.00  0.00    +0.049 C 
BRANCH   5   6
ATOM      6  C   UNL     1      -4.468   0.547  24.789  0.00  0.00    +0.100 A 
ATOM      7  N   UNL     1      -4.352   0.223  24.040  0.00  0.00    -0.082 NA
ATOM      8  O   UNL     1      -4.036  -0.533  24.136  0.00  0.00    -0.358 OA
ATOM      9  C   UNL     1      -3.956  -0.675  24.945  0.00  0.00    +0.154 A 
ATOM     17  C   UNL     1      -4.223  -0.007  25.349  0.00  0.00    +0.054 A 
BRANCH   9  10
ATOM     10  C   UNL     1      -3.660  -1.364  25.290  0.00  0.00    +0.067 C 
BRANCH  10  11
ATOM     11  C   UNL     1      -2.909  -1.638  25.086  0.00  0.00    +0.008 C 
ATOM     12  C   UNL     1      -2.239  -1.272  25.397  0.00  0.00    +0.000 C 
ATOM     13  C   UNL     1      -1.487  -1.546  25.193  0.00  0.00    +0.000 C 
ATOM     14  C   UNL     1      -1.406  -2.186  24.678  0.00  0.00    +0.000 C 
ATOM     15  C   UNL     1      -2.078  -2.551  24.368  0.00  0.00    +0.000 C 
ATOM     16  C   UNL     1      -2.829  -2.278  24.571  0.00  0.00    +0.000 C 
ENDBRANCH  10  11
ENDBRANCH   9  10
ENDBRANCH   5   6
ENDBRANCH   4   5
TORSDOF 6
ENDMDL
MODEL 3
REMARK VINA RESULT:     -11.6      2.213      5.627
REMARK  Name = 
REMARK  6 active torsions:
REMARK  status: ('A' for Active; 'I' for Inactive)
REMARK    1  A    between atoms: C_4  and  C_5
REMARK    2  A    between atoms: C_5  and  C_6
REMARK    3  A    between atoms: C_9  and  C_10
REMARK    4  A    between atoms: C_10  and  C_11
REMARK    5  A    between atoms: C_19  and  N_20
REMARK    6  A    between atoms: C_21  and  C_23
REMARK                            x       y       z     vdW  Elec       q    Type
REMARK                         _______ _______ _______ _____ _____    ______ ____
ROOT
ATOM      1  C   UNL     1       0.103   0.989  24.081  0.00  0.00    +0.002 C 
ATOM      2  C   UNL     1      -0.355   1.581  24.428  0.00  0.00    +0.019 C 
ATOM      3  C   UNL     1       0.074   2.153  24.016  0.00  0.00    +0.002 C 
ATOM      4  C   UNL     1      -0.784   1.009  24.839  0.00  0.00    +0.009 C 
ATOM     18  C   UNL     1      -1.241   1.601  25.185  0.00  0.00    +0.022 C 
ATOM     19  C   UNL     1      -0.813   2.173  24.774  0.00  0.00    +0.095 C 
ENDROOT
BRANCH  19  20
ATOM     20  N   UNL     1      -0.833   2.997  24.728  0.00  0.00    -0.207 NA
ATOM     21  C   UNL     1      -1.345   3.425  25.215  0.00  0.00    +0.241 C 
ATOM     22  O   UNL     1      -1.836   3.028  25.746  0.00  0.00    -0.273 OA
BRANCH  21  23
ATOM     23  C   UNL     1      -1.366   4.248  25.169  0.00  0.00    +0.078 C 
ATOM     24  C   UNL     1      -1.946   4.824  25.279  0.00  0.00    +0.009 C 
ATOM     25  C   UNL     1      -1.395   5.412  25.104  0.00  0.00    +0.001 C 
ATOM     26  C   UNL     1      -0.815   4.836  24.993  0.00  0.00    +0.009 C 
ENDBRANCH  21  23
ENDBRANCH  19  20
BRANCH   4   5
ATOM      5  C   UNL     1      -0.763   0.186  24.885  0.00  0.00    +0.049 C 
BRANCH   5   6
ATOM      6  C   UNL     1      -1.348  -0.219  25.303  0.00  0.00    +0.100 A 
ATOM      7  N   UNL     1      -1.259  -0.574  26.042  0.00  0.00    -0.082 NA
ATOM      8  O   UNL     1      -1.981  -0.915  26.251  0.00  0.00    -0.358 OA
ATOM      9  C   UNL     1      -2.516  -0.769  25.640  0.00  0.00    +0.154 A 
ATOM     17  C   UNL     1      -2.125  -0.339  25.054  0.00  0.00    +0.054 A 
BRANCH   9  10
ATOM     10  C   UNL     1      -3.305  -1.012  25.619  0.00  0.00    +0.067 C 
BRANCH  10  11
ATOM     11  C   UNL     1      -3.557  -1.549  25.046  0.00  0.00    +0.008 C 
ATOM     12  C   UNL     1      -3.987  -1.285  24.394  0.00  0.00    +0.000 C 
ATOM     13  C   UNL     1      -4.238  -1.823  23.820  0.00  0.00    +0.000 C 
ATOM     14  C   UNL     1      -4.060  -2.625  23.900  0.00  0.00    +0.000 C 
ATOM     15  C   UNL     1      -3.629  -2.888  24.553  0.00  0.00    +0.000 C 
ATOM     16  C   UNL     1      -3.378  -2.350  25.126  0.00  0.00    +0.000 C 
ENDBRANCH  10  11
ENDBRANCH   9  10
ENDBRANCH   5   6
ENDBRANCH   4   5
TORSDOF 6
ENDMDL
MODEL 4
REMARK VINA RESULT:     -11.5      1.995      3.307
REMARK  Name = 
REMARK  6 active torsions:
REMARK  status: ('A' for Active; 'I' for Inactive)
REMARK    1  A    between atoms: C_4  and  C_5
REMARK    2  A    between atoms: C_5  and  C_6
REMARK    3  A    between atoms: C_9  and  C_10
REMARK    4  A    between atoms: C_10  and  C_11
REMARK    5  A    between atoms: C_19  and  N_20
REMARK    6  A    between atoms: C_21  and  C_23
REMARK                            x       y       z     vdW  Elec       q    Type
REMARK                         _______ _______ _______ _____ _____    ______ ____
ROOT
ATOM      1  C   UNL     1       0.133   0.149  24.130  0.00  0.00    +0.002 C 
ATOM      2  C   UNL     1      -0.614  -0.087  24.392  0.00  0.00    +0.019 C 
ATOM      3  C   UNL     1      -0.527  -0.802  23.988  0.00  0.00    +0.002 C 
ATOM      4  C   UNL     1      -0.700   0.627  24.795  0.00  0.00    +0.009 C 
ATOM     18  C   UNL     1      -1.445   0.390  25.056  0.00  0.00    +0.022 C 
ATOM     19  C   UNL     1      -1.359  -0.324  24.652  0.00  0.00    +0.095 C 
ENDROOT
BRANCH  19  20
ATOM     20  N   UNL     1      -1.826  -0.997  24.551  0.00  0.00    -0.207 NA
ATOM     21  C   UNL     1      -2.613  -0.994  24.799  0.00  0.00    +0.241 C 
ATOM     22  O   UNL     1      -2.933  -0.318  25.148  0.00  0.00    -0.273 OA
BRANCH  21  23
ATOM     23  C   UNL     1      -3.080  -1.667  24.698  0.00  0.00    +0.078 C 
ATOM     24  C   UNL     1      -3.135  -2.400  25.072  0.00  0.00    +0.009 C 
ATOM     25  C   UNL     1      -3.740  -2.618  24.556  0.00  0.00    +0.001 C 
ATOM     26  C   UNL     1      -3.685  -1.885  24.181  0.00  0.00    +0.009 C 
ENDBRANCH  21  23
ENDBRANCH  19  20
BRANCH   4   5
ATOM      5  C   UNL     1      -0.233   1.299  24.896  0.00  0.00    +0.049 C 
BRANCH   5   6
ATOM      6  C   UNL     1      -0.542   1.963  25.277  0.00  0.00    +0.100 A 
ATOM      7  N   UNL     1      -0.516   2.112  26.088  0.00  0.00    -0.082 NA
ATOM      8  O   UNL     1      -0.889   2.835  26.226  0.00  0.00    -0.358 OA
ATOM      9  C   UNL     1      -1.146   3.132  25.500  0.00  0.00    +0.154 A 
ATOM     17  C   UNL     1      -0.931   2.593  24.914  0.00  0.00    +0.054 A 
BRANCH   9  10
ATOM     10  C   UNL     1      -1.547   3.844  25.382  0.00  0.00    +0.067 C 
BRANCH  10  11
ATOM     11  C   UNL     1      -2.371   3.864  25.420  0.00  0.00    +0.008 C 
ATOM     12  C   UNL     1      -2.748   4.011  26.138  0.00  0.00    +0.000 C 
ATOM     13  C   UNL     1      -3.572   4.031  26.175  0.00  0.00    +0.000 C 
ATOM     14  C   UNL     1      -4.019   3.904  25.493  0.00  0.00    +0.000 C 
ATOM     15  C   UNL     1      -3.641   3.757  24.775  0.00  0.00    +0.000 C 
ATOM     16  C   UNL     1      -2.817   3.737  24.738  0.00  0.00    +0.000 C 
ENDBRANCH  10  11
ENDBRANCH   9  10
ENDBRANCH   5   6
ENDBRANCH   4   5
TORSDOF 6
ENDMDL
MODEL 5
REMARK VINA RESULT:     -11.4      1.634      2.711
REMARK  Name = 
REMARK  6 active torsions:
REMARK  status: ('A' for Active; 'I' for Inactive)
REMARK    1  A    between atoms: C_4  and  C_5
REMARK    2  A    between atoms: C_5  and  C_6
REMARK    3  A    between atoms: C_9  and  C_10
REMARK    4  A    between atoms: C_10  and  C_11
REMARK    5  A    between atoms: C_19  and  N_20
REMARK    6  A    between atoms: C_21  and  C_23
REMARK                            x       y       z     vdW  Elec       q    Type
REMARK                         _______ _______ _______ _____ _____    ______ ____
ROOT
ATOM      1  C   UNL     1      -4.738  -0.816  24.107  0.00  0.00    +0.002 C 
ATOM      2  C   UNL     1      -3.974  -0.691  24.393  0.00  0.00    +0.019 C 
ATOM      3  C   UNL     1      -3.770  -1.461  24.178  0.00  0.00    +0.002 C 
ATOM      4  C   UNL     1      -4.179   0.078  24.608  0.00  0.00    +0.009 C 
ATOM     18  C   UNL     1      -3.416   0.202  24.893  0.00  0.00    +0.022 C 
ATOM     19  C   UNL     1      -3.211  -0.567  24.679  0.00  0.00    +0.095 C 
ENDROOT
BRANCH  19  20
ATOM     20  N   UNL     1      -2.525  -1.024  24.729  0.00  0.00    -0.207 NA
ATOM     21  C   UNL     1      -1.817  -0.679  24.978  0.00  0.00    +0.241 C 
ATOM     22  O   UNL     1      -1.796   0.121  25.176  0.00  0.00    -0.273 OA
BRANCH  21  23
ATOM     23  C   UNL     1      -1.132  -1.136  25.028  0.00  0.00    +0.078 C 
ATOM     24  C   UNL     1      -0.906  -1.803  25.457  0.00  0.00    +0.009 C 
ATOM     25  C   UNL     1      -0.163  -1.781  25.099  0.00  0.00    +0.001 C 
ATOM     26  C   UNL     1      -0.389  -1.114  24.670  0.00  0.00    +0.009 C 
ENDBRANCH  21  23
ENDBRANCH  19  20
BRANCH   4   5
ATOM      5  C   UNL     1      -4.865   0.535  24.557  0.00  0.00    +0.049 C 
BRANCH   5   6
ATOM      6  C   UNL     1      -4.885   1.288  24.895  0.00  0.00    +0.100 A 
ATOM      7  N   UNL     1      -5.189   1.478  25.637  0.00  0.00    -0.082 NA
ATOM      8  O   UNL     1      -5.097   2.290  25.751  0.00  0.00    -0.358 OA
ATOM      9  C   UNL     1      -4.735   2.601  25.077  0.00  0.00    +0.154 A 
ATOM     17  C   UNL     1      -4.604   1.982  24.549  0.00  0.00    +0.054 A 
BRANCH   9  10
ATOM     10  C   UNL     1      -4.539   3.394  24.955  0.00  0.00    +0.067 C 
BRANCH  10  11
ATOM     11  C   UNL     1      -3.803   3.679  25.197  0.00  0.00    +0.008 C 
ATOM     12  C   UNL     1      -3.677   3.874  25.989  0.00  0.00    +0.000 C 
ATOM     13  C   UNL     1      -2.941   4.159  26.231  0.00  0.00    +0.000 C 
ATOM     14  C   UNL     1      -2.332   4.249  25.682  0.00  0.00    +0.000 C 
ATOM     15  C   UNL     1      -2.459   4.054  24.890  0.00  0.00    +0.000 C 
ATOM     16  C   UNL     1      -3.195   3.768  24.648  0.00  0.00    +0.000 C 
ENDBRANCH  10  11
ENDBRANCH   9  10
ENDBRANCH   5   6
ENDBRANCH   4   5
TORSDOF 6
ENDMDL
MODEL 6
REMARK VINA RESULT:     -11.2      1.807      4.914
REMARK  Name = 
REMARK  6 active torsions:
REMARK  status: ('A' for Active; 'I' for Inactive)
REMARK    1  A    between atoms: C_4  and  C_5
REMARK    2  A    between atoms: C_5  and  C_6
REMARK    3  A    between atoms: C_9  and  C_10
REMARK    4  A    between atoms: C_10  and  C_11
REMARK    5  A    between atoms: C_19  and  N_20
REMARK    6  A    between atoms: C_21  and  C_23
REMARK                            x       y       z     vdW  Elec       q    Type
REMARK                         _______ _______ _______ _____ _____    ______ ____
ROOT
ATOM      1  C   UNL     1      -0.704   2.680  25.594  0.00  0.00    +0.002 C 
ATOM      2  C   UNL     1      -1.507   2.603  25.417  0.00  0.00    +0.019 C 
ATOM      3  C   UNL     1      -1.639   3.371  25.690  0.00  0.00    +0.002 C 
ATOM      4  C   UNL     1      -1.374   1.836  25.145  0.00  0.00    +0.009 C 
ATOM     18  C   UNL     1      -2.176   1.760  24.969  0.00  0.00    +0.022 C 
ATOM     19  C   UNL     1      -2.309   2.527  25.241  0.00  0.00    +0.095 C 
ENDROOT
BRANCH  19  20
ATOM     20  N   UNL     1      -2.970   3.016  25.309  0.00  0.00    -0.207 NA
ATOM     21  C   UNL     1      -3.725   2.709  25.179  0.00  0.00    +0.241 C 
ATOM     22  O   UNL     1      -3.818   1.914  24.982  0.00  0.00    -0.273 OA
BRANCH  21  23
ATOM     23  C   UNL     1      -4.386   3.198  25.247  0.00  0.00    +0.078 C 
ATOM     24  C   UNL     1      -5.058   3.208  25.725  0.00  0.00    +0.009 C 
ATOM     25  C   UNL     1      -5.321   3.889  25.343  0.00  0.00    +0.001 C 
ATOM     26  C   UNL     1      -4.649   3.880  24.864  0.00  0.00    +0.009 C 
ENDBRANCH  21  23
ENDBRANCH  19  20
BRANCH   4   5
ATOM      5  C   UNL     1      -0.713   1.347  25.077  0.00  0.00    +0.049 C 
BRANCH   5   6
ATOM      6  C   UNL     1      -0.804   0.559  24.851  0.00  0.00    +0.100 A 
ATOM      7  N   UNL     1      -0.705   0.258  24.089  0.00  0.00    -0.082 NA
ATOM      8  O   UNL     1      -0.850  -0.553  24.114  0.00  0.00    -0.358 OA
ATOM      9  C   UNL     1      -1.039  -0.754  24.892  0.00  0.00    +0.154 A 
ATOM     17  C   UNL     1      -1.011  -0.067  25.347  0.00  0.00    +0.054 A 
BRANCH   9  10
ATOM     10  C   UNL     1      -1.224  -1.510  25.166  0.00  0.00    +0.067 C 
BRANCH  10  11
ATOM     11  C   UNL     1      -1.975  -1.826  25.033  0.00  0.00    +0.008 C 
ATOM     12  C   UNL     1      -2.602  -1.618  25.526  0.00  0.00    +0.000 C 
ATOM     13  C   UNL     1      -3.353  -1.933  25.393  0.00  0.00    +0.000 C 
ATOM     14  C   UNL     1      -3.477  -2.456  24.766  0.00  0.00    +0.000 C 
ATOM     15  C   UNL     1      -2.848  -2.663  24.273  0.00  0.00    +0.000 C 
ATOM     16  C   UNL     1      -2.097  -2.348  24.406  0.00  0.00    +0.000 C 
ENDBRANCH  10  11
ENDBRANCH   9  10
ENDBRANCH   5   6
ENDBRANCH   4   5
TORSDOF 6
ENDMDL
MODEL 7
REMARK VINA RESULT:     -11.2      1.856      3.809
REMARK  Name = 
REMARK  6 active torsions:
REMARK  status: ('A' for Active; 'I' for Inactive)
REMARK    1  A    between atoms: C_4  and  C_5
REMARK    2  A    between atoms: C_5  and  C_6
REMARK    3  A    between atoms: C_9  and  C_10
REMARK    4  A    between atoms: C_10  and  C_11
REMARK    5  A    between atoms: C_19  and  N_20
REMARK    6  A    between atoms: C_21  and  C_23
REMARK                            x       y       z     vdW  Elec       q    Type
REMARK                         _______ _______ _______ _____ _____    ______ ____
ROOT
ATOM      1  C   UNL     1      -0.248   3.205  25.413  0.00  0.00    +0.002 C 
ATOM      2  C   UNL     1      -0.590   2.455  25.384  0.00  0.00    +0.019 C 
ATOM      3  C   UNL     1       0.161   2.114  25.361  0.00  0.00    +0.002 C 
ATOM      4  C   UNL     1      -1.340   2.796  25.406  0.00  0.00    +0.009 C 
ATOM     18  C   UNL     1      -1.682   2.046  25.377  0.00  0.00    +0.022 C 
ATOM     19  C   UNL     1      -0.932   1.705  25.354  0.00  0.00    +0.095 C 
ENDROOT
BRANCH  19  20
ATOM     20  N   UNL     1      -0.643   0.933  25.318  0.00  0.00    -0.207 NA
ATOM     21  C   UNL     1      -1.165   0.300  25.224  0.00  0.00    +0.241 C 
ATOM     22  O   UNL     1      -1.976   0.441  25.168  0.00  0.00    -0.273 OA
BRANCH  21  23
ATOM     23  C   UNL     1      -0.876  -0.471  25.188  0.00  0.00    +0.078 C 
ATOM     24  C   UNL     1      -0.841  -1.106  25.713  0.00  0.00    +0.009 C 
ATOM     25  C   UNL     1      -0.468  -1.562  25.136  0.00  0.00    +0.001 C 
ATOM     26  C   UNL     1      -0.503  -0.927  24.610  0.00  0.00    +0.009 C 
ENDBRANCH  21  23
ENDBRANCH  19  20
BRANCH   4   5
ATOM      5  C   UNL     1      -1.630   3.568  25.443  0.00  0.00    +0.049 C 
BRANCH   5   6
ATOM      6  C   UNL     1      -2.430   3.702  25.597  0.00  0.00    +0.100 A 
ATOM      7  N   UNL     1      -2.750   3.946  26.316  0.00  0.00    -0.082 NA
ATOM      8  O   UNL     1      -3.568   4.011  26.222  0.00  0.00    -0.358 OA
ATOM      9  C   UNL     1      -3.751   3.806  25.444  0.00  0.00    +0.154 A 
ATOM     17  C   UNL     1      -3.047   3.616  25.058  0.00  0.00    +0.054 A 
BRANCH   9  10
ATOM     10  C   UNL     1      -4.506   3.795  25.111  0.00  0.00    +0.067 C 
BRANCH  10  11
ATOM     11  C   UNL     1      -4.982   3.126  25.191  0.00  0.00    +0.008 C 
ATOM     12  C   UNL     1      -4.982   2.548  24.603  0.00  0.00    +0.000 C 
ATOM     13  C   UNL     1      -5.458   1.878  24.682  0.00  0.00    +0.000 C 
ATOM     14  C   UNL     1      -5.935   1.787  25.350  0.00  0.00    +0.000 C 
ATOM     15  C   UNL     1      -5.934   2.366  25.938  0.00  0.00    +0.000 C 
ATOM     16  C   UNL     1      -5.458   3.036  25.859  0.00  0.00    +0.000 C 
ENDBRANCH  10  11
ENDBRANCH   9  10
ENDBRANCH   5   6
ENDBRANCH   4   5
TORSDOF 6
ENDMDL
