MODEL 1
REMARK VINA RESULT:     -13.9      0.000      0.000
REMARK  Name = 
REMARK  4 active torsions:
REMARK  status: ('A' for Active; 'I' for Inactive)
REMARK    1  A    between atoms: C_4  and  N_19
REMARK    2  A    between atoms: C_6  and  C_7
REMARK    3  A    between atoms: C_9  and  C_12
REMARK    4  A    between atoms: C_20  and  C_22
REMARK                            x       y       z     vdW  Elec       q    Type
REMARK                         _______ _______ _______ _____ _____    ______ ____
ROOT
ATOM      1  C   UNL     1      -5.413   2.644  24.731  0.00  0.00    +0.090 C 
ATOM      2  N   UNL     1      -4.913   2.010  24.900  0.00  0.00    -0.264 NA
ATOM      3  C   UNL     1      -5.089   1.211  24.793  0.00  0.00    +0.094 C 
ATOM      4  C   UNL     1      -4.434   0.772  25.033  0.00  0.00    +0.113 C 
ATOM      5  C   UNL     1      -3.853   1.299  25.288  0.00  0.00    +0.049 C 
ATOM      6  C   UNL     1      -4.148   2.064  25.206  0.00  0.00    +0.139 C 
ENDROOT
BRANCH   6   7
ATOM      7  C   UNL     1      -3.751   2.761  25.396  0.00  0.00    +0.251 A 
ATOM      8  N   UNL     1      -3.031   3.011  25.078  0.00  0.00    -0.190 NA
ATOM      9  C   UNL     1      -2.838   3.735  25.423  0.00  0.00    +0.203 A 
ATOM     10  N   UNL     1      -3.438   3.933  25.954  0.00  0.00    -0.056 NA
ATOM     11  O   UNL     1      -4.002   3.331  25.937  0.00  0.00    -0.336 OA
BRANCH   9  12
ATOM     12  C   UNL     1      -2.163   4.182  25.265  0.00  0.00    +0.039 A 
ATOM     13  C   UNL     1      -1.437   3.808  25.151  0.00  0.00    +0.005 A 
ATOM     14  C   UNL     1      -0.762   4.255  24.992  0.00  0.00    +0.030 A 
ATOM     15  C   UNL     1      -0.814   5.078  24.948  0.00  0.00    +0.140 A 
ATOM     16  F   UNL     1      -0.139   5.525  24.790  0.00  0.00    -0.204 F 
ATOM     17  C   UNL     1      -1.540   5.452  25.062  0.00  0.00    +0.030 A 
ATOM     18  C   UNL     1      -2.214   5.005  25.220  0.00  0.00    +0.005 A 
ENDBRANCH   9  12
ENDBRANCH   6   7
BRANCH   4  19
ATOM     19  N   UNL     1      -4.370  -0.051  25.020  0.00  0.00    -0.202 NA
ATOM     20  C   UNL     1      -3.929  -0.422  24.429  0.00  0.00    +0.265 C 
ATOM     21  O   UNL     1      -3.552   0.031  23.851  0.00  0.00    -0.268 OA
BRANCH  20  22
ATOM     22  C   UNL     1      -3.866  -1.244  24.416  0.00  0.00    +0.055 A 
ATOM     23  C   UNL     1      -4.281  -1.681  23.853  0.00  0.00    +0.007 A 
ATOM     24  C   UNL     1      -4.217  -2.503  23.840  0.00  0.00    +0.030 A 
ATOM     25  C   UNL     1      -3.738  -2.889  24.390  0.00  0.00    +0.140 A 
ATOM     26  F   UNL     1      -3.674  -3.711  24.376  0.00  0.00    -0.204 F 
ATOM     27  C   UNL     1      -3.323  -2.451  24.953  0.00  0.00    +0.030 A 
ATOM     28  C   UNL     1      -3.386  -1.629  24.966  0.00  0.00    +0.007 A 
ENDBRANCH  20  22
ENDBRANCH   4  19
TORSDOF 4
ENDMDL
MODEL 2
REMARK VINA RESULT:     -13.3      0.724      5.871
REMARK  Name = 
REMARK  4 active torsions:
REMARK  status: ('A' for Active; 'I' for Inactive)
REMARK    1  A    between atoms: C_4  and  N_19
REMARK    2  A    between atoms: C_6  and  C_7
REMARK    3  A    between atoms: C_9  and  C_12
REMARK    4  A    between atoms: C_20  and  C_22
REMARK                            x       y       z     vdW  Elec       q    Type
REMARK                         _______ _______ _______ _____ _____    ______ ____
ROOT
ATOM      1  C   UNL     1      -5.465   2.041  24.685  0.00  0.00    +0.090 C 
ATOM      2  N   UNL     1      -4.649   2.167  24.685  0.00  0.00    -0.264 NA
ATOM      3  C   UNL     1      -4.270   2.886  24.552  0.00  0.00    +0.094 C 
ATOM      4  C   UNL     1      -3.457   2.759  24.603  0.00  0.00    +0.113 C 
ATOM      5  C   UNL     1      -3.334   1.960  24.769  0.00  0.00    +0.049 C 
ATOM      6  C   UNL     1      -4.070   1.594  24.819  0.00  0.00    +0.139 C 
ENDROOT
BRANCH   6   7
ATOM      7  C   UNL     1      -4.205   0.796  24.976  0.00  0.00    +0.251 A 
ATOM      8  N   UNL     1      -3.875   0.158  24.568  0.00  0.00    -0.190 NA
ATOM      9  C   UNL     1      -4.160  -0.537  24.908  0.00  0.00    +0.203 A 
ATOM     10  N   UNL     1      -4.665  -0.330  25.527  0.00  0.00    -0.056 NA
ATOM     11  O   UNL     1      -4.693   0.493  25.569  0.00  0.00    -0.336 OA
BRANCH   9  12
ATOM     12  C   UNL     1      -3.972  -1.305  24.672  0.00  0.00    +0.039 A 
ATOM     13  C   UNL     1      -4.309  -1.619  23.988  0.00  0.00    +0.005 A 
ATOM     14  C   UNL     1      -4.121  -2.387  23.751  0.00  0.00    +0.030 A 
ATOM     15  C   UNL     1      -3.596  -2.840  24.198  0.00  0.00    +0.140 A 
ATOM     16  F   UNL     1      -3.408  -3.608  23.962  0.00  0.00    -0.204 F 
ATOM     17  C   UNL     1      -3.259  -2.524  24.882  0.00  0.00    +0.030 A 
ATOM     18  C   UNL     1      -3.447  -1.757  25.119  0.00  0.00    +0.005 A 
ENDBRANCH   9  12
ENDBRANCH   6   7
BRANCH   4  19
ATOM     19  N   UNL     1      -2.869   3.331  24.507  0.00  0.00    -0.202 NA
ATOM     20  C   UNL     1      -2.454   3.611  25.163  0.00  0.00    +0.265 C 
ATOM     21  O   UNL     1      -2.627   3.320  25.915  0.00  0.00    -0.268 OA
BRANCH  20  22
ATOM     22  C   UNL     1      -1.867   4.182  25.066  0.00  0.00    +0.055 A 
ATOM     23  C   UNL     1      -2.048   4.981  25.160  0.00  0.00    +0.007 A 
ATOM     24  C   UNL     1      -1.461   5.552  25.064  0.00  0.00    +0.030 A 
ATOM     25  C   UNL     1      -0.691   5.324  24.874  0.00  0.00    +0.140 A 
ATOM     26  F   UNL     1      -0.104   5.895  24.778  0.00  0.00    -0.204 F 
ATOM     27  C   UNL     1      -0.510   4.525  24.780  0.00  0.00    +0.030 A 
ATOM     28  C   UNL     1      -1.097   3.954  24.876  0.00  0.00    +0.007 A 
ENDBRANCH  20  22
ENDBRANCH   4  19
TORSDOF 4
ENDMDL
MODEL 3
REMARK VINA RESULT:     -12.8      2.035      6.377
REMARK  Name = 
REMARK  4 active torsions:
REMARK  status: ('A' for Active; 'I' for Inactive)
REMARK    1  A    between atoms: C_4  and  N_19
REMARK    2  A    between atoms: C_6  and  C_7
REMARK    3  A    between atoms: C_9  and  C_12
REMARK    4  A    between atoms: C_20  and  C_22
REMARK                            x       y       z     vdW  Elec       q    Type
REMARK                         _______ _______ _______ _____ _____    ______ ____
ROOT
ATOM      1  C   UNL     1       0.176  -0.075  23.939  0.00  0.00    +0.090 C 
ATOM      2  N   UNL     1      -0.278   0.492  24.331  0.00  0.00    -0.264 NA
ATOM      3  C   UNL     1      -0.104   1.296  24.391  0.00  0.00    +0.094 C 
ATOM      4  C   UNL     1      -0.704   1.654  24.829  0.00  0.00    +0.113 C 
ATOM      5  C   UNL     1      -1.249   1.072  25.039  0.00  0.00    +0.049 C 
ATOM      6  C   UNL     1      -0.987   0.354  24.732  0.00  0.00    +0.139 C 
ENDROOT
BRANCH   6   7
ATOM      7  C   UNL     1      -1.365  -0.375  24.810  0.00  0.00    +0.251 A 
ATOM      8  N   UNL     1      -2.078  -0.591  24.457  0.00  0.00    -0.190 NA
ATOM      9  C   UNL     1      -2.251  -1.365  24.684  0.00  0.00    +0.203 A 
ATOM     10  N   UNL     1      -1.644  -1.627  25.179  0.00  0.00    -0.056 NA
ATOM     11  O   UNL     1      -1.096  -1.015  25.256  0.00  0.00    -0.336 OA
BRANCH   9  12
ATOM     12  C   UNL     1      -2.914  -1.801  24.457  0.00  0.00    +0.039 A 
ATOM     13  C   UNL     1      -3.565  -1.418  24.125  0.00  0.00    +0.005 A 
ATOM     14  C   UNL     1      -4.228  -1.854  23.898  0.00  0.00    +0.030 A 
ATOM     15  C   UNL     1      -4.240  -2.672  24.004  0.00  0.00    +0.140 A 
ATOM     16  F   UNL     1      -4.903  -3.108  23.777  0.00  0.00    -0.204 F 
ATOM     17  C   UNL     1      -3.588  -3.054  24.336  0.00  0.00    +0.030 A 
ATOM     18  C   UNL     1      -2.926  -2.619  24.563  0.00  0.00    +0.005 A 
ENDBRANCH   9  12
ENDBRANCH   6   7
BRANCH   4  19
ATOM     19  N   UNL     1      -0.750   2.455  25.022  0.00  0.00    -0.202 NA
ATOM     20  C   UNL     1      -1.216   2.964  24.568  0.00  0.00    +0.265 C 
ATOM     21  O   UNL     1      -1.634   2.670  23.920  0.00  0.00    -0.268 OA
BRANCH  20  22
ATOM     22  C   UNL     1      -1.263   3.764  24.761  0.00  0.00    +0.055 A 
ATOM     23  C   UNL     1      -0.644   4.273  24.564  0.00  0.00    +0.007 A 
ATOM     24  C   UNL     1      -0.691   5.073  24.757  0.00  0.00    +0.030 A 
ATOM     25  C   UNL     1      -1.357   5.366  25.147  0.00  0.00    +0.140 A 
ATOM     26  F   UNL     1      -1.404   6.166  25.340  0.00  0.00    -0.204 F 
ATOM     27  C   UNL     1      -1.976   4.856  25.344  0.00  0.00    +0.030 A 
ATOM     28  C   UNL     1      -1.929   4.055  25.151  0.00  0.00    +0.007 A 
ENDBRANCH  20  22
ENDBRANCH   4  19
TORSDOF 4
ENDMDL
MODEL 4
REMARK VINA RESULT:     -12.5      2.038      2.616
REMARK  Name = 
REMARK  4 active torsions:
REMARK  status: ('A' for Active; 'I' for Inactive)
REMARK    1  A    between atoms: C_4  and  N_19
REMARK    2  A    between atoms: C_6  and  C_7
REMARK    3  A    between atoms: C_9  and  C_12
REMARK    4  A    between atoms: C_20  and  C_22
REMARK                            x       y       z     vdW  Elec       q    Type
REMARK                         _______ _______ _______ _____ _____    ______ ____
ROOT
ATOM      1  C   UNL     1       0.408   0.960  24.117  0.00  0.00    +0.090 C 
ATOM      2  N   UNL     1      -0.277   0.626  24.432  0.00  0.00    -0.264 NA
ATOM      3  C   UNL     1      -0.564  -0.131  24.274  0.00  0.00    +0.094 C 
ATOM      4  C   UNL     1      -1.259  -0.235  24.705  0.00  0.00    +0.113 C 
ATOM      5  C   UNL     1      -1.403   0.457  25.129  0.00  0.00    +0.049 C 
ATOM      6  C   UNL     1      -0.796   0.990  24.961  0.00  0.00    +0.139 C 
ENDROOT
BRANCH   6   7
ATOM      7  C   UNL     1      -0.721   1.751  25.267  0.00  0.00    +0.251 A 
ATOM      8  N   UNL     1      -1.080   2.432  24.969  0.00  0.00    -0.190 NA
ATOM      9  C   UNL     1      -0.854   3.068  25.443  0.00  0.00    +0.203 A 
ATOM     10  N   UNL     1      -0.355   2.781  26.034  0.00  0.00    -0.056 NA
ATOM     11  O   UNL     1      -0.272   1.968  25.926  0.00  0.00    -0.336 OA
BRANCH   9  12
ATOM     12  C   UNL     1      -1.087   3.854  25.343  0.00  0.00    +0.039 A 
ATOM     13  C   UNL     1      -1.817   4.107  25.631  0.00  0.00    +0.005 A 
ATOM     14  C   UNL     1      -2.050   4.892  25.531  0.00  0.00    +0.030 A 
ATOM     15  C   UNL     1      -1.552   5.424  25.144  0.00  0.00    +0.140 A 
ATOM     16  F   UNL     1      -1.784   6.210  25.044  0.00  0.00    -0.204 F 
ATOM     17  C   UNL     1      -0.821   5.170  24.857  0.00  0.00    +0.030 A 
ATOM     18  C   UNL     1      -0.589   4.385  24.956  0.00  0.00    +0.005 A 
ENDBRANCH   9  12
ENDBRANCH   6   7
BRANCH   4  19
ATOM     19  N   UNL     1      -1.730  -0.914  24.710  0.00  0.00    -0.202 NA
ATOM     20  C   UNL     1      -2.474  -0.903  24.353  0.00  0.00    +0.265 C 
ATOM     21  O   UNL     1      -2.747  -0.213  23.991  0.00  0.00    -0.268 OA
BRANCH  20  22
ATOM     22  C   UNL     1      -2.944  -1.580  24.358  0.00  0.00    +0.055 A 
ATOM     23  C   UNL     1      -2.672  -2.269  24.721  0.00  0.00    +0.007 A 
ATOM     24  C   UNL     1      -3.142  -2.946  24.726  0.00  0.00    +0.030 A 
ATOM     25  C   UNL     1      -3.886  -2.935  24.368  0.00  0.00    +0.140 A 
ATOM     26  F   UNL     1      -4.356  -3.613  24.373  0.00  0.00    -0.204 F 
ATOM     27  C   UNL     1      -4.158  -2.246  24.006  0.00  0.00    +0.030 A 
ATOM     28  C   UNL     1      -3.688  -1.568  24.000  0.00  0.00    +0.007 A 
ENDBRANCH  20  22
ENDBRANCH   4  19
TORSDOF 4
ENDMDL
MODEL 5
REMARK VINA RESULT:     -10.0      4.625      6.481
REMARK  Name = 
REMARK  4 active torsions:
REMARK  status: ('A' for Active; 'I' for Inactive)
REMARK    1  A    between atoms: C_4  and  N_19
REMARK    2  A    between atoms: C_6  and  C_7
REMARK    3  A    between atoms: C_9  and  C_12
REMARK    4  A    between atoms: C_20  and  C_22
REMARK                            x       y       z     vdW  Elec       q    Type
REMARK                         _______ _______ _______ _____ _____    ______ ____
ROOT
ATOM      1  C   UNL     1      -0.090  -0.622  23.894  0.00  0.00    +0.090 C 
ATOM      2  N   UNL     1      -0.091   0.203  23.878  0.00  0.00    -0.264 NA
ATOM      3  C   UNL     1      -0.681   0.693  24.181  0.00  0.00    +0.094 C 
ATOM      4  C   UNL     1      -0.457   1.474  24.046  0.00  0.00    +0.113 C 
ATOM      5  C   UNL     1       0.271   1.468  23.659  0.00  0.00    +0.049 C 
ATOM      6  C   UNL     1       0.498   0.682  23.555  0.00  0.00    +0.139 C 
ENDROOT
BRANCH   6   7
ATOM      7  C   UNL     1       1.191   0.422  23.192  0.00  0.00    +0.251 A 
ATOM      8  N   UNL     1       1.960   0.568  23.452  0.00  0.00    -0.190 NA
ATOM      9  C   UNL     1       2.481   0.206  22.926  0.00  0.00    +0.203 A 
ATOM     10  N   UNL     1       2.034  -0.166  22.340  0.00  0.00    -0.056 NA
ATOM     11  O   UNL     1       1.237  -0.032  22.504  0.00  0.00    -0.336 OA
BRANCH   9  12
ATOM     12  C   UNL     1       3.305   0.213  22.977  0.00  0.00    +0.039 A 
ATOM     13  C   UNL     1       3.704  -0.441  23.282  0.00  0.00    +0.005 A 
ATOM     14  C   UNL     1       4.528  -0.434  23.333  0.00  0.00    +0.030 A 
ATOM     15  C   UNL     1       4.951   0.226  23.078  0.00  0.00    +0.140 A 
ATOM     16  F   UNL     1       5.775   0.233  23.129  0.00  0.00    -0.204 F 
ATOM     17  C   UNL     1       4.551   0.880  22.773  0.00  0.00    +0.030 A 
ATOM     18  C   UNL     1       3.728   0.873  22.722  0.00  0.00    +0.005 A 
ENDBRANCH   9  12
ENDBRANCH   6   7
BRANCH   4  19
ATOM     19  N   UNL     1      -0.887   2.146  24.260  0.00  0.00    -0.202 NA
ATOM     20  C   UNL     1      -0.705   2.546  24.959  0.00  0.00    +0.265 C 
ATOM     21  O   UNL     1      -0.095   2.274  25.443  0.00  0.00    -0.268 OA
BRANCH  20  22
ATOM     22  C   UNL     1      -1.134   3.217  25.174  0.00  0.00    +0.055 A 
ATOM     23  C   UNL     1      -1.807   3.144  25.645  0.00  0.00    +0.007 A 
ATOM     24  C   UNL     1      -2.235   3.815  25.860  0.00  0.00    +0.030 A 
ATOM     25  C   UNL     1      -1.992   4.560  25.603  0.00  0.00    +0.140 A 
ATOM     26  F   UNL     1      -2.420   5.231  25.818  0.00  0.00    -0.204 F 
ATOM     27  C   UNL     1      -1.318   4.633  25.131  0.00  0.00    +0.030 A 
ATOM     28  C   UNL     1      -0.890   3.963  24.917  0.00  0.00    +0.007 A 
ENDBRANCH  20  22
ENDBRANCH   4  19
TORSDOF 4
ENDMDL
