MODEL 1
REMARK VINA RESULT:     -10.9      0.000      0.000
REMARK  Name = 
REMARK  6 active torsions:
REMARK  status: ('A' for Active; 'I' for Inactive)
REMARK    1  A    between atoms: O_2  and  C_3
REMARK    2  A    between atoms: C_3  and  C_5
REMARK    3  A    between atoms: N_10  and  S_11
REMARK    4  A    between atoms: S_11  and  C_14
REMARK    5  A    between atoms: N_19  and  C_20
REMARK    6  A    between atoms: C_20  and  C_21
REMARK                            x       y       z     vdW  Elec       q    Type
REMARK                         _______ _______ _______ _____ _____    ______ ____
ROOT
ATOM      5  C   UNL     1      -3.934   2.514  24.795  0.00  0.00    +0.184 C 
ATOM      6  C   UNL     1      -4.587   2.013  24.748  0.00  0.00    +0.076 C 
ATOM      7  C   UNL     1      -4.478   1.196  24.713  0.00  0.00    +0.076 A 
ATOM      8  C   UNL     1      -3.716   0.880  24.726  0.00  0.00    +0.070 A 
ATOM      9  C   UNL     1      -3.062   1.382  24.773  0.00  0.00    +0.141 C 
ATOM     10  N   UNL     1      -3.172   2.199  24.808  0.00  0.00    -0.139 NA
ATOM     19  N   UNL     1      -3.779   0.059  24.684  0.00  0.00    -0.307 N 
ATOM     27  C   UNL     1      -4.580  -0.133  24.646  0.00  0.00    +0.178 A 
ATOM     28  N   UNL     1      -5.012   0.569  24.663  0.00  0.00    -0.229 NA
ENDROOT
BRANCH  10  11
ATOM     11  S   UNL     1      -2.518   2.700  24.856  0.00  0.00    +0.070 S 
ATOM     12  O   UNL     1      -2.535   2.643  25.680  0.00  0.00    -0.152 OA
ATOM     13  O   UNL     1      -2.501   2.757  24.034  0.00  0.00    -0.152 OA
BRANCH  11  14
ATOM     14  C   UNL     1      -1.864   3.201  24.905  0.00  0.00    +0.152 A 
ATOM     15  C   UNL     1      -1.604   3.592  25.584  0.00  0.00    +0.027 A 
ATOM     16  C   UNL     1      -0.935   4.032  25.383  0.00  0.00    +0.009 A 
ATOM     17  C   UNL     1      -0.782   3.912  24.582  0.00  0.00    +0.037 A 
ATOM     18  S   UNL     1      -1.356   3.399  24.286  0.00  0.00    -0.067 S 
ENDBRANCH  11  14
ENDBRANCH  10  11
BRANCH   5   3
ATOM      3  C   UNL     1      -4.042   3.331  24.830  0.00  0.00    +0.334 C 
ATOM      4  O   UNL     1      -3.928   3.791  24.155  0.00  0.00    -0.249 OA
BRANCH   3   2
ATOM      1  C   UNL     1      -4.887   4.229  25.552  0.00  0.00    +0.256 C 
ATOM      2  O   UNL     1      -4.266   3.688  25.540  0.00  0.00    -0.443 OA
ENDBRANCH   3   2
ENDBRANCH   5   3
BRANCH  19  20
ATOM     20  C   UNL     1      -3.151  -0.476  24.682  0.00  0.00    +0.134 C 
BRANCH  20  21
ATOM     21  C   UNL     1      -3.300  -1.287  24.715  0.00  0.00    +0.000 A 
ATOM     22  C   UNL     1      -3.217  -1.693  25.429  0.00  0.00    -0.002 A 
ATOM     23  C   UNL     1      -3.366  -2.503  25.463  0.00  0.00    -0.000 A 
ATOM     24  C   UNL     1      -3.598  -2.908  24.782  0.00  0.00    -0.000 A 
ATOM     25  C   UNL     1      -3.681  -2.503  24.069  0.00  0.00    -0.000 A 
ATOM     26  C   UNL     1      -3.532  -1.693  24.036  0.00  0.00    -0.002 A 
ENDBRANCH  20  21
ENDBRANCH  19  20
TORSDOF 6
ENDMDL
MODEL 2
REMARK VINA RESULT:     -10.9      1.230      2.412
REMARK  Name = 
REMARK  6 active torsions:
REMARK  status: ('A' for Active; 'I' for Inactive)
REMARK    1  A    between atoms: O_2  and  C_3
REMARK    2  A    between atoms: C_3  and  C_5
REMARK    3  A    between atoms: N_10  and  S_11
REMARK    4  A    between atoms: S_11  and  C_14
REMARK    5  A    between atoms: N_19  and  C_20
REMARK    6  A    between atoms: C_20  and  C_21
REMARK                            x       y       z     vdW  Elec       q    Type
REMARK                         _______ _______ _______ _____ _____    ______ ____
ROOT
ATOM      5  C   UNL     1      -1.644   1.661  24.544  0.00  0.00    +0.184 C 
ATOM      6  C   UNL     1      -1.155   0.998  24.570  0.00  0.00    +0.076 C 
ATOM      7  C   UNL     1      -1.471   0.258  24.757  0.00  0.00    +0.076 A 
ATOM      8  C   UNL     1      -2.277   0.183  24.917  0.00  0.00    +0.070 A 
ATOM      9  C   UNL     1      -2.767   0.847  24.891  0.00  0.00    +0.141 C 
ATOM     10  N   UNL     1      -2.450   1.586  24.704  0.00  0.00    -0.139 NA
ATOM     19  N   UNL     1      -2.431  -0.609  25.084  0.00  0.00    -0.307 N 
ATOM     27  C   UNL     1      -1.721  -1.025  25.026  0.00  0.00    +0.178 A 
ATOM     28  N   UNL     1      -1.128  -0.488  24.824  0.00  0.00    -0.229 NA
ENDROOT
BRANCH  10  11
ATOM     11  S   UNL     1      -2.940   2.249  24.678  0.00  0.00    +0.070 S 
ATOM     12  O   UNL     1      -2.795   2.386  25.479  0.00  0.00    -0.152 OA
ATOM     13  O   UNL     1      -3.084   2.112  23.878  0.00  0.00    -0.152 OA
BRANCH  11  14
ATOM     14  C   UNL     1      -3.430   2.912  24.653  0.00  0.00    +0.152 A 
ATOM     15  C   UNL     1      -3.773   3.236  23.976  0.00  0.00    +0.027 A 
ATOM     16  C   UNL     1      -4.217   3.892  24.205  0.00  0.00    +0.009 A 
ATOM     17  C   UNL     1      -4.150   3.974  25.023  0.00  0.00    +0.037 A 
ATOM     18  S   UNL     1      -3.663   3.369  25.300  0.00  0.00    -0.067 S 
ENDBRANCH  11  14
ENDBRANCH  10  11
BRANCH   5   3
ATOM      3  C   UNL     1      -1.328   2.399  24.357  0.00  0.00    +0.334 C 
ATOM      4  O   UNL     1      -1.403   2.698  23.592  0.00  0.00    -0.249 OA
BRANCH   3   2
ATOM      1  C   UNL     1      -0.259   3.266  24.741  0.00  0.00    +0.256 C 
ATOM      2  O   UNL     1      -0.938   2.839  24.935  0.00  0.00    -0.443 OA
ENDBRANCH   3   2
ENDBRANCH   5   3
BRANCH  19  20
ATOM     20  C   UNL     1      -3.167  -0.931  25.275  0.00  0.00    +0.134 C 
BRANCH  20  21
ATOM     21  C   UNL     1      -3.447  -1.591  24.866  0.00  0.00    +0.000 A 
ATOM     22  C   UNL     1      -3.934  -1.492  24.207  0.00  0.00    -0.002 A 
ATOM     23  C   UNL     1      -4.214  -2.152  23.799  0.00  0.00    -0.000 A 
ATOM     24  C   UNL     1      -4.007  -2.910  24.049  0.00  0.00    -0.000 A 
ATOM     25  C   UNL     1      -3.521  -3.009  24.708  0.00  0.00    -0.000 A 
ATOM     26  C   UNL     1      -3.241  -2.349  25.116  0.00  0.00    -0.002 A 
ENDBRANCH  20  21
ENDBRANCH  19  20
TORSDOF 6
ENDMDL
MODEL 3
REMARK VINA RESULT:     -10.3      1.936      4.607
REMARK  Name = 
REMARK  6 active torsions:
REMARK  status: ('A' for Active; 'I' for Inactive)
REMARK    1  A    between atoms: O_2  and  C_3
REMARK    2  A    between atoms: C_3  and  C_5
REMARK    3  A    between atoms: N_10  and  S_11
REMARK    4  A    between atoms: S_11  and  C_14
REMARK    5  A    between atoms: N_19  and  C_20
REMARK    6  A    between atoms: C_20  and  C_21
REMARK                            x       y       z     vdW  Elec       q    Type
REMARK                         _______ _______ _______ _____ _____    ______ ____
ROOT
ATOM      5  C   UNL     1      -3.128   0.720  24.456  0.00  0.00    +0.184 C 
ATOM      6  C   UNL     1      -3.647   1.357  24.389  0.00  0.00    +0.076 C 
ATOM      7  C   UNL     1      -3.432   2.097  24.685  0.00  0.00    +0.076 A 
ATOM      8  C   UNL     1      -2.698   2.200  25.047  0.00  0.00    +0.070 A 
ATOM      9  C   UNL     1      -2.179   1.562  25.114  0.00  0.00    +0.141 C 
ATOM     10  N   UNL     1      -2.394   0.822  24.818  0.00  0.00    -0.139 NA
ATOM     19  N   UNL     1      -2.639   2.987  25.285  0.00  0.00    -0.307 N 
ATOM     27  C   UNL     1      -3.336   3.372  25.069  0.00  0.00    +0.178 A 
ATOM     28  N   UNL     1      -3.826   2.822  24.699  0.00  0.00    -0.229 NA
ENDROOT
BRANCH  10  11
ATOM     11  S   UNL     1      -1.874   0.185  24.885  0.00  0.00    +0.070 S 
ATOM     12  O   UNL     1      -1.551   0.372  24.149  0.00  0.00    -0.152 OA
ATOM     13  O   UNL     1      -2.196  -0.001  25.620  0.00  0.00    -0.152 OA
BRANCH  11  14
ATOM     14  C   UNL     1      -1.354  -0.452  24.951  0.00  0.00    +0.152 A 
ATOM     15  C   UNL     1      -1.350  -1.014  25.556  0.00  0.00    +0.027 A 
ATOM     16  C   UNL     1      -0.740  -1.548  25.403  0.00  0.00    +0.009 A 
ATOM     17  C   UNL     1      -0.367  -1.316  24.704  0.00  0.00    +0.037 A 
ATOM     18  S   UNL     1      -0.746  -0.639  24.425  0.00  0.00    -0.067 S 
ENDBRANCH  11  14
ENDBRANCH  10  11
BRANCH   5   3
ATOM      3  C   UNL     1      -3.342  -0.019  24.160  0.00  0.00    +0.334 C 
ATOM      4  O   UNL     1      -3.063  -0.265  23.424  0.00  0.00    -0.249 OA
BRANCH   3   2
ATOM      1  C   UNL     1      -4.390  -0.989  24.218  0.00  0.00    +0.256 C 
ATOM      2  O   UNL     1      -3.836  -0.513  24.600  0.00  0.00    -0.443 OA
ENDBRANCH   3   2
ENDBRANCH   5   3
BRANCH  19  20
ATOM     20  C   UNL     1      -1.995   3.330  25.671  0.00  0.00    +0.134 C 
BRANCH  20  21
ATOM     21  C   UNL     1      -1.664   4.027  25.380  0.00  0.00    +0.000 A 
ATOM     22  C   UNL     1      -0.952   4.004  24.963  0.00  0.00    -0.002 A 
ATOM     23  C   UNL     1      -0.621   4.701  24.673  0.00  0.00    -0.000 A 
ATOM     24  C   UNL     1      -1.001   5.422  24.800  0.00  0.00    -0.000 A 
ATOM     25  C   UNL     1      -1.712   5.446  25.216  0.00  0.00    -0.000 A 
ATOM     26  C   UNL     1      -2.044   4.748  25.506  0.00  0.00    -0.002 A 
ENDBRANCH  20  21
ENDBRANCH  19  20
TORSDOF 6
ENDMDL
MODEL 4
REMARK VINA RESULT:     -10.1      2.192      4.796
REMARK  Name = 
REMARK  6 active torsions:
REMARK  status: ('A' for Active; 'I' for Inactive)
REMARK    1  A    between atoms: O_2  and  C_3
REMARK    2  A    between atoms: C_3  and  C_5
REMARK    3  A    between atoms: N_10  and  S_11
REMARK    4  A    between atoms: S_11  and  C_14
REMARK    5  A    between atoms: N_19  and  C_20
REMARK    6  A    between atoms: C_20  and  C_21
REMARK                            x       y       z     vdW  Elec       q    Type
REMARK                         _______ _______ _______ _____ _____    ______ ____
ROOT
ATOM      5  C   UNL     1      -1.887   0.083  24.942  0.00  0.00    +0.184 C 
ATOM      6  C   UNL     1      -1.624   0.864  24.955  0.00  0.00    +0.076 C 
ATOM      7  C   UNL     1      -2.155   1.481  24.819  0.00  0.00    +0.076 A 
ATOM      8  C   UNL     1      -2.950   1.316  24.671  0.00  0.00    +0.070 A 
ATOM      9  C   UNL     1      -3.213   0.533  24.657  0.00  0.00    +0.141 C 
ATOM     10  N   UNL     1      -2.682  -0.082  24.793  0.00  0.00    -0.139 NA
ATOM     19  N   UNL     1      -3.343   2.032  24.558  0.00  0.00    -0.307 N 
ATOM     27  C   UNL     1      -2.791   2.640  24.636  0.00  0.00    +0.178 A 
ATOM     28  N   UNL     1      -2.058   2.299  24.798  0.00  0.00    -0.229 NA
ENDROOT
BRANCH  10  11
ATOM     11  S   UNL     1      -2.945  -0.864  24.780  0.00  0.00    +0.070 S 
ATOM     12  O   UNL     1      -2.814  -0.894  23.965  0.00  0.00    -0.152 OA
ATOM     13  O   UNL     1      -3.076  -0.834  25.593  0.00  0.00    -0.152 OA
BRANCH  11  14
ATOM     14  C   UNL     1      -3.209  -1.646  24.765  0.00  0.00    +0.152 A 
ATOM     15  C   UNL     1      -3.302  -2.138  25.421  0.00  0.00    +0.027 A 
ATOM     16  C   UNL     1      -3.576  -2.869  25.154  0.00  0.00    +0.009 A 
ATOM     17  C   UNL     1      -3.653  -2.829  24.333  0.00  0.00    +0.037 A 
ATOM     18  S   UNL     1      -3.426  -2.073  24.093  0.00  0.00    -0.067 S 
ENDBRANCH  11  14
ENDBRANCH  10  11
BRANCH   5   3
ATOM      3  C   UNL     1      -1.356  -0.533  25.077  0.00  0.00    +0.334 C 
ATOM      4  O   UNL     1      -1.295  -0.867  25.829  0.00  0.00    -0.249 OA
BRANCH   3   2
ATOM      1  C   UNL     1      -0.095  -1.003  24.597  0.00  0.00    +0.256 C 
ATOM      2  O   UNL     1      -0.886  -0.816  24.461  0.00  0.00    -0.443 OA
ENDBRANCH   3   2
ENDBRANCH   5   3
BRANCH  19  20
ATOM     20  C   UNL     1      -4.146   2.124  24.394  0.00  0.00    +0.134 C 
BRANCH  20  21
ATOM     21  C   UNL     1      -4.604   2.635  24.852  0.00  0.00    +0.000 A 
ATOM     22  C   UNL     1      -5.121   2.331  25.418  0.00  0.00    -0.002 A 
ATOM     23  C   UNL     1      -5.579   2.843  25.876  0.00  0.00    -0.000 A 
ATOM     24  C   UNL     1      -5.520   3.659  25.766  0.00  0.00    -0.000 A 
ATOM     25  C   UNL     1      -5.004   3.963  25.200  0.00  0.00    -0.000 A 
ATOM     26  C   UNL     1      -4.546   3.451  24.743  0.00  0.00    -0.002 A 
ENDBRANCH  20  21
ENDBRANCH  19  20
TORSDOF 6
ENDMDL
MODEL 5
REMARK VINA RESULT:     -10.0      2.189      5.207
REMARK  Name = 
REMARK  6 active torsions:
REMARK  status: ('A' for Active; 'I' for Inactive)
REMARK    1  A    between atoms: O_2  and  C_3
REMARK    2  A    between atoms: C_3  and  C_5
REMARK    3  A    between atoms: N_10  and  S_11
REMARK    4  A    between atoms: S_11  and  C_14
REMARK    5  A    between atoms: N_19  and  C_20
REMARK    6  A    between atoms: C_20  and  C_21
REMARK                            x       y       z     vdW  Elec       q    Type
REMARK                         _______ _______ _______ _____ _____    ______ ____
ROOT
ATOM      5  C   UNL     1      -1.239   0.059  25.339  0.00  0.00    +0.184 C 
ATOM      6  C   UNL     1      -0.595   0.529  25.549  0.00  0.00    +0.076 C 
ATOM      7  C   UNL     1      -0.597   1.335  25.372  0.00  0.00    +0.076 A 
ATOM      8  C   UNL     1      -1.243   1.670  24.985  0.00  0.00    +0.070 A 
ATOM      9  C   UNL     1      -1.888   1.199  24.774  0.00  0.00    +0.141 C 
ATOM     10  N   UNL     1      -1.885   0.394  24.952  0.00  0.00    -0.139 NA
ATOM     19  N   UNL     1      -1.091   2.474  24.883  0.00  0.00    -0.307 N 
ATOM     27  C   UNL     1      -0.350   2.636  25.207  0.00  0.00    +0.178 A 
ATOM     28  N   UNL     1      -0.045   1.932  25.509  0.00  0.00    -0.229 NA
ENDROOT
BRANCH  10  11
ATOM     11  S   UNL     1      -2.530  -0.076  24.742  0.00  0.00    +0.070 S 
ATOM     12  O   UNL     1      -2.866   0.054  25.485  0.00  0.00    -0.152 OA
ATOM     13  O   UNL     1      -2.195  -0.205  24.000  0.00  0.00    -0.152 OA
BRANCH  11  14
ATOM     14  C   UNL     1      -3.175  -0.546  24.533  0.00  0.00    +0.152 A 
ATOM     15  C   UNL     1      -3.230  -1.022  23.861  0.00  0.00    +0.027 A 
ATOM     16  C   UNL     1      -3.967  -1.392  23.871  0.00  0.00    +0.009 A 
ATOM     17  C   UNL     1      -4.368  -1.146  24.549  0.00  0.00    +0.037 A 
ATOM     18  S   UNL     1      -3.878  -0.623  24.958  0.00  0.00    -0.067 S 
ENDBRANCH  11  14
ENDBRANCH  10  11
BRANCH   5   3
ATOM      3  C   UNL     1      -1.236  -0.746  25.516  0.00  0.00    +0.334 C 
ATOM      4  O   UNL     1      -1.646  -1.025  26.176  0.00  0.00    -0.249 OA
BRANCH   3   2
ATOM      1  C   UNL     1      -0.381  -1.882  25.372  0.00  0.00    +0.256 C 
ATOM      2  O   UNL     1      -0.824  -1.274  25.034  0.00  0.00    -0.443 OA
ENDBRANCH   3   2
ENDBRANCH   5   3
BRANCH  19  20
ATOM     20  C   UNL     1      -1.592   3.021  24.520  0.00  0.00    +0.134 C 
BRANCH  20  21
ATOM     21  C   UNL     1      -1.634   3.794  24.805  0.00  0.00    +0.000 A 
ATOM     22  C   UNL     1      -2.259   4.021  25.294  0.00  0.00    -0.002 A 
ATOM     23  C   UNL     1      -2.300   4.794  25.578  0.00  0.00    -0.000 A 
ATOM     24  C   UNL     1      -1.717   5.340  25.374  0.00  0.00    -0.000 A 
ATOM     25  C   UNL     1      -1.092   5.114  24.885  0.00  0.00    -0.000 A 
ATOM     26  C   UNL     1      -1.051   4.341  24.601  0.00  0.00    -0.002 A 
ENDBRANCH  20  21
ENDBRANCH  19  20
TORSDOF 6
ENDMDL
