MODEL 1
REMARK VINA RESULT:     -11.2      0.000      0.000
REMARK  Name = 
REMARK  9 active torsions:
REMARK  status: ('A' for Active; 'I' for Inactive)
REMARK    1  A    between atoms: S_2  and  C_3
REMARK    2  A    between atoms: C_3  and  C_4
REMARK    3  A    between atoms: C_9  and  N_10
REMARK    4  A    between atoms: N_13  and  C_14
REMARK    5  A    between atoms: C_20  and  C_21
REMARK    6  A    between atoms: N_23  and  C_24
REMARK    7  A    between atoms: C_24  and  C_25
REMARK    8  A    between atoms: C_24  and  C_31
REMARK    9  A    between atoms: C_25  and  C_26
REMARK                            x       y       z     vdW  Elec       q    Type
REMARK                         _______ _______ _______ _____ _____    ______ ____
ROOT
ATOM      4  C   UNL     1      -0.702   2.578  24.919  0.00  0.00    +0.237 C 
ATOM      5  O   UNL     1       0.119   2.622  24.852  0.00  0.00    -0.274 OA
ATOM      6  N   UNL     1      -1.076   1.844  24.933  0.00  0.00    -0.271 N 
ATOM      7  C   UNL     1      -0.704   1.109  24.884  0.00  0.00    +0.096 C 
ATOM      8  C   UNL     1      -1.288   0.526  24.919  0.00  0.00    +0.045 C 
ATOM      9  C   UNL     1      -2.019   0.900  24.989  0.00  0.00    +0.126 C 
ATOM     20  C   UNL     1      -1.888   1.715  24.998  0.00  0.00    +0.174 C 
ENDROOT
BRANCH   9  10
ATOM     10  N   UNL     1      -2.752   0.526  25.041  0.00  0.00    -0.187 NA
ATOM     11  C   UNL     1      -2.822  -0.274  24.852  0.00  0.00    +0.339 C 
ATOM     12  O   UNL     1      -2.158  -0.700  24.611  0.00  0.00    -0.249 OA
ATOM     13  N   UNL     1      -3.555  -0.649  24.905  0.00  0.00    -0.189 NA
BRANCH  13  14
ATOM     14  C   UNL     1      -3.624  -1.448  24.716  0.00  0.00    +0.097 C 
ATOM     15  C   UNL     1      -3.951  -1.675  23.992  0.00  0.00    +0.022 C 
ATOM     16  C   UNL     1      -4.020  -2.475  23.804  0.00  0.00    +0.002 C 
ATOM     17  C   UNL     1      -3.763  -3.049  24.338  0.00  0.00    +0.000 C 
ATOM     18  C   UNL     1      -3.437  -2.823  25.061  0.00  0.00    +0.002 C 
ATOM     19  C   UNL     1      -3.367  -2.023  25.250  0.00  0.00    +0.022 C 
ENDBRANCH  13  14
ENDBRANCH   9  10
BRANCH  20  21
ATOM     21  C   UNL     1      -2.469   2.298  25.060  0.00  0.00    +0.262 C 
ATOM     22  O   UNL     1      -2.403   2.885  25.637  0.00  0.00    -0.271 OA
ATOM     23  N   UNL     1      -3.115   2.295  24.547  0.00  0.00    -0.196 NA
BRANCH  23  24
ATOM     24  C   UNL     1      -3.695   2.878  24.611  0.00  0.00    +0.179 C 
BRANCH  24  31
ATOM     31  C   UNL     1      -3.818   3.407  23.991  0.00  0.00    +0.281 C 
ATOM     32  N   UNL     1      -3.812   3.138  23.212  0.00  0.00    -0.086 NA
ATOM     33  O   UNL     1      -3.948   4.206  24.150  0.00  0.00    -0.270 OA
ENDBRANCH  24  31
BRANCH  24  25
ATOM     25  C   UNL     1      -4.151   2.932  25.296  0.00  0.00    +0.064 C 
BRANCH  25  26
ATOM     26  C   UNL     1      -4.915   2.620  25.309  0.00  0.00    +0.010 A 
ATOM     27  C   UNL     1      -5.281   2.209  24.695  0.00  0.00    +0.003 A 
ATOM     28  C   UNL     1      -6.039   2.000  24.945  0.00  0.00    +0.007 A 
ATOM     29  C   UNL     1      -6.141   2.282  25.715  0.00  0.00    +0.035 A 
ATOM     30  S   UNL     1      -5.446   2.666  25.939  0.00  0.00    -0.091 S 
ENDBRANCH  25  26
ENDBRANCH  24  25
ENDBRANCH  23  24
ENDBRANCH  20  21
BRANCH   4   3
ATOM      3  C   UNL     1      -1.148   3.270  24.973  0.00  0.00    +0.143 C 
BRANCH   3   2
ATOM      1  C   UNL     1      -0.661   4.566  24.618  0.00  0.00    +0.070 C 
ATOM      2  S   UNL     1      -0.785   3.980  25.186  0.00  0.00    -0.130 S 
ENDBRANCH   3   2
ENDBRANCH   4   3
TORSDOF 9
ENDMDL
MODEL 2
REMARK VINA RESULT:      -9.8      1.323      3.149
REMARK  Name = 
REMARK  9 active torsions:
REMARK  status: ('A' for Active; 'I' for Inactive)
REMARK    1  A    between atoms: S_2  and  C_3
REMARK    2  A    between atoms: C_3  and  C_4
REMARK    3  A    between atoms: C_9  and  N_10
REMARK    4  A    between atoms: N_13  and  C_14
REMARK    5  A    between atoms: C_20  and  C_21
REMARK    6  A    between atoms: N_23  and  C_24
REMARK    7  A    between atoms: C_24  and  C_25
REMARK    8  A    between atoms: C_24  and  C_31
REMARK    9  A    between atoms: C_25  and  C_26
REMARK                            x       y       z     vdW  Elec       q    Type
REMARK                         _______ _______ _______ _____ _____    ______ ____
ROOT
ATOM      4  C   UNL     1      -4.793   2.973  25.438  0.00  0.00    +0.237 C 
ATOM      5  O   UNL     1      -5.422   3.237  25.903  0.00  0.00    -0.274 OA
ATOM      6  N   UNL     1      -4.754   2.183  25.207  0.00  0.00    -0.271 N 
ATOM      7  C   UNL     1      -5.300   1.594  25.397  0.00  0.00    +0.096 C 
ATOM      8  C   UNL     1      -5.045   0.889  25.053  0.00  0.00    +0.045 C 
ATOM      9  C   UNL     1      -4.342   1.042  24.649  0.00  0.00    +0.126 C 
ATOM     20  C   UNL     1      -4.162   1.842  24.745  0.00  0.00    +0.174 C 
ENDROOT
BRANCH   9  10
ATOM     10  N   UNL     1      -3.897   0.492  24.225  0.00  0.00    -0.187 NA
ATOM     11  C   UNL     1      -3.945  -0.310  24.412  0.00  0.00    +0.339 C 
ATOM     12  O   UNL     1      -4.438  -0.562  25.024  0.00  0.00    -0.249 OA
ATOM     13  N   UNL     1      -3.500  -0.860  23.988  0.00  0.00    -0.189 NA
BRANCH  13  14
ATOM     14  C   UNL     1      -3.548  -1.662  24.175  0.00  0.00    +0.097 C 
ATOM     15  C   UNL     1      -4.103  -2.142  23.798  0.00  0.00    +0.022 C 
ATOM     16  C   UNL     1      -4.151  -2.943  23.985  0.00  0.00    +0.002 C 
ATOM     17  C   UNL     1      -3.644  -3.267  24.549  0.00  0.00    +0.000 C 
ATOM     18  C   UNL     1      -3.088  -2.788  24.927  0.00  0.00    +0.002 C 
ATOM     19  C   UNL     1      -3.040  -1.985  24.740  0.00  0.00    +0.022 C 
ENDBRANCH  13  14
ENDBRANCH   9  10
BRANCH  20  21
ATOM     21  C   UNL     1      -3.505   2.231  24.433  0.00  0.00    +0.262 C 
ATOM     22  O   UNL     1      -3.610   2.877  23.929  0.00  0.00    -0.271 OA
ATOM     23  N   UNL     1      -2.744   1.976  24.623  0.00  0.00    -0.196 NA
BRANCH  23  24
ATOM     24  C   UNL     1      -2.088   2.366  24.310  0.00  0.00    +0.179 C 
BRANCH  24  31
ATOM     31  C   UNL     1      -1.849   2.216  23.535  0.00  0.00    +0.281 C 
ATOM     32  N   UNL     1      -1.886   2.814  22.969  0.00  0.00    -0.086 NA
ATOM     33  O   UNL     1      -1.574   1.467  23.327  0.00  0.00    -0.270 OA
ENDBRANCH  24  31
BRANCH  24  25
ATOM     25  C   UNL     1      -1.670   2.906  24.773  0.00  0.00    +0.064 C 
BRANCH  25  26
ATOM     26  C   UNL     1      -1.062   2.645  25.265  0.00  0.00    +0.010 A 
ATOM     27  C   UNL     1      -1.072   1.964  25.730  0.00  0.00    +0.003 A 
ATOM     28  C   UNL     1      -0.353   1.918  26.131  0.00  0.00    +0.007 A 
ATOM     29  C   UNL     1       0.103   2.571  25.913  0.00  0.00    +0.035 A 
ATOM     30  S   UNL     1      -0.335   3.021  25.378  0.00  0.00    -0.091 S 
ENDBRANCH  25  26
ENDBRANCH  24  25
ENDBRANCH  23  24
ENDBRANCH  20  21
BRANCH   4   3
ATOM      3  C   UNL     1      -4.204   3.501  25.204  0.00  0.00    +0.143 C 
BRANCH   3   2
ATOM      1  C   UNL     1      -3.929   4.686  25.956  0.00  0.00    +0.070 C 
ATOM      2  S   UNL     1      -4.305   4.311  25.323  0.00  0.00    -0.130 S 
ENDBRANCH   3   2
ENDBRANCH   4   3
TORSDOF 9
ENDMDL
MODEL 3
REMARK VINA RESULT:      -9.0      1.832      3.892
REMARK  Name = 
REMARK  9 active torsions:
REMARK  status: ('A' for Active; 'I' for Inactive)
REMARK    1  A    between atoms: S_2  and  C_3
REMARK    2  A    between atoms: C_3  and  C_4
REMARK    3  A    between atoms: C_9  and  N_10
REMARK    4  A    between atoms: N_13  and  C_14
REMARK    5  A    between atoms: C_20  and  C_21
REMARK    6  A    between atoms: N_23  and  C_24
REMARK    7  A    between atoms: C_24  and  C_25
REMARK    8  A    between atoms: C_24  and  C_31
REMARK    9  A    between atoms: C_25  and  C_26
REMARK                            x       y       z     vdW  Elec       q    Type
REMARK                         _______ _______ _______ _____ _____    ______ ____
ROOT
ATOM      4  C   UNL     1      -0.927  -0.516  24.216  0.00  0.00    +0.237 C 
ATOM      5  O   UNL     1      -0.833  -1.325  24.084  0.00  0.00    -0.274 OA
ATOM      6  N   UNL     1      -1.662  -0.218  24.446  0.00  0.00    -0.271 N 
ATOM      7  C   UNL     1      -2.348  -0.660  24.564  0.00  0.00    +0.096 C 
ATOM      8  C   UNL     1      -2.949  -0.141  24.789  0.00  0.00    +0.045 C 
ATOM      9  C   UNL     1      -2.634   0.621  24.809  0.00  0.00    +0.126 C 
ATOM     20  C   UNL     1      -1.838   0.573  24.597  0.00  0.00    +0.174 C 
ENDROOT
BRANCH   9  10
ATOM     10  N   UNL     1      -3.043   1.310  25.007  0.00  0.00    -0.187 NA
ATOM     11  C   UNL     1      -3.866   1.302  25.051  0.00  0.00    +0.339 C 
ATOM     12  O   UNL     1      -4.281   0.606  24.897  0.00  0.00    -0.249 OA
ATOM     13  N   UNL     1      -4.276   1.991  25.248  0.00  0.00    -0.189 NA
BRANCH  13  14
ATOM     14  C   UNL     1      -5.099   1.983  25.292  0.00  0.00    +0.097 C 
ATOM     15  C   UNL     1      -5.473   1.965  26.028  0.00  0.00    +0.022 C 
ATOM     16  C   UNL     1      -6.296   1.957  26.072  0.00  0.00    +0.002 C 
ATOM     17  C   UNL     1      -6.747   1.969  25.381  0.00  0.00    +0.000 C 
ATOM     18  C   UNL     1      -6.374   1.988  24.646  0.00  0.00    +0.002 C 
ATOM     19  C   UNL     1      -5.550   1.995  24.601  0.00  0.00    +0.022 C 
ENDBRANCH  13  14
ENDBRANCH   9  10
BRANCH  20  21
ATOM     21  C   UNL     1      -1.311   1.206  24.545  0.00  0.00    +0.262 C 
ATOM     22  O   UNL     1      -0.900   1.344  23.843  0.00  0.00    -0.271 OA
ATOM     23  N   UNL     1      -1.196   1.702  25.195  0.00  0.00    -0.196 NA
BRANCH  23  24
ATOM     24  C   UNL     1      -0.670   2.335  25.142  0.00  0.00    +0.179 C 
BRANCH  24  31
ATOM     31  C   UNL     1      -0.017   2.372  25.644  0.00  0.00    +0.281 C 
ATOM     32  N   UNL     1      -0.116   2.283  26.457  0.00  0.00    -0.086 NA
ATOM     33  O   UNL     1       0.736   2.499  25.332  0.00  0.00    -0.270 OA
ENDBRANCH  24  31
BRANCH  24  25
ATOM     25  C   UNL     1      -0.797   2.931  24.586  0.00  0.00    +0.064 C 
BRANCH  25  26
ATOM     26  C   UNL     1      -1.033   3.682  24.833  0.00  0.00    +0.010 A 
ATOM     27  C   UNL     1      -1.667   3.852  25.331  0.00  0.00    +0.003 A 
ATOM     28  C   UNL     1      -1.701   4.670  25.430  0.00  0.00    +0.007 A 
ATOM     29  C   UNL     1      -1.087   5.006  24.992  0.00  0.00    +0.035 A 
ATOM     30  S   UNL     1      -0.674   4.395  24.623  0.00  0.00    -0.091 S 
ENDBRANCH  25  26
ENDBRANCH  24  25
ENDBRANCH  23  24
ENDBRANCH  20  21
BRANCH   4   3
ATOM      3  C   UNL     1      -0.287  -0.004  24.119  0.00  0.00    +0.143 C 
BRANCH   3   2
ATOM      1  C   UNL     1       0.789  -0.175  23.193  0.00  0.00    +0.070 C 
ATOM      2  S   UNL     1       0.459  -0.307  23.938  0.00  0.00    -0.130 S 
ENDBRANCH   3   2
ENDBRANCH   4   3
TORSDOF 9
ENDMDL
MODEL 4
REMARK VINA RESULT:      -8.9      1.895      5.418
REMARK  Name = 
REMARK  9 active torsions:
REMARK  status: ('A' for Active; 'I' for Inactive)
REMARK    1  A    between atoms: S_2  and  C_3
REMARK    2  A    between atoms: C_3  and  C_4
REMARK    3  A    between atoms: C_9  and  N_10
REMARK    4  A    between atoms: N_13  and  C_14
REMARK    5  A    between atoms: C_20  and  C_21
REMARK    6  A    between atoms: N_23  and  C_24
REMARK    7  A    between atoms: C_24  and  C_25
REMARK    8  A    between atoms: C_24  and  C_31
REMARK    9  A    between atoms: C_25  and  C_26
REMARK                            x       y       z     vdW  Elec       q    Type
REMARK                         _______ _______ _______ _____ _____    ______ ____
ROOT
ATOM      4  C   UNL     1      -4.129  -0.279  24.288  0.00  0.00    +0.237 C 
ATOM      5  O   UNL     1      -4.874  -0.367  23.946  0.00  0.00    -0.274 OA
ATOM      6  N   UNL     1      -3.873   0.466  24.534  0.00  0.00    -0.271 N 
ATOM      7  C   UNL     1      -4.299   1.170  24.473  0.00  0.00    +0.096 C 
ATOM      8  C   UNL     1      -3.835   1.776  24.785  0.00  0.00    +0.045 C 
ATOM      9  C   UNL     1      -3.122   1.447  25.038  0.00  0.00    +0.126 C 
ATOM     20  C   UNL     1      -3.146   0.637  24.883  0.00  0.00    +0.174 C 
ENDROOT
BRANCH   9  10
ATOM     10  N   UNL     1      -2.496   1.857  25.386  0.00  0.00    -0.187 NA
ATOM     11  C   UNL     1      -2.366   2.649  25.198  0.00  0.00    +0.339 C 
ATOM     12  O   UNL     1      -2.862   3.032  24.663  0.00  0.00    -0.249 OA
ATOM     13  N   UNL     1      -1.740   3.059  25.546  0.00  0.00    -0.189 NA
BRANCH  13  14
ATOM     14  C   UNL     1      -1.610   3.851  25.358  0.00  0.00    +0.097 C 
ATOM     15  C   UNL     1      -2.143   4.428  25.612  0.00  0.00    +0.022 C 
ATOM     16  C   UNL     1      -2.013   5.221  25.424  0.00  0.00    +0.002 C 
ATOM     17  C   UNL     1      -1.351   5.437  24.983  0.00  0.00    +0.000 C 
ATOM     18  C   UNL     1      -0.818   4.861  24.729  0.00  0.00    +0.002 C 
ATOM     19  C   UNL     1      -0.947   4.068  24.917  0.00  0.00    +0.022 C 
ENDBRANCH  13  14
ENDBRANCH   9  10
BRANCH  20  21
ATOM     21  C   UNL     1      -2.546   0.094  25.049  0.00  0.00    +0.262 C 
ATOM     22  O   UNL     1      -2.717  -0.590  25.477  0.00  0.00    -0.271 OA
ATOM     23  N   UNL     1      -1.777   0.236  24.787  0.00  0.00    -0.196 NA
BRANCH  23  24
ATOM     24  C   UNL     1      -1.179  -0.307  24.953  0.00  0.00    +0.179 C 
BRANCH  24  31
ATOM     31  C   UNL     1      -0.935  -0.427  25.731  0.00  0.00    +0.281 C 
ATOM     32  N   UNL     1      -0.946  -1.186  26.054  0.00  0.00    -0.086 NA
ATOM     33  O   UNL     1      -0.679   0.211  26.186  0.00  0.00    -0.270 OA
ENDBRANCH  24  31
BRANCH  24  25
ATOM     25  C   UNL     1      -0.824  -0.730  24.340  0.00  0.00    +0.064 C 
BRANCH  25  26
ATOM     26  C   UNL     1      -0.225  -0.384  23.891  0.00  0.00    +0.010 A 
ATOM     27  C   UNL     1      -0.268   0.343  23.504  0.00  0.00    +0.003 A 
ATOM     28  C   UNL     1       0.453   0.472  23.124  0.00  0.00    +0.007 A 
ATOM     29  C   UNL     1       0.942  -0.175  23.277  0.00  0.00    +0.035 A 
ATOM     30  S   UNL     1       0.523  -0.704  23.751  0.00  0.00    -0.091 S 
ENDBRANCH  25  26
ENDBRANCH  24  25
ENDBRANCH  23  24
ENDBRANCH  20  21
BRANCH   4   3
ATOM      3  C   UNL     1      -3.639  -0.936  24.385  0.00  0.00    +0.143 C 
BRANCH   3   2
ATOM      1  C   UNL     1      -3.937  -2.332  24.459  0.00  0.00    +0.070 C 
ATOM      2  S   UNL     1      -3.825  -1.648  24.011  0.00  0.00    -0.130 S 
ENDBRANCH   3   2
ENDBRANCH   4   3
TORSDOF 9
ENDMDL
MODEL 5
REMARK VINA RESULT:      -8.7      1.695      4.366
REMARK  Name = 
REMARK  9 active torsions:
REMARK  status: ('A' for Active; 'I' for Inactive)
REMARK    1  A    between atoms: S_2  and  C_3
REMARK    2  A    between atoms: C_3  and  C_4
REMARK    3  A    between atoms: C_9  and  N_10
REMARK    4  A    between atoms: N_13  and  C_14
REMARK    5  A    between atoms: C_20  and  C_21
REMARK    6  A    between atoms: N_23  and  C_24
REMARK    7  A    between atoms: C_24  and  C_25
REMARK    8  A    between atoms: C_24  and  C_31
REMARK    9  A    between atoms: C_25  and  C_26
REMARK                            x       y       z     vdW  Elec       q    Type
REMARK                         _______ _______ _______ _____ _____    ______ ____
ROOT
ATOM      4  C   UNL     1      -0.924  -0.979  24.795  0.00  0.00    +0.237 C 
ATOM      5  O   UNL     1      -0.209  -1.382  24.720  0.00  0.00    -0.274 OA
ATOM      6  N   UNL     1      -0.933  -0.154  24.808  0.00  0.00    -0.271 N 
ATOM      7  C   UNL     1      -0.274   0.339  24.751  0.00  0.00    +0.096 C 
ATOM      8  C   UNL     1      -0.537   1.120  24.788  0.00  0.00    +0.045 C 
ATOM      9  C   UNL     1      -1.358   1.110  24.867  0.00  0.00    +0.126 C 
ATOM     20  C   UNL     1      -1.603   0.322  24.880  0.00  0.00    +0.174 C 
ENDROOT
BRANCH   9  10
ATOM     10  N   UNL     1      -1.848   1.772  24.924  0.00  0.00    -0.187 NA
ATOM     11  C   UNL     1      -1.521   2.528  24.930  0.00  0.00    +0.339 C 
ATOM     12  O   UNL     1      -0.703   2.624  24.878  0.00  0.00    -0.249 OA
ATOM     13  N   UNL     1      -2.011   3.190  24.987  0.00  0.00    -0.189 NA
BRANCH  13  14
ATOM     14  C   UNL     1      -1.684   3.947  24.992  0.00  0.00    +0.097 C 
ATOM     15  C   UNL     1      -2.081   4.566  25.365  0.00  0.00    +0.022 C 
ATOM     16  C   UNL     1      -1.754   5.323  25.370  0.00  0.00    +0.002 C 
ATOM     17  C   UNL     1      -1.029   5.462  25.003  0.00  0.00    +0.000 C 
ATOM     18  C   UNL     1      -0.631   4.843  24.629  0.00  0.00    +0.002 C 
ATOM     19  C   UNL     1      -0.958   4.086  24.624  0.00  0.00    +0.022 C 
ENDBRANCH  13  14
ENDBRANCH   9  10
BRANCH  20  21
ATOM     21  C   UNL     1      -2.381   0.058  24.952  0.00  0.00    +0.262 C 
ATOM     22  O   UNL     1      -2.580  -0.483  25.543  0.00  0.00    -0.271 OA
ATOM     23  N   UNL     1      -2.961   0.333  24.433  0.00  0.00    -0.196 NA
BRANCH  23  24
ATOM     24  C   UNL     1      -3.739   0.068  24.505  0.00  0.00    +0.179 C 
BRANCH  24  31
ATOM     31  C   UNL     1      -4.059  -0.434  23.935  0.00  0.00    +0.281 C 
ATOM     32  N   UNL     1      -4.532  -1.069  24.164  0.00  0.00    -0.086 NA
ATOM     33  O   UNL     1      -3.906  -0.300  23.136  0.00  0.00    -0.270 OA
ENDBRANCH  24  31
BRANCH  24  25
ATOM     25  C   UNL     1      -4.196   0.306  25.150  0.00  0.00    +0.064 C 
BRANCH  25  26
ATOM     26  C   UNL     1      -4.701   0.955  25.081  0.00  0.00    +0.010 A 
ATOM     27  C   UNL     1      -4.823   1.404  24.400  0.00  0.00    +0.003 A 
ATOM     28  C   UNL     1      -5.369   1.995  24.580  0.00  0.00    +0.007 A 
ATOM     29  C   UNL     1      -5.586   1.911  25.372  0.00  0.00    +0.035 A 
ATOM     30  S   UNL     1      -5.172   1.267  25.682  0.00  0.00    -0.091 S 
ENDBRANCH  25  26
ENDBRANCH  24  25
ENDBRANCH  23  24
ENDBRANCH  20  21
BRANCH   4   3
ATOM      3  C   UNL     1      -1.631  -1.400  24.858  0.00  0.00    +0.143 C 
BRANCH   3   2
ATOM      1  C   UNL     1      -1.713  -2.753  24.403  0.00  0.00    +0.070 C 
ATOM      2  S   UNL     1      -1.616  -2.209  25.017  0.00  0.00    -0.130 S 
ENDBRANCH   3   2
ENDBRANCH   4   3
TORSDOF 9
ENDMDL
MODEL 6
REMARK VINA RESULT:      -8.6      1.818      4.271
REMARK  Name = 
REMARK  9 active torsions:
REMARK  status: ('A' for Active; 'I' for Inactive)
REMARK    1  A    between atoms: S_2  and  C_3
REMARK    2  A    between atoms: C_3  and  C_4
REMARK    3  A    between atoms: C_9  and  N_10
REMARK    4  A    between atoms: N_13  and  C_14
REMARK    5  A    between atoms: C_20  and  C_21
REMARK    6  A    between atoms: N_23  and  C_24
REMARK    7  A    between atoms: C_24  and  C_25
REMARK    8  A    between atoms: C_24  and  C_31
REMARK    9  A    between atoms: C_25  and  C_26
REMARK                            x       y       z     vdW  Elec       q    Type
REMARK                         _______ _______ _______ _____ _____    ______ ____
ROOT
ATOM      4  C   UNL     1       0.618   1.287  23.890  0.00  0.00    +0.237 C 
ATOM      5  O   UNL     1       1.281   1.745  23.716  0.00  0.00    -0.274 OA
ATOM      6  N   UNL     1      -0.037   1.631  24.254  0.00  0.00    -0.271 N 
ATOM      7  C   UNL     1      -0.109   2.423  24.476  0.00  0.00    +0.096 C 
ATOM      8  C   UNL     1      -0.852   2.524  24.819  0.00  0.00    +0.045 C 
ATOM      9  C   UNL     1      -1.239   1.796  24.810  0.00  0.00    +0.126 C 
ATOM     20  C   UNL     1      -0.735   1.243  24.461  0.00  0.00    +0.174 C 
ENDROOT
BRANCH   9  10
ATOM     10  N   UNL     1      -1.998   1.646  25.099  0.00  0.00    -0.187 NA
ATOM     11  C   UNL     1      -2.581   2.226  25.046  0.00  0.00    +0.339 C 
ATOM     12  O   UNL     1      -2.408   2.956  24.704  0.00  0.00    -0.249 OA
ATOM     13  N   UNL     1      -3.340   2.077  25.336  0.00  0.00    -0.189 NA
BRANCH  13  14
ATOM     14  C   UNL     1      -3.923   2.657  25.283  0.00  0.00    +0.097 C 
ATOM     15  C   UNL     1      -4.503   2.607  24.697  0.00  0.00    +0.022 C 
ATOM     16  C   UNL     1      -5.086   3.187  24.644  0.00  0.00    +0.002 C 
ATOM     17  C   UNL     1      -5.092   3.817  25.176  0.00  0.00    +0.000 C 
ATOM     18  C   UNL     1      -4.514   3.867  25.762  0.00  0.00    +0.002 C 
ATOM     19  C   UNL     1      -3.929   3.287  25.815  0.00  0.00    +0.022 C 
ENDBRANCH  13  14
ENDBRANCH   9  10
BRANCH  20  21
ATOM     21  C   UNL     1      -0.902   0.445  24.340  0.00  0.00    +0.262 C 
ATOM     22  O   UNL     1      -0.828   0.118  23.585  0.00  0.00    -0.271 OA
ATOM     23  N   UNL     1      -1.141  -0.028  24.972  0.00  0.00    -0.196 NA
BRANCH  23  24
ATOM     24  C   UNL     1      -1.308  -0.827  24.850  0.00  0.00    +0.179 C 
BRANCH  24  31
ATOM     31  C   UNL     1      -0.853  -1.405  25.223  0.00  0.00    +0.281 C 
ATOM     32  N   UNL     1      -0.636  -2.087  24.814  0.00  0.00    -0.086 NA
ATOM     33  O   UNL     1      -0.615  -1.301  26.006  0.00  0.00    -0.270 OA
ENDBRANCH  24  31
BRANCH  24  25
ATOM     25  C   UNL     1      -1.929  -1.047  24.354  0.00  0.00    +0.064 C 
BRANCH  25  26
ATOM     26  C   UNL     1      -2.656  -1.266  24.676  0.00  0.00    +0.010 A 
ATOM     27  C   UNL     1      -2.831  -1.334  25.479  0.00  0.00    +0.003 A 
ATOM     28  C   UNL     1      -3.620  -1.565  25.550  0.00  0.00    +0.007 A 
ATOM     29  C   UNL     1      -3.933  -1.640  24.790  0.00  0.00    +0.035 A 
ATOM     30  S   UNL     1      -3.337  -1.455  24.250  0.00  0.00    -0.091 S 
ENDBRANCH  25  26
ENDBRANCH  24  25
ENDBRANCH  23  24
ENDBRANCH  20  21
BRANCH   4   3
ATOM      3  C   UNL     1       0.611   0.484  23.700  0.00  0.00    +0.143 C 
BRANCH   3   2
ATOM      1  C   UNL     1       1.333  -0.100  22.614  0.00  0.00    +0.070 C 
ATOM      2  S   UNL     1       1.292   0.123  23.408  0.00  0.00    -0.130 S 
ENDBRANCH   3   2
ENDBRANCH   4   3
TORSDOF 9
ENDMDL
