MODEL 1
REMARK VINA RESULT:      -9.7      0.000      0.000
REMARK  Name = 
REMARK  9 active torsions:
REMARK  status: ('A' for Active; 'I' for Inactive)
REMARK    1  A    between atoms: C_2  and  C_3
REMARK    2  A    between atoms: N_5  and  S_17
REMARK    3  A    between atoms: C_8  and  C_9
REMARK    4  A    between atoms: C_9  and  C_10
REMARK    5  A    between atoms: N_12  and  C_13
REMARK    6  A    between atoms: C_13  and  C_14
REMARK    7  A    between atoms: C_14  and  S_15
REMARK    8  A    between atoms: S_17  and  C_20
REMARK    9  A    between atoms: C_23  and  O_24
REMARK                            x       y       z     vdW  Elec       q    Type
REMARK                         _______ _______ _______ _____ _____    ______ ____
ROOT
ATOM      3  C   UNL     1      -4.914   1.917  25.173  0.00  0.00    +0.018 C 
ATOM      4  C   UNL     1      -4.832   1.101  25.082  0.00  0.00    +0.096 C 
ATOM      5  N   UNL     1      -4.123   0.788  24.800  0.00  0.00    -0.156 NA
ATOM      6  C   UNL     1      -3.496   1.289  24.611  0.00  0.00    +0.096 C 
ATOM      7  C   UNL     1      -3.578   2.105  24.702  0.00  0.00    +0.020 C 
ATOM      8  C   UNL     1      -4.288   2.419  24.984  0.00  0.00    +0.012 C 
ENDROOT
BRANCH   5  17
ATOM     17  S   UNL     1      -4.040  -0.028  24.708  0.00  0.00    +0.063 S 
ATOM     18  O   UNL     1      -4.086  -0.126  25.526  0.00  0.00    -0.153 OA
ATOM     19  O   UNL     1      -3.993   0.070  23.890  0.00  0.00    -0.153 OA
BRANCH  17  20
ATOM     20  C   UNL     1      -3.957  -0.844  24.615  0.00  0.00    +0.122 A 
ATOM     21  C   UNL     1      -3.563  -1.287  25.188  0.00  0.00    +0.023 A 
ATOM     22  C   UNL     1      -3.480  -2.102  25.095  0.00  0.00    +0.038 A 
ATOM     23  C   UNL     1      -3.791  -2.475  24.427  0.00  0.00    +0.139 A 
ATOM     26  C   UNL     1      -4.185  -2.031  23.853  0.00  0.00    +0.038 A 
ATOM     27  C   UNL     1      -4.267  -1.216  23.948  0.00  0.00    +0.023 A 
BRANCH  23  24
ATOM     24  O   UNL     1      -3.708  -3.290  24.333  0.00  0.00    -0.471 OA
ATOM     25  C   UNL     1      -2.959  -3.618  24.218  0.00  0.00    +0.252 C 
ENDBRANCH  23  24
ENDBRANCH  17  20
ENDBRANCH   5  17
BRANCH   3   2
ATOM      1  C   UNL     1      -6.341   1.874  25.254  0.00  0.00    +0.000 C 
ATOM      2  C   UNL     1      -5.624   2.231  25.455  0.00  0.00    +0.001 C 
ENDBRANCH   3   2
BRANCH   8   9
ATOM      9  C   UNL     1      -4.370   3.235  25.075  0.00  0.00    +0.087 C 
BRANCH   9  10
ATOM     10  C   UNL     1      -3.798   3.744  24.769  0.00  0.00    +0.241 C 
ATOM     11  O   UNL     1      -3.830   3.972  23.977  0.00  0.00    -0.273 OA
ATOM     12  N   UNL     1      -3.194   4.026  25.255  0.00  0.00    -0.204 NA
BRANCH  12  13
ATOM     13  C   UNL     1      -2.622   4.536  24.949  0.00  0.00    +0.127 C 
BRANCH  13  14
ATOM     14  C   UNL     1      -1.929   4.679  25.371  0.00  0.00    +0.081 C 
BRANCH  14  15
ATOM     15  S   UNL     1      -1.320   5.120  25.029  0.00  0.00    -0.137 S 
ATOM     16  C   UNL     1      -0.572   4.787  24.936  0.00  0.00    +0.069 C 
ENDBRANCH  14  15
ENDBRANCH  13  14
ENDBRANCH  12  13
ENDBRANCH   9  10
ENDBRANCH   8   9
TORSDOF 9
ENDMDL
MODEL 2
REMARK VINA RESULT:      -8.5      3.525      5.040
REMARK  Name = 
REMARK  9 active torsions:
REMARK  status: ('A' for Active; 'I' for Inactive)
REMARK    1  A    between atoms: C_2  and  C_3
REMARK    2  A    between atoms: N_5  and  S_17
REMARK    3  A    between atoms: C_8  and  C_9
REMARK    4  A    between atoms: C_9  and  C_10
REMARK    5  A    between atoms: N_12  and  C_13
REMARK    6  A    between atoms: C_13  and  C_14
REMARK    7  A    between atoms: C_14  and  S_15
REMARK    8  A    between atoms: S_17  and  C_20
REMARK    9  A    between atoms: C_23  and  O_24
REMARK                            x       y       z     vdW  Elec       q    Type
REMARK                         _______ _______ _______ _____ _____    ______ ____
ROOT
ATOM      3  C   UNL     1      -1.001  -0.416  24.422  0.00  0.00    +0.018 C 
ATOM      4  C   UNL     1      -1.715  -0.030  24.562  0.00  0.00    +0.096 C 
ATOM      5  N   UNL     1      -1.848   0.720  24.245  0.00  0.00    -0.156 NA
ATOM      6  C   UNL     1      -1.266   1.084  23.788  0.00  0.00    +0.096 C 
ATOM      7  C   UNL     1      -0.550   0.697  23.647  0.00  0.00    +0.020 C 
ATOM      8  C   UNL     1      -0.417  -0.053  23.965  0.00  0.00    +0.012 C 
ENDROOT
BRANCH   5  17
ATOM     17  S   UNL     1      -2.563   1.107  24.385  0.00  0.00    +0.063 S 
ATOM     18  O   UNL     1      -2.858   0.822  23.670  0.00  0.00    -0.153 OA
ATOM     19  O   UNL     1      -2.267   1.393  25.101  0.00  0.00    -0.153 OA
BRANCH  17  20
ATOM     20  C   UNL     1      -3.277   1.495  24.526  0.00  0.00    +0.122 A 
ATOM     21  C   UNL     1      -3.942   1.065  24.755  0.00  0.00    +0.023 A 
ATOM     22  C   UNL     1      -4.657   1.453  24.896  0.00  0.00    +0.038 A 
ATOM     23  C   UNL     1      -4.705   2.272  24.808  0.00  0.00    +0.139 A 
ATOM     26  C   UNL     1      -4.040   2.703  24.578  0.00  0.00    +0.038 A 
ATOM     27  C   UNL     1      -3.326   2.314  24.437  0.00  0.00    +0.023 A 
BRANCH  23  24
ATOM     24  O   UNL     1      -5.419   2.661  24.948  0.00  0.00    -0.471 OA
ATOM     25  C   UNL     1      -5.551   3.030  25.675  0.00  0.00    +0.252 C 
ENDBRANCH  23  24
ENDBRANCH  17  20
ENDBRANCH   5  17
BRANCH   3   2
ATOM      1  C   UNL     1      -1.508  -1.646  24.945  0.00  0.00    +0.000 C 
ATOM      2  C   UNL     1      -0.868  -1.167  24.739  0.00  0.00    +0.001 C 
ENDBRANCH   3   2
BRANCH   8   9
ATOM      9  C   UNL     1       0.298  -0.440  23.824  0.00  0.00    +0.087 C 
BRANCH   9  10
ATOM     10  C   UNL     1       0.783  -0.197  23.203  0.00  0.00    +0.241 C 
ATOM     11  O   UNL     1       0.478  -0.141  22.439  0.00  0.00    -0.273 OA
ATOM     12  N   UNL     1       1.573  -0.010  23.346  0.00  0.00    -0.204 NA
BRANCH  12  13
ATOM     13  C   UNL     1       2.060   0.233  22.725  0.00  0.00    +0.127 C 
BRANCH  13  14
ATOM     14  C   UNL     1       2.875   0.124  22.773  0.00  0.00    +0.081 C 
BRANCH  14  15
ATOM     15  S   UNL     1       3.384   0.766  22.675  0.00  0.00    -0.137 S 
ATOM     16  C   UNL     1       4.201   0.651  22.684  0.00  0.00    +0.069 C 
ENDBRANCH  14  15
ENDBRANCH  13  14
ENDBRANCH  12  13
ENDBRANCH   9  10
ENDBRANCH   8   9
TORSDOF 9
ENDMDL
MODEL 3
REMARK VINA RESULT:      -8.4      1.460      5.325
REMARK  Name = 
REMARK  9 active torsions:
REMARK  status: ('A' for Active; 'I' for Inactive)
REMARK    1  A    between atoms: C_2  and  C_3
REMARK    2  A    between atoms: N_5  and  S_17
REMARK    3  A    between atoms: C_8  and  C_9
REMARK    4  A    between atoms: C_9  and  C_10
REMARK    5  A    between atoms: N_12  and  C_13
REMARK    6  A    between atoms: C_13  and  C_14
REMARK    7  A    between atoms: C_14  and  S_15
REMARK    8  A    between atoms: S_17  and  C_20
REMARK    9  A    between atoms: C_23  and  O_24
REMARK                            x       y       z     vdW  Elec       q    Type
REMARK                         _______ _______ _______ _____ _____    ______ ____
ROOT
ATOM      3  C   UNL     1      -4.535   1.320  25.003  0.00  0.00    +0.018 C 
ATOM      4  C   UNL     1      -4.092   2.010  25.090  0.00  0.00    +0.096 C 
ATOM      5  N   UNL     1      -3.317   2.040  24.808  0.00  0.00    -0.156 NA
ATOM      6  C   UNL     1      -2.985   1.380  24.441  0.00  0.00    +0.096 C 
ATOM      7  C   UNL     1      -3.430   0.690  24.354  0.00  0.00    +0.020 C 
ATOM      8  C   UNL     1      -4.205   0.659  24.635  0.00  0.00    +0.012 C 
ENDROOT
BRANCH   5  17
ATOM     17  S   UNL     1      -2.873   2.729  24.895  0.00  0.00    +0.063 S 
ATOM     18  O   UNL     1      -2.602   2.464  25.627  0.00  0.00    -0.153 OA
ATOM     19  O   UNL     1      -3.145   2.995  24.162  0.00  0.00    -0.153 OA
BRANCH  17  20
ATOM     20  C   UNL     1      -2.429   3.420  24.980  0.00  0.00    +0.122 A 
ATOM     21  C   UNL     1      -2.802   4.128  25.177  0.00  0.00    +0.023 A 
ATOM     22  C   UNL     1      -2.358   4.819  25.263  0.00  0.00    +0.038 A 
ATOM     23  C   UNL     1      -1.541   4.800  25.150  0.00  0.00    +0.139 A 
ATOM     26  C   UNL     1      -1.168   4.090  24.952  0.00  0.00    +0.038 A 
ATOM     27  C   UNL     1      -1.612   3.401  24.867  0.00  0.00    +0.023 A 
BRANCH  23  24
ATOM     24  O   UNL     1      -1.096   5.489  25.235  0.00  0.00    -0.471 OA
ATOM     25  C   UNL     1      -0.571   5.717  24.639  0.00  0.00    +0.252 C 
ENDBRANCH  23  24
ENDBRANCH  17  20
ENDBRANCH   5  17
BRANCH   3   2
ATOM      1  C   UNL     1      -5.774   1.973  25.292  0.00  0.00    +0.000 C 
ATOM      2  C   UNL     1      -5.311   1.290  25.285  0.00  0.00    +0.001 C 
ENDBRANCH   3   2
BRANCH   8   9
ATOM      9  C   UNL     1      -4.648  -0.031  24.548  0.00  0.00    +0.087 C 
BRANCH   9  10
ATOM     10  C   UNL     1      -4.307  -0.701  24.210  0.00  0.00    +0.241 C 
ATOM     11  O   UNL     1      -4.189  -0.737  23.394  0.00  0.00    -0.273 OA
ATOM     12  N   UNL     1      -4.083  -1.335  24.687  0.00  0.00    -0.204 NA
BRANCH  12  13
ATOM     13  C   UNL     1      -3.741  -2.006  24.348  0.00  0.00    +0.127 C 
BRANCH  13  14
ATOM     14  C   UNL     1      -3.344  -2.551  24.823  0.00  0.00    +0.081 C 
BRANCH  14  15
ATOM     15  S   UNL     1      -2.797  -3.069  24.487  0.00  0.00    -0.137 S 
ATOM     16  C   UNL     1      -1.989  -2.947  24.600  0.00  0.00    +0.069 C 
ENDBRANCH  14  15
ENDBRANCH  13  14
ENDBRANCH  12  13
ENDBRANCH   9  10
ENDBRANCH   8   9
TORSDOF 9
ENDMDL
MODEL 4
REMARK VINA RESULT:      -8.2      2.567      4.757
REMARK  Name = 
REMARK  9 active torsions:
REMARK  status: ('A' for Active; 'I' for Inactive)
REMARK    1  A    between atoms: C_2  and  C_3
REMARK    2  A    between atoms: N_5  and  S_17
REMARK    3  A    between atoms: C_8  and  C_9
REMARK    4  A    between atoms: C_9  and  C_10
REMARK    5  A    between atoms: N_12  and  C_13
REMARK    6  A    between atoms: C_13  and  C_14
REMARK    7  A    between atoms: C_14  and  S_15
REMARK    8  A    between atoms: S_17  and  C_20
REMARK    9  A    between atoms: C_23  and  O_24
REMARK                            x       y       z     vdW  Elec       q    Type
REMARK                         _______ _______ _______ _____ _____    ______ ____
ROOT
ATOM      3  C   UNL     1      -3.083  -0.697  24.497  0.00  0.00    +0.018 C 
ATOM      4  C   UNL     1      -3.637  -0.104  24.642  0.00  0.00    +0.096 C 
ATOM      5  N   UNL     1      -3.386   0.646  24.878  0.00  0.00    -0.156 NA
ATOM      6  C   UNL     1      -2.581   0.803  24.968  0.00  0.00    +0.096 C 
ATOM      7  C   UNL     1      -2.027   0.209  24.822  0.00  0.00    +0.020 C 
ATOM      8  C   UNL     1      -2.277  -0.541  24.586  0.00  0.00    +0.012 C 
ENDROOT
BRANCH   5  17
ATOM     17  S   UNL     1      -3.940   1.240  25.024  0.00  0.00    +0.063 S 
ATOM     18  O   UNL     1      -3.725   1.614  24.322  0.00  0.00    -0.153 OA
ATOM     19  O   UNL     1      -4.155   0.865  25.728  0.00  0.00    -0.153 OA
BRANCH  17  20
ATOM     20  C   UNL     1      -4.494   1.833  25.172  0.00  0.00    +0.122 A 
ATOM     21  C   UNL     1      -5.278   1.635  25.332  0.00  0.00    +0.023 A 
ATOM     22  C   UNL     1      -5.832   2.228  25.479  0.00  0.00    +0.038 A 
ATOM     23  C   UNL     1      -5.601   3.020  25.466  0.00  0.00    +0.139 A 
ATOM     26  C   UNL     1      -4.816   3.219  25.306  0.00  0.00    +0.038 A 
ATOM     27  C   UNL     1      -4.263   2.625  25.159  0.00  0.00    +0.023 A 
BRANCH  23  24
ATOM     24  O   UNL     1      -6.154   3.614  25.613  0.00  0.00    -0.471 OA
ATOM     25  C   UNL     1      -5.929   4.407  25.568  0.00  0.00    +0.252 C 
ENDBRANCH  23  24
ENDBRANCH  17  20
ENDBRANCH   5  17
BRANCH   3   2
ATOM      1  C   UNL     1      -4.095  -1.551  23.960  0.00  0.00    +0.000 C 
ATOM      2  C   UNL     1      -3.334  -1.447  24.261  0.00  0.00    +0.001 C 
ENDBRANCH   3   2
BRANCH   8   9
ATOM      9  C   UNL     1      -1.722  -1.134  24.440  0.00  0.00    +0.087 C 
BRANCH   9  10
ATOM     10  C   UNL     1      -0.917  -0.962  24.468  0.00  0.00    +0.241 C 
ATOM     11  O   UNL     1      -0.515  -0.981  25.188  0.00  0.00    -0.273 OA
ATOM     12  N   UNL     1      -0.512  -0.770  23.776  0.00  0.00    -0.204 NA
BRANCH  12  13
ATOM     13  C   UNL     1       0.294  -0.597  23.803  0.00  0.00    +0.127 C 
BRANCH  13  14
ATOM     14  C   UNL     1       0.712  -0.467  23.104  0.00  0.00    +0.081 C 
BRANCH  14  15
ATOM     15  S   UNL     1       1.335   0.074  23.090  0.00  0.00    -0.137 S 
ATOM     16  C   UNL     1       1.953  -0.021  22.552  0.00  0.00    +0.069 C 
ENDBRANCH  14  15
ENDBRANCH  13  14
ENDBRANCH  12  13
ENDBRANCH   9  10
ENDBRANCH   8   9
TORSDOF 9
ENDMDL
MODEL 5
REMARK VINA RESULT:      -8.2      2.747      6.244
REMARK  Name = 
REMARK  9 active torsions:
REMARK  status: ('A' for Active; 'I' for Inactive)
REMARK    1  A    between atoms: C_2  and  C_3
REMARK    2  A    between atoms: N_5  and  S_17
REMARK    3  A    between atoms: C_8  and  C_9
REMARK    4  A    between atoms: C_9  and  C_10
REMARK    5  A    between atoms: N_12  and  C_13
REMARK    6  A    between atoms: C_13  and  C_14
REMARK    7  A    between atoms: C_14  and  S_15
REMARK    8  A    between atoms: S_17  and  C_20
REMARK    9  A    between atoms: C_23  and  O_24
REMARK                            x       y       z     vdW  Elec       q    Type
REMARK                         _______ _______ _______ _____ _____    ______ ____
ROOT
ATOM      3  C   UNL     1      -0.228   0.299  24.069  0.00  0.00    +0.018 C 
ATOM      4  C   UNL     1      -0.327   1.114  24.151  0.00  0.00    +0.096 C 
ATOM      5  N   UNL     1      -0.763   1.415  24.783  0.00  0.00    -0.156 NA
ATOM      6  C   UNL     1      -1.101   0.902  25.333  0.00  0.00    +0.096 C 
ATOM      7  C   UNL     1      -1.003   0.086  25.251  0.00  0.00    +0.020 C 
ATOM      8  C   UNL     1      -0.566  -0.215  24.619  0.00  0.00    +0.012 C 
ENDROOT
BRANCH   5  17
ATOM     17  S   UNL     1      -0.862   2.230  24.865  0.00  0.00    +0.063 S 
ATOM     18  O   UNL     1      -0.270   2.245  25.438  0.00  0.00    -0.153 OA
ATOM     19  O   UNL     1      -1.456   2.215  24.291  0.00  0.00    -0.153 OA
BRANCH  17  20
ATOM     20  C   UNL     1      -0.962   3.045  24.947  0.00  0.00    +0.122 A 
ATOM     21  C   UNL     1      -1.600   3.342  25.376  0.00  0.00    +0.023 A 
ATOM     22  C   UNL     1      -1.700   4.157  25.458  0.00  0.00    +0.038 A 
ATOM     23  C   UNL     1      -1.161   4.675  25.109  0.00  0.00    +0.139 A 
ATOM     26  C   UNL     1      -0.522   4.378  24.678  0.00  0.00    +0.038 A 
ATOM     27  C   UNL     1      -0.423   3.563  24.598  0.00  0.00    +0.023 A 
BRANCH  23  24
ATOM     24  O   UNL     1      -1.260   5.490  25.189  0.00  0.00    -0.471 OA
ATOM     25  C   UNL     1      -2.014   5.821  25.132  0.00  0.00    +0.252 C 
ENDBRANCH  23  24
ENDBRANCH  17  20
ENDBRANCH   5  17
BRANCH   3   2
ATOM      1  C   UNL     1       0.873   0.404  23.164  0.00  0.00    +0.000 C 
ATOM      2  C   UNL     1       0.209  -0.002  23.437  0.00  0.00    +0.001 C 
ENDBRANCH   3   2
BRANCH   8   9
ATOM      9  C   UNL     1      -0.468  -1.030  24.538  0.00  0.00    +0.087 C 
BRANCH   9  10
ATOM     10  C   UNL     1      -1.020  -1.548  24.865  0.00  0.00    +0.241 C 
ATOM     11  O   UNL     1      -0.947  -1.786  25.651  0.00  0.00    -0.273 OA
ATOM     12  N   UNL     1      -1.646  -1.827  24.407  0.00  0.00    -0.204 NA
BRANCH  12  13
ATOM     13  C   UNL     1      -2.199  -2.344  24.734  0.00  0.00    +0.127 C 
BRANCH  13  14
ATOM     14  C   UNL     1      -2.801  -2.656  24.265  0.00  0.00    +0.081 C 
BRANCH  14  15
ATOM     15  S   UNL     1      -3.581  -2.651  24.536  0.00  0.00    -0.137 S 
ATOM     16  C   UNL     1      -4.205  -2.628  23.998  0.00  0.00    +0.069 C 
ENDBRANCH  14  15
ENDBRANCH  13  14
ENDBRANCH  12  13
ENDBRANCH   9  10
ENDBRANCH   8   9
TORSDOF 9
ENDMDL
MODEL 6
REMARK VINA RESULT:      -8.0      2.461      3.224
REMARK  Name = 
REMARK  9 active torsions:
REMARK  status: ('A' for Active; 'I' for Inactive)
REMARK    1  A    between atoms: C_2  and  C_3
REMARK    2  A    between atoms: N_5  and  S_17
REMARK    3  A    between atoms: C_8  and  C_9
REMARK    4  A    between atoms: C_9  and  C_10
REMARK    5  A    between atoms: N_12  and  C_13
REMARK    6  A    between atoms: C_13  and  C_14
REMARK    7  A    between atoms: C_14  and  S_15
REMARK    8  A    between atoms: S_17  and  C_20
REMARK    9  A    between atoms: C_23  and  O_24
REMARK                            x       y       z     vdW  Elec       q    Type
REMARK                         _______ _______ _______ _____ _____    ______ ____
ROOT
ATOM      3  C   UNL     1      -0.263   0.733  24.351  0.00  0.00    +0.018 C 
ATOM      4  C   UNL     1      -0.773   0.089  24.276  0.00  0.00    +0.096 C 
ATOM      5  N   UNL     1      -1.367  -0.034  24.834  0.00  0.00    -0.156 NA
ATOM      6  C   UNL     1      -1.452   0.487  25.468  0.00  0.00    +0.096 C 
ATOM      7  C   UNL     1      -0.942   1.132  25.543  0.00  0.00    +0.020 C 
ATOM      8  C   UNL     1      -0.347   1.255  24.984  0.00  0.00    +0.012 C 
ENDROOT
BRANCH   5  17
ATOM     17  S   UNL     1      -1.877  -0.678  24.760  0.00  0.00    +0.063 S 
ATOM     18  O   UNL     1      -1.421  -1.102  25.300  0.00  0.00    -0.153 OA
ATOM     19  O   UNL     1      -2.333  -0.253  24.219  0.00  0.00    -0.153 OA
BRANCH  17  20
ATOM     20  C   UNL     1      -2.388  -1.321  24.685  0.00  0.00    +0.122 A 
ATOM     21  C   UNL     1      -2.083  -2.081  24.588  0.00  0.00    +0.023 A 
ATOM     22  C   UNL     1      -2.594  -2.725  24.513  0.00  0.00    +0.038 A 
ATOM     23  C   UNL     1      -3.411  -2.607  24.534  0.00  0.00    +0.139 A 
ATOM     26  C   UNL     1      -3.716  -1.846  24.632  0.00  0.00    +0.038 A 
ATOM     27  C   UNL     1      -3.204  -1.204  24.707  0.00  0.00    +0.023 A 
BRANCH  23  24
ATOM     24  O   UNL     1      -3.923  -3.250  24.459  0.00  0.00    -0.471 OA
ATOM     25  C   UNL     1      -4.398  -3.322  23.788  0.00  0.00    +0.252 C 
ENDBRANCH  23  24
ENDBRANCH  17  20
ENDBRANCH   5  17
BRANCH   3   2
ATOM      1  C   UNL     1       0.586   0.231  23.316  0.00  0.00    +0.000 C 
ATOM      2  C   UNL     1       0.332   0.856  23.791  0.00  0.00    +0.001 C 
ENDBRANCH   3   2
BRANCH   8   9
ATOM      9  C   UNL     1       0.162   1.900  25.060  0.00  0.00    +0.087 C 
BRANCH   9  10
ATOM     10  C   UNL     1      -0.086   2.578  25.456  0.00  0.00    +0.241 C 
ATOM     11  O   UNL     1      -0.010   2.628  26.276  0.00  0.00    -0.273 OA
ATOM     12  N   UNL     1      -0.411   3.207  25.033  0.00  0.00    -0.204 NA
BRANCH  12  13
ATOM     13  C   UNL     1      -0.660   3.887  25.430  0.00  0.00    +0.127 C 
BRANCH  13  14
ATOM     14  C   UNL     1      -0.900   4.549  25.002  0.00  0.00    +0.081 C 
BRANCH  14  15
ATOM     15  S   UNL     1      -1.636   4.892  25.149  0.00  0.00    -0.137 S 
ATOM     16  C   UNL     1      -1.732   5.708  25.088  0.00  0.00    +0.069 C 
ENDBRANCH  14  15
ENDBRANCH  13  14
ENDBRANCH  12  13
ENDBRANCH   9  10
ENDBRANCH   8   9
TORSDOF 9
ENDMDL
MODEL 7
REMARK VINA RESULT:      -7.3      3.017      4.336
REMARK  Name = 
REMARK  9 active torsions:
REMARK  status: ('A' for Active; 'I' for Inactive)
REMARK    1  A    between atoms: C_2  and  C_3
REMARK    2  A    between atoms: N_5  and  S_17
REMARK    3  A    between atoms: C_8  and  C_9
REMARK    4  A    between atoms: C_9  and  C_10
REMARK    5  A    between atoms: N_12  and  C_13
REMARK    6  A    between atoms: C_13  and  C_14
REMARK    7  A    between atoms: C_14  and  S_15
REMARK    8  A    between atoms: S_17  and  C_20
REMARK    9  A    between atoms: C_23  and  O_24
REMARK                            x       y       z     vdW  Elec       q    Type
REMARK                         _______ _______ _______ _____ _____    ______ ____
ROOT
ATOM      3  C   UNL     1      -1.563   3.545  25.073  0.00  0.00    +0.018 C 
ATOM      4  C   UNL     1      -0.985   3.035  24.781  0.00  0.00    +0.096 C 
ATOM      5  N   UNL     1      -1.197   2.285  24.510  0.00  0.00    -0.156 NA
ATOM      6  C   UNL     1      -1.985   2.045  24.532  0.00  0.00    +0.096 C 
ATOM      7  C   UNL     1      -2.564   2.556  24.825  0.00  0.00    +0.020 C 
ATOM      8  C   UNL     1      -2.353   3.306  25.096  0.00  0.00    +0.012 C 
ENDROOT
BRANCH   5  17
ATOM     17  S   UNL     1      -0.619   1.774  24.217  0.00  0.00    +0.063 S 
ATOM     18  O   UNL     1      -0.373   1.609  24.986  0.00  0.00    -0.153 OA
ATOM     19  O   UNL     1      -0.865   1.939  23.446  0.00  0.00    -0.153 OA
BRANCH  17  20
ATOM     20  C   UNL     1      -0.042   1.263  23.922  0.00  0.00    +0.122 A 
ATOM     21  C   UNL     1       0.733   1.527  23.825  0.00  0.00    +0.023 A 
ATOM     22  C   UNL     1       1.310   1.016  23.531  0.00  0.00    +0.038 A 
ATOM     23  C   UNL     1       1.111   0.240  23.334  0.00  0.00    +0.139 A 
ATOM     26  C   UNL     1       0.336  -0.025  23.431  0.00  0.00    +0.038 A 
ATOM     27  C   UNL     1      -0.241   0.487  23.725  0.00  0.00    +0.023 A 
BRANCH  23  24
ATOM     24  O   UNL     1       1.687  -0.272  23.039  0.00  0.00    -0.471 OA
ATOM     25  C   UNL     1       2.318   0.028  22.598  0.00  0.00    +0.252 C 
ENDBRANCH  23  24
ENDBRANCH  17  20
ENDBRANCH   5  17
BRANCH   3   2
ATOM      1  C   UNL     1      -0.765   4.725  24.953  0.00  0.00    +0.000 C 
ATOM      2  C   UNL     1      -1.351   4.296  25.344  0.00  0.00    +0.001 C 
ENDBRANCH   3   2
BRANCH   8   9
ATOM      9  C   UNL     1      -2.931   3.816  25.388  0.00  0.00    +0.087 C 
BRANCH   9  10
ATOM     10  C   UNL     1      -3.722   3.704  25.185  0.00  0.00    +0.241 C 
ATOM     11  O   UNL     1      -3.987   3.906  24.431  0.00  0.00    -0.273 OA
ATOM     12  N   UNL     1      -4.249   3.389  25.736  0.00  0.00    -0.204 NA
BRANCH  12  13
ATOM     13  C   UNL     1      -5.040   3.276  25.533  0.00  0.00    +0.127 C 
BRANCH  13  14
ATOM     14  C   UNL     1      -5.533   2.831  26.022  0.00  0.00    +0.081 C 
BRANCH  14  15
ATOM     15  S   UNL     1      -6.157   2.399  25.698  0.00  0.00    -0.137 S 
ATOM     16  C   UNL     1      -6.293   1.623  25.942  0.00  0.00    +0.069 C 
ENDBRANCH  14  15
ENDBRANCH  13  14
ENDBRANCH  12  13
ENDBRANCH   9  10
ENDBRANCH   8   9
TORSDOF 9
ENDMDL
MODEL 8
REMARK VINA RESULT:      -7.2      3.841      5.030
REMARK  Name = 
REMARK  9 active torsions:
REMARK  status: ('A' for Active; 'I' for Inactive)
REMARK    1  A    between atoms: C_2  and  C_3
REMARK    2  A    between atoms: N_5  and  S_17
REMARK    3  A    between atoms: C_8  and  C_9
REMARK    4  A    between atoms: C_9  and  C_10
REMARK    5  A    between atoms: N_12  and  C_13
REMARK    6  A    between atoms: C_13  and  C_14
REMARK    7  A    between atoms: C_14  and  S_15
REMARK    8  A    between atoms: S_17  and  C_20
REMARK    9  A    between atoms: C_23  and  O_24
REMARK                            x       y       z     vdW  Elec       q    Type
REMARK                         _______ _______ _______ _____ _____    ______ ____
ROOT
ATOM      3  C   UNL     1      -1.390  -0.162  24.886  0.00  0.00    +0.018 C 
ATOM      4  C   UNL     1      -0.630  -0.137  24.566  0.00  0.00    +0.096 C 
ATOM      5  N   UNL     1      -0.465   0.366  23.933  0.00  0.00    -0.156 NA
ATOM      6  C   UNL     1      -1.060   0.844  23.620  0.00  0.00    +0.096 C 
ATOM      7  C   UNL     1      -1.820   0.820  23.941  0.00  0.00    +0.020 C 
ATOM      8  C   UNL     1      -1.985   0.317  24.573  0.00  0.00    +0.012 C 
ENDROOT
BRANCH   5  17
ATOM     17  S   UNL     1       0.294   0.391  23.612  0.00  0.00    +0.063 S 
ATOM     18  O   UNL     1       0.153  -0.321  23.221  0.00  0.00    -0.153 OA
ATOM     19  O   UNL     1       0.436   1.103  24.004  0.00  0.00    -0.153 OA
BRANCH  17  20
ATOM     20  C   UNL     1       1.054   0.417  23.292  0.00  0.00    +0.122 A 
ATOM     21  C   UNL     1       1.576   1.014  23.516  0.00  0.00    +0.023 A 
ATOM     22  C   UNL     1       2.336   1.040  23.196  0.00  0.00    +0.038 A 
ATOM     23  C   UNL     1       2.574   0.468  22.651  0.00  0.00    +0.139 A 
ATOM     26  C   UNL     1       2.052  -0.131  22.427  0.00  0.00    +0.038 A 
ATOM     27  C   UNL     1       1.292  -0.156  22.748  0.00  0.00    +0.023 A 
BRANCH  23  24
ATOM     24  O   UNL     1       3.334   0.493  22.331  0.00  0.00    -0.471 OA
ATOM     25  C   UNL     1       3.989   0.566  22.828  0.00  0.00    +0.252 C 
ENDBRANCH  23  24
ENDBRANCH  17  20
ENDBRANCH   5  17
BRANCH   3   2
ATOM      1  C   UNL     1      -1.033  -1.276  25.707  0.00  0.00    +0.000 C 
ATOM      2  C   UNL     1      -1.555  -0.665  25.519  0.00  0.00    +0.001 C 
ENDBRANCH   3   2
BRANCH   8   9
ATOM      9  C   UNL     1      -2.745   0.293  24.893  0.00  0.00    +0.087 C 
BRANCH   9  10
ATOM     10  C   UNL     1      -3.336   0.781  24.591  0.00  0.00    +0.241 C 
ATOM     11  O   UNL     1      -3.584   0.694  23.809  0.00  0.00    -0.273 OA
ATOM     12  N   UNL     1      -3.680   1.358  25.070  0.00  0.00    -0.204 NA
BRANCH  12  13
ATOM     13  C   UNL     1      -4.272   1.847  24.767  0.00  0.00    +0.127 C 
BRANCH  13  14
ATOM     14  C   UNL     1      -4.784   2.241  25.279  0.00  0.00    +0.081 C 
BRANCH  14  15
ATOM     15  S   UNL     1      -4.888   3.057  25.213  0.00  0.00    -0.137 S 
ATOM     16  C   UNL     1      -5.530   3.422  25.580  0.00  0.00    +0.069 C 
ENDBRANCH  14  15
ENDBRANCH  13  14
ENDBRANCH  12  13
ENDBRANCH   9  10
ENDBRANCH   8   9
TORSDOF 9
ENDMDL
