MODEL 1
REMARK VINA RESULT:     -12.5      0.000      0.000
REMARK  Name = 
REMARK  7 active torsions:
REMARK  status: ('A' for Active; 'I' for Inactive)
REMARK    1  A    between atoms: C_2  and  C_4
REMARK    2  A    between atoms: C_4  and  C_5
REMARK    3  A    between atoms: C_5  and  C_6
REMARK    4  A    between atoms: C_6  and  C_7
REMARK    5  A    between atoms: N_16  and  C_20
REMARK    6  A    between atoms: C_23  and  O_24
REMARK    7  A    between atoms: O_24  and  C_25
REMARK                            x       y       z     vdW  Elec       q    Type
REMARK                         _______ _______ _______ _____ _____    ______ ____
ROOT
ATOM      7  C   UNL     1      -2.493   3.158  25.362  0.00  0.00    +0.226 C 
ATOM      8  O   UNL     1      -2.167   2.421  25.184  0.00  0.00    -0.275 OA
ATOM      9  N   UNL     1      -3.312   3.256  25.369  0.00  0.00    -0.272 N 
ATOM     10  C   UNL     1      -3.715   3.956  25.536  0.00  0.00    +0.096 C 
ATOM     11  C   UNL     1      -4.524   3.805  25.481  0.00  0.00    +0.045 C 
ATOM     12  C   UNL     1      -4.621   3.011  25.279  0.00  0.00    +0.126 C 
ATOM     13  N   UNL     1      -5.294   2.552  25.150  0.00  0.00    -0.187 NA
ATOM     14  C   UNL     1      -5.219   1.755  24.951  0.00  0.00    +0.333 C 
ATOM     15  O   UNL     1      -5.893   1.296  24.822  0.00  0.00    -0.250 OA
ATOM     16  N   UNL     1      -4.470   1.416  24.882  0.00  0.00    -0.190 N 
ATOM     17  C   UNL     1      -3.796   1.874  25.012  0.00  0.00    +0.256 C 
ATOM     18  O   UNL     1      -3.047   1.535  24.943  0.00  0.00    -0.272 OA
ATOM     19  C   UNL     1      -3.872   2.672  25.210  0.00  0.00    +0.173 C 
ENDROOT
BRANCH  16  20
ATOM     20  C   UNL     1      -4.395   0.619  24.684  0.00  0.00    +0.062 A 
ATOM     21  C   UNL     1      -4.470   0.040  25.267  0.00  0.00    +0.018 A 
ATOM     22  C   UNL     1      -4.395  -0.758  25.068  0.00  0.00    +0.039 A 
ATOM     23  C   UNL     1      -4.244  -0.976  24.287  0.00  0.00    +0.145 A 
ATOM     31  C   UNL     1      -4.168  -0.396  23.705  0.00  0.00    +0.039 A 
ATOM     32  C   UNL     1      -4.244   0.400  23.903  0.00  0.00    +0.018 A 
BRANCH  23  24
ATOM     24  O   UNL     1      -4.168  -1.773  24.089  0.00  0.00    -0.453 OA
BRANCH  24  25
ATOM     25  C   UNL     1      -3.496  -2.194  24.318  0.00  0.00    +0.145 A 
ATOM     26  C   UNL     1      -3.555  -2.783  24.892  0.00  0.00    +0.037 A 
ATOM     27  C   UNL     1      -2.884  -3.205  25.121  0.00  0.00    +0.003 A 
ATOM     28  C   UNL     1      -2.154  -3.036  24.776  0.00  0.00    +0.000 A 
ATOM     29  C   UNL     1      -2.095  -2.446  24.202  0.00  0.00    +0.003 A 
ATOM     30  C   UNL     1      -2.767  -2.025  23.973  0.00  0.00    +0.037 A 
ENDBRANCH  24  25
ENDBRANCH  23  24
ENDBRANCH  16  20
BRANCH   7   6
ATOM      6  C   UNL     1      -2.000   3.797  25.533  0.00  0.00    +0.086 C 
BRANCH   6   5
ATOM      5  C   UNL     1      -1.182   3.718  25.456  0.00  0.00    +0.019 C 
ATOM     33  C   UNL     1      -0.386   3.738  25.238  0.00  0.00    +0.001 C 
ATOM     34  C   UNL     1       0.040   3.297  25.791  0.00  0.00    +0.000 C 
ATOM     35  C   UNL     1      -0.492   3.006  26.350  0.00  0.00    +0.000 C 
ATOM     36  C   UNL     1      -1.247   3.266  26.143  0.00  0.00    +0.001 C 
BRANCH   5   4
ATOM      4  C   UNL     1      -1.286   4.187  24.785  0.00  0.00    +0.115 C 
BRANCH   4   2
ATOM      1  O   UNL     1      -1.243   5.547  25.221  0.00  0.00    -0.246 OA
ATOM      2  C   UNL     1      -0.948   4.938  24.749  0.00  0.00    +0.365 C 
ATOM      3  O   UNL     1      -0.314   5.081  24.241  0.00  0.00    -0.246 OA
ENDBRANCH   4   2
ENDBRANCH   5   4
ENDBRANCH   6   5
ENDBRANCH   7   6
TORSDOF 7
ENDMDL
MODEL 2
REMARK VINA RESULT:     -11.1      1.083      5.326
REMARK  Name = 
REMARK  7 active torsions:
REMARK  status: ('A' for Active; 'I' for Inactive)
REMARK    1  A    between atoms: C_2  and  C_4
REMARK    2  A    between atoms: C_4  and  C_5
REMARK    3  A    between atoms: C_5  and  C_6
REMARK    4  A    between atoms: C_6  and  C_7
REMARK    5  A    between atoms: N_16  and  C_20
REMARK    6  A    between atoms: C_23  and  O_24
REMARK    7  A    between atoms: O_24  and  C_25
REMARK                            x       y       z     vdW  Elec       q    Type
REMARK                         _______ _______ _______ _____ _____    ______ ____
ROOT
ATOM      7  C   UNL     1      -4.400   0.319  25.038  0.00  0.00    +0.226 C 
ATOM      8  O   UNL     1      -3.635   0.626  25.045  0.00  0.00    -0.275 OA
ATOM      9  N   UNL     1      -5.048   0.824  25.121  0.00  0.00    -0.272 N 
ATOM     10  C   UNL     1      -5.841   0.598  25.124  0.00  0.00    +0.096 C 
ATOM     11  C   UNL     1      -6.300   1.278  25.220  0.00  0.00    +0.045 C 
ATOM     12  C   UNL     1      -5.789   1.923  25.276  0.00  0.00    +0.126 C 
ATOM     13  N   UNL     1      -5.928   2.730  25.375  0.00  0.00    -0.187 NA
ATOM     14  C   UNL     1      -5.294   3.257  25.413  0.00  0.00    +0.333 C 
ATOM     15  O   UNL     1      -5.433   4.064  25.513  0.00  0.00    -0.250 OA
ATOM     16  N   UNL     1      -4.521   2.976  25.352  0.00  0.00    -0.190 N 
ATOM     17  C   UNL     1      -4.381   2.169  25.253  0.00  0.00    +0.256 C 
ATOM     18  O   UNL     1      -3.608   1.889  25.191  0.00  0.00    -0.272 OA
ATOM     19  C   UNL     1      -5.016   1.642  25.215  0.00  0.00    +0.173 C 
ENDROOT
BRANCH  16  20
ATOM     20  C   UNL     1      -3.886   3.503  25.390  0.00  0.00    +0.062 A 
ATOM     21  C   UNL     1      -3.621   3.878  24.705  0.00  0.00    +0.018 A 
ATOM     22  C   UNL     1      -2.986   4.404  24.743  0.00  0.00    +0.039 A 
ATOM     23  C   UNL     1      -2.618   4.556  25.465  0.00  0.00    +0.145 A 
ATOM     31  C   UNL     1      -2.884   4.180  26.150  0.00  0.00    +0.039 A 
ATOM     32  C   UNL     1      -3.518   3.654  26.112  0.00  0.00    +0.018 A 
BRANCH  23  24
ATOM     24  O   UNL     1      -1.984   5.082  25.503  0.00  0.00    -0.453 OA
BRANCH  24  25
ATOM     25  C   UNL     1      -1.267   4.890  25.143  0.00  0.00    +0.145 A 
ATOM     26  C   UNL     1      -0.935   5.403  24.588  0.00  0.00    +0.037 A 
ATOM     27  C   UNL     1      -0.217   5.213  24.228  0.00  0.00    +0.003 A 
ATOM     28  C   UNL     1       0.169   4.509  24.423  0.00  0.00    +0.000 A 
ATOM     29  C   UNL     1      -0.163   3.997  24.978  0.00  0.00    +0.003 A 
ATOM     30  C   UNL     1      -0.881   4.188  25.338  0.00  0.00    +0.037 A 
ENDBRANCH  24  25
ENDBRANCH  23  24
ENDBRANCH  16  20
BRANCH   7   6
ATOM      6  C   UNL     1      -4.520  -0.492  24.948  0.00  0.00    +0.086 C 
BRANCH   6   5
ATOM      5  C   UNL     1      -3.872  -1.004  24.925  0.00  0.00    +0.019 C 
ATOM     33  C   UNL     1      -3.253  -1.514  24.731  0.00  0.00    +0.001 C 
ATOM     34  C   UNL     1      -2.872  -1.728  25.431  0.00  0.00    +0.000 C 
ATOM     35  C   UNL     1      -3.255  -1.351  26.057  0.00  0.00    +0.000 C 
ATOM     36  C   UNL     1      -3.873  -0.904  25.744  0.00  0.00    +0.001 C 
BRANCH   5   4
ATOM      4  C   UNL     1      -4.006  -0.998  24.110  0.00  0.00    +0.115 C 
BRANCH   4   2
ATOM      1  O   UNL     1      -4.844  -2.136  23.904  0.00  0.00    -0.246 OA
ATOM      2  C   UNL     1      -4.169  -1.702  23.714  0.00  0.00    +0.365 C 
ATOM      3  O   UNL     1      -3.657  -1.972  23.126  0.00  0.00    -0.246 OA
ENDBRANCH   4   2
ENDBRANCH   5   4
ENDBRANCH   6   5
ENDBRANCH   7   6
TORSDOF 7
ENDMDL
MODEL 3
REMARK VINA RESULT:     -11.0      1.992      3.319
REMARK  Name = 
REMARK  7 active torsions:
REMARK  status: ('A' for Active; 'I' for Inactive)
REMARK    1  A    between atoms: C_2  and  C_4
REMARK    2  A    between atoms: C_4  and  C_5
REMARK    3  A    between atoms: C_5  and  C_6
REMARK    4  A    between atoms: C_6  and  C_7
REMARK    5  A    between atoms: N_16  and  C_20
REMARK    6  A    between atoms: C_23  and  O_24
REMARK    7  A    between atoms: O_24  and  C_25
REMARK                            x       y       z     vdW  Elec       q    Type
REMARK                         _______ _______ _______ _____ _____    ______ ____
ROOT
ATOM      7  C   UNL     1      -2.130   2.985  24.873  0.00  0.00    +0.226 C 
ATOM      8  O   UNL     1      -2.569   2.298  25.001  0.00  0.00    -0.275 OA
ATOM      9  N   UNL     1      -1.335   2.933  24.659  0.00  0.00    -0.272 N 
ATOM     10  C   UNL     1      -0.829   3.568  24.515  0.00  0.00    +0.096 C 
ATOM     11  C   UNL     1      -0.087   3.264  24.318  0.00  0.00    +0.045 C 
ATOM     12  C   UNL     1      -0.135   2.441  24.342  0.00  0.00    +0.126 C 
ATOM     13  N   UNL     1       0.423   1.850  24.199  0.00  0.00    -0.187 NA
ATOM     14  C   UNL     1       0.211   1.057  24.267  0.00  0.00    +0.333 C 
ATOM     15  O   UNL     1       0.770   0.466  24.124  0.00  0.00    -0.250 OA
ATOM     16  N   UNL     1      -0.559   0.852  24.477  0.00  0.00    -0.190 N 
ATOM     17  C   UNL     1      -1.119   1.441  24.620  0.00  0.00    +0.256 C 
ATOM     18  O   UNL     1      -1.890   1.237  24.831  0.00  0.00    -0.272 OA
ATOM     19  C   UNL     1      -0.906   2.236  24.553  0.00  0.00    +0.173 C 
ENDROOT
BRANCH  16  20
ATOM     20  C   UNL     1      -0.772   0.057  24.545  0.00  0.00    +0.062 A 
ATOM     21  C   UNL     1      -0.802  -0.299  25.288  0.00  0.00    +0.018 A 
ATOM     22  C   UNL     1      -1.015  -1.094  25.356  0.00  0.00    +0.039 A 
ATOM     23  C   UNL     1      -1.197  -1.532  24.681  0.00  0.00    +0.145 A 
ATOM     31  C   UNL     1      -1.166  -1.174  23.938  0.00  0.00    +0.039 A 
ATOM     32  C   UNL     1      -0.954  -0.380  23.870  0.00  0.00    +0.018 A 
BRANCH  23  24
ATOM     24  O   UNL     1      -1.409  -2.325  24.749  0.00  0.00    -0.453 OA
BRANCH  24  25
ATOM     25  C   UNL     1      -2.202  -2.547  24.694  0.00  0.00    +0.145 A 
ATOM     26  C   UNL     1      -2.484  -2.898  24.002  0.00  0.00    +0.037 A 
ATOM     27  C   UNL     1      -3.276  -3.120  23.946  0.00  0.00    +0.003 A 
ATOM     28  C   UNL     1      -3.787  -2.992  24.583  0.00  0.00    +0.000 A 
ATOM     29  C   UNL     1      -3.504  -2.642  25.274  0.00  0.00    +0.003 A 
ATOM     30  C   UNL     1      -2.711  -2.420  25.329  0.00  0.00    +0.037 A 
ENDBRANCH  24  25
ENDBRANCH  23  24
ENDBRANCH  16  20
BRANCH   7   6
ATOM      6  C   UNL     1      -2.486   3.724  24.959  0.00  0.00    +0.086 C 
BRANCH   6   5
ATOM      5  C   UNL     1      -3.287   3.777  25.151  0.00  0.00    +0.019 C 
ATOM     33  C   UNL     1      -4.030   3.830  25.506  0.00  0.00    +0.001 C 
ATOM     34  C   UNL     1      -4.597   3.846  24.907  0.00  0.00    +0.000 C 
ATOM     35  C   UNL     1      -4.205   3.802  24.183  0.00  0.00    +0.000 C 
ATOM     36  C   UNL     1      -3.396   3.759  24.334  0.00  0.00    +0.001 C 
BRANCH   5   4
ATOM      4  C   UNL     1      -3.012   3.783  25.929  0.00  0.00    +0.115 C 
BRANCH   4   2
ATOM      1  O   UNL     1      -2.889   5.184  26.181  0.00  0.00    -0.246 OA
ATOM      2  C   UNL     1      -3.152   4.437  26.411  0.00  0.00    +0.365 C 
ATOM      3  O   UNL     1      -3.556   4.344  27.125  0.00  0.00    -0.246 OA
ENDBRANCH   4   2
ENDBRANCH   5   4
ENDBRANCH   6   5
ENDBRANCH   7   6
TORSDOF 7
ENDMDL
MODEL 4
REMARK VINA RESULT:     -10.9      2.116      6.164
REMARK  Name = 
REMARK  7 active torsions:
REMARK  status: ('A' for Active; 'I' for Inactive)
REMARK    1  A    between atoms: C_2  and  C_4
REMARK    2  A    between atoms: C_4  and  C_5
REMARK    3  A    between atoms: C_5  and  C_6
REMARK    4  A    between atoms: C_6  and  C_7
REMARK    5  A    between atoms: N_16  and  C_20
REMARK    6  A    between atoms: C_23  and  O_24
REMARK    7  A    between atoms: O_24  and  C_25
REMARK                            x       y       z     vdW  Elec       q    Type
REMARK                         _______ _______ _______ _____ _____    ______ ____
ROOT
ATOM      7  C   UNL     1      -1.863  -0.823  24.695  0.00  0.00    +0.226 C 
ATOM      8  O   UNL     1      -2.178  -0.120  24.990  0.00  0.00    -0.275 OA
ATOM      9  N   UNL     1      -1.110  -0.828  24.356  0.00  0.00    -0.272 N 
ATOM     10  C   UNL     1      -0.726  -1.485  24.039  0.00  0.00    +0.096 C 
ATOM     11  C   UNL     1       0.012  -1.240  23.762  0.00  0.00    +0.045 C 
ATOM     12  C   UNL     1       0.082  -0.431  23.907  0.00  0.00    +0.126 C 
ATOM     13  N   UNL     1       0.688   0.107  23.752  0.00  0.00    -0.187 NA
ATOM     14  C   UNL     1       0.601   0.899  23.964  0.00  0.00    +0.333 C 
ATOM     15  O   UNL     1       1.207   1.438  23.810  0.00  0.00    -0.250 OA
ATOM     16  N   UNL     1      -0.093   1.154  24.332  0.00  0.00    -0.190 N 
ATOM     17  C   UNL     1      -0.699   0.616  24.487  0.00  0.00    +0.256 C 
ATOM     18  O   UNL     1      -1.393   0.871  24.854  0.00  0.00    -0.272 OA
ATOM     19  C   UNL     1      -0.611  -0.177  24.274  0.00  0.00    +0.173 C 
ENDROOT
BRANCH  16  20
ATOM     20  C   UNL     1      -0.180   1.947  24.544  0.00  0.00    +0.062 A 
ATOM     21  C   UNL     1      -0.003   2.189  25.312  0.00  0.00    +0.018 A 
ATOM     22  C   UNL     1      -0.090   2.982  25.525  0.00  0.00    +0.039 A 
ATOM     23  C   UNL     1      -0.355   3.531  24.970  0.00  0.00    +0.145 A 
ATOM     31  C   UNL     1      -0.533   3.288  24.202  0.00  0.00    +0.039 A 
ATOM     32  C   UNL     1      -0.446   2.496  23.989  0.00  0.00    +0.018 A 
BRANCH  23  24
ATOM     24  O   UNL     1      -0.443   4.323  25.182  0.00  0.00    -0.453 OA
BRANCH  24  25
ATOM     25  C   UNL     1      -1.197   4.642  25.288  0.00  0.00    +0.145 A 
ATOM     26  C   UNL     1      -1.399   5.351  24.920  0.00  0.00    +0.037 A 
ATOM     27  C   UNL     1      -2.153   5.671  25.025  0.00  0.00    +0.003 A 
ATOM     28  C   UNL     1      -2.703   5.280  25.500  0.00  0.00    +0.000 A 
ATOM     29  C   UNL     1      -2.501   4.570  25.869  0.00  0.00    +0.003 A 
ATOM     30  C   UNL     1      -1.747   4.252  25.762  0.00  0.00    +0.037 A 
ENDBRANCH  24  25
ENDBRANCH  23  24
ENDBRANCH  16  20
BRANCH   7   6
ATOM      6  C   UNL     1      -2.300  -1.522  24.738  0.00  0.00    +0.086 C 
BRANCH   6   5
ATOM      5  C   UNL     1      -3.049  -1.518  25.084  0.00  0.00    +0.019 C 
ATOM     33  C   UNL     1      -3.854  -1.517  25.266  0.00  0.00    +0.001 C 
ATOM     34  C   UNL     1      -3.929  -1.509  26.088  0.00  0.00    +0.000 C 
ATOM     35  C   UNL     1      -3.171  -1.506  26.414  0.00  0.00    +0.000 C 
ATOM     36  C   UNL     1      -2.627  -1.512  25.793  0.00  0.00    +0.001 C 
BRANCH   5   4
ATOM      4  C   UNL     1      -3.315  -1.525  24.303  0.00  0.00    +0.115 C 
BRANCH   4   2
ATOM      1  O   UNL     1      -3.597  -2.913  24.111  0.00  0.00    -0.246 OA
ATOM      2  C   UNL     1      -3.822  -2.122  24.045  0.00  0.00    +0.365 C 
ATOM      3  O   UNL     1      -4.556  -1.928  23.721  0.00  0.00    -0.246 OA
ENDBRANCH   4   2
ENDBRANCH   5   4
ENDBRANCH   6   5
ENDBRANCH   7   6
TORSDOF 7
ENDMDL
MODEL 5
REMARK VINA RESULT:     -10.2      2.218      4.616
REMARK  Name = 
REMARK  7 active torsions:
REMARK  status: ('A' for Active; 'I' for Inactive)
REMARK    1  A    between atoms: C_2  and  C_4
REMARK    2  A    between atoms: C_4  and  C_5
REMARK    3  A    between atoms: C_5  and  C_6
REMARK    4  A    between atoms: C_6  and  C_7
REMARK    5  A    between atoms: N_16  and  C_20
REMARK    6  A    between atoms: C_23  and  O_24
REMARK    7  A    between atoms: O_24  and  C_25
REMARK                            x       y       z     vdW  Elec       q    Type
REMARK                         _______ _______ _______ _____ _____    ______ ____
ROOT
ATOM      7  C   UNL     1      -0.507   1.291  24.470  0.00  0.00    +0.226 C 
ATOM      8  O   UNL     1      -1.301   1.070  24.514  0.00  0.00    -0.275 OA
ATOM      9  N   UNL     1      -0.292   2.080  24.580  0.00  0.00    -0.272 N 
ATOM     10  C   UNL     1       0.476   2.381  24.552  0.00  0.00    +0.096 C 
ATOM     11  C   UNL     1       0.436   3.194  24.692  0.00  0.00    +0.045 C 
ATOM     12  C   UNL     1      -0.356   3.394  24.806  0.00  0.00    +0.126 C 
ATOM     13  N   UNL     1      -0.726   4.114  24.964  0.00  0.00    -0.187 NA
ATOM     14  C   UNL     1      -1.545   4.146  25.053  0.00  0.00    +0.333 C 
ATOM     15  O   UNL     1      -1.916   4.867  25.211  0.00  0.00    -0.250 OA
ATOM     16  N   UNL     1      -1.995   3.458  24.984  0.00  0.00    -0.190 N 
ATOM     17  C   UNL     1      -1.626   2.738  24.826  0.00  0.00    +0.256 C 
ATOM     18  O   UNL     1      -2.075   2.049  24.757  0.00  0.00    -0.272 OA
ATOM     19  C   UNL     1      -0.805   2.706  24.737  0.00  0.00    +0.173 C 
ENDROOT
BRANCH  16  20
ATOM     20  C   UNL     1      -2.815   3.490  25.072  0.00  0.00    +0.062 A 
ATOM     21  C   UNL     1      -3.147   3.501  25.827  0.00  0.00    +0.018 A 
ATOM     22  C   UNL     1      -3.968   3.533  25.916  0.00  0.00    +0.039 A 
ATOM     23  C   UNL     1      -4.454   3.554  25.250  0.00  0.00    +0.145 A 
ATOM     31  C   UNL     1      -4.121   3.542  24.496  0.00  0.00    +0.039 A 
ATOM     32  C   UNL     1      -3.302   3.511  24.407  0.00  0.00    +0.018 A 
BRANCH  23  24
ATOM     24  O   UNL     1      -5.273   3.586  25.339  0.00  0.00    -0.453 OA
BRANCH  24  25
ATOM     25  C   UNL     1      -5.702   2.893  25.473  0.00  0.00    +0.145 A 
ATOM     26  C   UNL     1      -5.915   2.682  26.241  0.00  0.00    +0.037 A 
ATOM     27  C   UNL     1      -6.343   1.990  26.376  0.00  0.00    +0.003 A 
ATOM     28  C   UNL     1      -6.559   1.509  25.740  0.00  0.00    +0.000 A 
ATOM     29  C   UNL     1      -6.345   1.720  24.972  0.00  0.00    +0.003 A 
ATOM     30  C   UNL     1      -5.917   2.412  24.839  0.00  0.00    +0.037 A 
ENDBRANCH  24  25
ENDBRANCH  23  24
ENDBRANCH  16  20
BRANCH   7   6
ATOM      6  C   UNL     1       0.071   0.724  24.317  0.00  0.00    +0.086 C 
BRANCH   6   5
ATOM      5  C   UNL     1      -0.149  -0.048  24.122  0.00  0.00    +0.019 C 
ATOM     33  C   UNL     1      -0.331  -0.770  23.766  0.00  0.00    +0.001 C 
ATOM     34  C   UNL     1      -0.581  -1.288  24.356  0.00  0.00    +0.000 C 
ATOM     35  C   UNL     1      -0.554  -0.888  25.077  0.00  0.00    +0.000 C 
ATOM     36  C   UNL     1      -0.287  -0.121  24.932  0.00  0.00    +0.001 C 
BRANCH   5   4
ATOM      4  C   UNL     1       0.035   0.186  23.352  0.00  0.00    +0.115 C 
BRANCH   4   2
ATOM      1  O   UNL     1       1.413  -0.187  23.290  0.00  0.00    -0.246 OA
ATOM      2  C   UNL     1       0.661  -0.170  22.951  0.00  0.00    +0.365 C 
ATOM      3  O   UNL     1       0.535  -0.510  22.210  0.00  0.00    -0.246 OA
ENDBRANCH   4   2
ENDBRANCH   5   4
ENDBRANCH   6   5
ENDBRANCH   7   6
TORSDOF 7
ENDMDL
