MODEL 1
REMARK VINA RESULT:      -8.6      0.000      0.000
REMARK  Name = 
REMARK  5 active torsions:
REMARK  status: ('A' for Active; 'I' for Inactive)
REMARK    1  A    between atoms: N_2  and  C_4
REMARK    2  A    between atoms: C_7  and  C_10
REMARK    3  A    between atoms: N_15  and  C_16
REMARK    4  A    between atoms: C_20  and  N_24
REMARK    5  A    between atoms: C_25  and  C_27
REMARK                            x       y       z     vdW  Elec       q    Type
REMARK                         _______ _______ _______ _____ _____    ______ ____
ROOT
ATOM     16  C   UNL     1      -0.499   1.272  24.439  0.00  0.00    +0.154 C 
ATOM     17  C   UNL     1      -0.019   1.773  24.886  0.00  0.00    +0.166 C 
ATOM     18  O   UNL     1       0.760   1.675  24.632  0.00  0.00    -0.350 OA
ATOM     19  C   UNL     1       0.761   1.112  24.028  0.00  0.00    +0.166 C 
ATOM     20  C   UNL     1       1.244   0.704  23.498  0.00  0.00    +0.155 C 
ATOM     21  C   UNL     1       0.765   0.203  23.051  0.00  0.00    +0.166 C 
ATOM     22  O   UNL     1      -0.013   0.302  23.305  0.00  0.00    -0.350 OA
ATOM     23  C   UNL     1      -0.016   0.863  23.909  0.00  0.00    +0.166 C 
ENDROOT
BRANCH  16  15
ATOM     10  C   UNL     1      -3.054   2.412  25.019  0.00  0.00    +0.086 A 
ATOM     11  C   UNL     1      -2.695   3.140  25.168  0.00  0.00    +0.040 A 
ATOM     12  C   UNL     1      -1.878   3.218  25.097  0.00  0.00    +0.103 A 
ATOM     13  N   UNL     1      -1.418   2.570  24.878  0.00  0.00    -0.211 NA
ATOM     14  C   UNL     1      -1.777   1.842  24.729  0.00  0.00    +0.237 A 
ATOM     15  N   UNL     1      -1.317   1.192  24.510  0.00  0.00    -0.200 NA
ATOM     36  N   UNL     1      -2.595   1.762  24.799  0.00  0.00    -0.212 NA
BRANCH  10   7
ATOM      4  C   UNL     1      -5.509   2.174  25.230  0.00  0.00    +0.048 A 
ATOM      5  C   UNL     1      -5.157   2.915  25.323  0.00  0.00    +0.015 A 
ATOM      6  C   UNL     1      -4.338   2.994  25.252  0.00  0.00    +0.003 A 
ATOM      7  C   UNL     1      -3.873   2.332  25.089  0.00  0.00    +0.018 A 
ATOM      8  C   UNL     1      -4.225   1.592  24.997  0.00  0.00    +0.003 A 
ATOM      9  C   UNL     1      -5.043   1.513  25.067  0.00  0.00    +0.015 A 
BRANCH   4   2
ATOM      1  C   UNL     1      -6.690   2.204  26.034  0.00  0.00    +0.112 C 
ATOM      2  N   UNL     1      -6.327   2.096  25.301  0.00  0.00    -0.304 N 
ATOM      3  C   UNL     1      -6.783   1.909  24.639  0.00  0.00    +0.112 C 
ENDBRANCH   4   2
ENDBRANCH  10   7
ENDBRANCH  16  15
BRANCH  20  24
ATOM     24  N   UNL     1       2.062   0.783  23.427  0.00  0.00    -0.198 NA
ATOM     25  C   UNL     1       2.510   0.167  23.110  0.00  0.00    +0.265 C 
ATOM     26  O   UNL     1       2.140  -0.528  22.864  0.00  0.00    -0.268 OA
BRANCH  25  27
ATOM     27  C   UNL     1       3.329   0.246  23.039  0.00  0.00    +0.058 A 
ATOM     28  C   UNL     1       3.646   0.809  22.526  0.00  0.00    +0.008 A 
ATOM     29  C   UNL     1       4.463   0.887  22.455  0.00  0.00    +0.040 A 
ATOM     30  C   UNL     1       4.965   0.403  22.897  0.00  0.00    +0.176 A 
ATOM     31  O   UNL     1       5.786   0.354  22.943  0.00  0.00    -0.435 OA
ATOM     32  C   UNL     1       5.977  -0.238  23.483  0.00  0.00    +0.429 C 
ATOM     33  O   UNL     1       5.273  -0.556  23.772  0.00  0.00    -0.435 OA
ATOM     34  C   UNL     1       4.648  -0.159  23.410  0.00  0.00    +0.177 A 
ATOM     35  C   UNL     1       3.829  -0.238  23.481  0.00  0.00    +0.045 A 
ENDBRANCH  25  27
ENDBRANCH  20  24
TORSDOF 5
ENDMDL
MODEL 2
REMARK VINA RESULT:      -8.0      1.977      8.025
REMARK  Name = 
REMARK  5 active torsions:
REMARK  status: ('A' for Active; 'I' for Inactive)
REMARK    1  A    between atoms: N_2  and  C_4
REMARK    2  A    between atoms: C_7  and  C_10
REMARK    3  A    between atoms: N_15  and  C_16
REMARK    4  A    between atoms: C_20  and  N_24
REMARK    5  A    between atoms: C_25  and  C_27
REMARK                            x       y       z     vdW  Elec       q    Type
REMARK                         _______ _______ _______ _____ _____    ______ ____
ROOT
ATOM     16  C   UNL     1      -0.050   1.300  24.142  0.00  0.00    +0.154 C 
ATOM     17  C   UNL     1      -0.563   0.709  23.881  0.00  0.00    +0.166 C 
ATOM     18  O   UNL     1      -1.335   0.988  23.957  0.00  0.00    -0.350 OA
ATOM     19  C   UNL     1      -1.300   1.753  24.265  0.00  0.00    +0.166 C 
ATOM     20  C   UNL     1      -1.757   2.398  24.502  0.00  0.00    +0.155 C 
ATOM     21  C   UNL     1      -1.245   2.990  24.764  0.00  0.00    +0.166 C 
ATOM     22  O   UNL     1      -0.472   2.710  24.687  0.00  0.00    -0.350 OA
ATOM     23  C   UNL     1      -0.506   1.946  24.380  0.00  0.00    +0.166 C 
ENDROOT
BRANCH  16  15
ATOM     10  C   UNL     1       2.399   0.291  23.072  0.00  0.00    +0.086 A 
ATOM     11  C   UNL     1       1.977  -0.124  22.497  0.00  0.00    +0.040 A 
ATOM     12  C   UNL     1       1.154  -0.079  22.477  0.00  0.00    +0.103 A 
ATOM     13  N   UNL     1       0.753   0.381  23.032  0.00  0.00    -0.211 NA
ATOM     14  C   UNL     1       1.175   0.795  23.607  0.00  0.00    +0.237 A 
ATOM     15  N   UNL     1       0.773   1.255  24.162  0.00  0.00    -0.200 NA
ATOM     36  N   UNL     1       1.998   0.750  23.627  0.00  0.00    -0.212 NA
BRANCH  10   7
ATOM      4  C   UNL     1       4.870   0.155  23.132  0.00  0.00    +0.048 A 
ATOM      5  C   UNL     1       4.416  -0.462  23.438  0.00  0.00    +0.015 A 
ATOM      6  C   UNL     1       3.591  -0.417  23.418  0.00  0.00    +0.003 A 
ATOM      7  C   UNL     1       3.223   0.245  23.092  0.00  0.00    +0.018 A 
ATOM      8  C   UNL     1       3.678   0.862  22.786  0.00  0.00    +0.003 A 
ATOM      9  C   UNL     1       4.501   0.817  22.806  0.00  0.00    +0.015 A 
BRANCH   4   2
ATOM      1  C   UNL     1       6.107   0.408  23.801  0.00  0.00    +0.112 C 
ATOM      2  N   UNL     1       5.693   0.109  23.152  0.00  0.00    -0.304 N 
ATOM      3  C   UNL     1       6.104  -0.235  22.525  0.00  0.00    +0.112 C 
ENDBRANCH   4   2
ENDBRANCH  10   7
ENDBRANCH  16  15
BRANCH  20  24
ATOM     24  N   UNL     1      -2.580   2.443  24.482  0.00  0.00    -0.198 NA
ATOM     25  C   UNL     1      -2.994   2.708  25.145  0.00  0.00    +0.265 C 
ATOM     26  O   UNL     1      -2.586   2.926  25.827  0.00  0.00    -0.268 OA
BRANCH  25  27
ATOM     27  C   UNL     1      -3.818   2.753  25.125  0.00  0.00    +0.058 A 
ATOM     28  C   UNL     1      -4.192   3.488  25.162  0.00  0.00    +0.008 A 
ATOM     29  C   UNL     1      -5.015   3.533  25.142  0.00  0.00    +0.040 A 
ATOM     30  C   UNL     1      -5.465   2.844  25.085  0.00  0.00    +0.176 A 
ATOM     31  O   UNL     1      -6.279   2.718  25.055  0.00  0.00    -0.435 OA
ATOM     32  C   UNL     1      -6.409   1.905  24.999  0.00  0.00    +0.429 C 
ATOM     33  O   UNL     1      -5.675   1.530  24.995  0.00  0.00    -0.435 OA
ATOM     34  C   UNL     1      -5.092   2.110  25.048  0.00  0.00    +0.177 A 
ATOM     35  C   UNL     1      -4.268   2.064  25.068  0.00  0.00    +0.045 A 
ENDBRANCH  25  27
ENDBRANCH  20  24
TORSDOF 5
ENDMDL
MODEL 3
REMARK VINA RESULT:      -5.1     16.490     18.473
REMARK  Name = 
REMARK  5 active torsions:
REMARK  status: ('A' for Active; 'I' for Inactive)
REMARK    1  A    between atoms: N_2  and  C_4
REMARK    2  A    between atoms: C_7  and  C_10
REMARK    3  A    between atoms: N_15  and  C_16
REMARK    4  A    between atoms: C_20  and  N_24
REMARK    5  A    between atoms: C_25  and  C_27
REMARK                            x       y       z     vdW  Elec       q    Type
REMARK                         _______ _______ _______ _____ _____    ______ ____
ROOT
ATOM     16  C   UNL     1      -4.828 -10.116  11.736  0.00  0.00    +0.154 C 
ATOM     17  C   UNL     1      -5.296 -10.779  11.589  0.00  0.00    +0.166 C 
ATOM     18  O   UNL     1      -5.921 -10.549  11.102  0.00  0.00    -0.350 OA
ATOM     19  C   UNL     1      -5.839  -9.743  10.947  0.00  0.00    +0.166 C 
ATOM     20  C   UNL     1      -6.175  -9.102  10.550  0.00  0.00    +0.155 C 
ATOM     21  C   UNL     1      -5.708  -8.438  10.696  0.00  0.00    +0.166 C 
ATOM     22  O   UNL     1      -5.083  -8.669  11.183  0.00  0.00    -0.350 OA
ATOM     23  C   UNL     1      -5.164  -9.475  11.339  0.00  0.00    +0.166 C 
ENDROOT
BRANCH  16  15
ATOM     10  C   UNL     1      -3.528 -10.519  14.248  0.00  0.00    +0.086 A 
ATOM     11  C   UNL     1      -4.244 -10.761  14.579  0.00  0.00    +0.040 A 
ATOM     12  C   UNL     1      -4.926 -10.781  14.117  0.00  0.00    +0.103 A 
ATOM     13  N   UNL     1      -4.894 -10.559  13.324  0.00  0.00    -0.211 NA
ATOM     14  C   UNL     1      -4.178 -10.317  12.992  0.00  0.00    +0.237 A 
ATOM     15  N   UNL     1      -4.145 -10.095  12.197  0.00  0.00    -0.200 NA
ATOM     36  N   UNL     1      -3.495 -10.297  13.454  0.00  0.00    -0.212 NA
BRANCH  10   7
ATOM      4  C   UNL     1      -1.479 -10.458  15.635  0.00  0.00    +0.048 A 
ATOM      5  C   UNL     1      -1.421 -10.548  14.817  0.00  0.00    +0.015 A 
ATOM      6  C   UNL     1      -2.104 -10.569  14.354  0.00  0.00    +0.003 A 
ATOM      7  C   UNL     1      -2.845 -10.498  14.710  0.00  0.00    +0.018 A 
ATOM      8  C   UNL     1      -2.903 -10.408  15.528  0.00  0.00    +0.003 A 
ATOM      9  C   UNL     1      -2.220 -10.387  15.990  0.00  0.00    +0.015 A 
BRANCH   4   2
ATOM      1  C   UNL     1      -0.855 -10.424  16.919  0.00  0.00    +0.112 C 
ATOM      2  N   UNL     1      -0.796 -10.437  16.097  0.00  0.00    -0.304 N 
ATOM      3  C   UNL     1      -0.053 -10.431  15.736  0.00  0.00    +0.112 C 
ENDBRANCH   4   2
ENDBRANCH  10   7
ENDBRANCH  16  15
BRANCH  20  24
ATOM     24  N   UNL     1      -6.858  -9.122  10.088  0.00  0.00    -0.198 NA
ATOM     25  C   UNL     1      -7.226  -8.418   9.866  0.00  0.00    +0.265 C 
ATOM     26  O   UNL     1      -6.911  -7.694  10.106  0.00  0.00    -0.268 OA
BRANCH  25  27
ATOM     27  C   UNL     1      -7.910  -8.437   9.404  0.00  0.00    +0.058 A 
ATOM     28  C   UNL     1      -7.856  -8.352   8.585  0.00  0.00    +0.008 A 
ATOM     29  C   UNL     1      -8.539  -8.372   8.124  0.00  0.00    +0.040 A 
ATOM     30  C   UNL     1      -9.276  -8.476   8.480  0.00  0.00    +0.176 A 
ATOM     31  O   UNL     1     -10.039  -8.517   8.170  0.00  0.00    -0.435 OA
ATOM     32  C   UNL     1     -10.564  -8.628   8.797  0.00  0.00    +0.429 C 
ATOM     33  O   UNL     1     -10.125  -8.654   9.494  0.00  0.00    -0.435 OA
ATOM     34  C   UNL     1      -9.329  -8.560   9.299  0.00  0.00    +0.177 A 
ATOM     35  C   UNL     1      -8.646  -8.541   9.761  0.00  0.00    +0.045 A 
ENDBRANCH  25  27
ENDBRANCH  20  24
TORSDOF 5
ENDMDL
