REMARK  Name = 
REMARK  7 active torsions:
REMARK  status: ('A' for Active; 'I' for Inactive)
REMARK    1  A    between atoms: C_2  and  C_4
REMARK    2  A    between atoms: C_4  and  C_5
REMARK    3  A    between atoms: C_7  and  C_25
REMARK    4  A    between atoms: N_11  and  C_12
REMARK    5  A    between atoms: C_12  and  C_13
REMARK    6  A    between atoms: N_27  and  C_28
REMARK    7  A    between atoms: C_28  and  C_29
REMARK                            x       y       z     vdW  Elec       q    Type
REMARK                         _______ _______ _______ _____ _____    ______ ____
ROOT
ATOM      5  C   UNL     1       3.006   2.090   0.000  0.00  0.00    +0.095 C 
ATOM      6  N   UNL     1       3.805   1.885   0.000  0.00  0.00    -0.207 NA
ATOM      7  C   UNL     1       4.143   1.132   0.000  0.00  0.00    +0.155 C 
ATOM      8  C   UNL     1       3.765   0.399   0.000  0.00  0.00    +0.055 C 
ATOM      9  C   UNL     1       2.956   0.237   0.000  0.00  0.00    -0.002 A 
ATOM     10  C   UNL     1       2.645  -0.527   0.000  0.00  0.00    +0.072 A 
ATOM     11  N   UNL     1       1.822  -0.468   0.000  0.00  0.00    -0.320 N 
ATOM     19  C   UNL     1       1.624   0.333   0.000  0.00  0.00    +0.060 A 
ATOM     20  C   UNL     1       2.325   0.769   0.000  0.00  0.00    +0.011 A 
ATOM     21  C   UNL     1       2.348   1.594   0.000  0.00  0.00    -0.005 A 
ATOM     22  C   UNL     1       1.571   1.982   0.000  0.00  0.00    -0.003 A 
ATOM     23  C   UNL     1       0.870   1.547   0.000  0.00  0.00    +0.001 A 
ATOM     24  C   UNL     1       0.897   0.722   0.000  0.00  0.00    +0.017 A 
ENDROOT
BRANCH   7  25
ATOM     25  C   UNL     1       4.968   1.110   0.000  0.00  0.00    +0.258 C 
ATOM     26  O   UNL     1       5.361   0.384   0.000  0.00  0.00    -0.272 OA
ATOM     27  N   UNL     1       5.399   1.813   0.000  0.00  0.00    -0.196 NA
BRANCH  27  28
ATOM     28  C   UNL     1       6.224   1.790   0.000  0.00  0.00    +0.179 C 
BRANCH  28  29
ATOM     29  C   UNL     1       6.656   2.493   0.000  0.00  0.00    +0.144 A 
ATOM     30  C   UNL     1       6.341   3.256   0.000  0.00  0.00    +0.038 A 
ATOM     31  C   UNL     1       6.969   3.791   0.000  0.00  0.00    +0.036 A 
ATOM     32  C   UNL     1       7.672   3.359   0.000  0.00  0.00    +0.123 A 
ATOM     33  C   UNL     1       8.434   3.674   0.000  0.00  0.00    +0.072 C 
ATOM     34  O   UNL     1       7.478   2.557   0.000  0.00  0.00    -0.460 OA
ENDBRANCH  28  29
ENDBRANCH  27  28
ENDBRANCH   7  25
BRANCH   5   4
ATOM      4  C   UNL     1       2.845   2.899   0.000  0.00  0.00    +0.022 C 
BRANCH   4   2
ATOM      1  C   UNL     1       1.902   3.973   0.000  0.00  0.00    +0.000 C 
ATOM      2  C   UNL     1       2.063   3.164   0.000  0.00  0.00    +0.002 C 
ATOM      3  C   UNL     1       1.443   2.619   0.000  0.00  0.00    +0.000 C 
ENDBRANCH   4   2
ENDBRANCH   5   4
BRANCH  11  12
ATOM     12  C   UNL     1       1.290  -1.098   0.000  0.00  0.00    +0.155 C 
BRANCH  12  13
ATOM     13  C   UNL     1       0.478  -0.953   0.000  0.00  0.00    +0.123 A 
ATOM     14  N   UNL     1      -0.117  -1.525   0.000  0.00  0.00    -0.080 NA
ATOM     15  O   UNL     1      -0.844  -1.136   0.000  0.00  0.00    -0.358 OA
ATOM     16  C   UNL     1      -0.699  -0.324   0.000  0.00  0.00    +0.155 A 
ATOM     17  C   UNL     1      -1.271   0.271   0.000  0.00  0.00    +0.075 C 
ATOM     18  C   UNL     1       0.118  -0.211   0.000  0.00  0.00    +0.056 A 
ENDBRANCH  12  13
ENDBRANCH  11  12
TORSDOF 7
