REMARK  Name = 
REMARK  6 active torsions:
REMARK  status: ('A' for Active; 'I' for Inactive)
REMARK    1  A    between atoms: C_2  and  C_3
REMARK    2  A    between atoms: C_6  and  C_7
REMARK    3  A    between atoms: C_7  and  N_8
REMARK    4  A    between atoms: C_13  and  C_14
REMARK    5  A    between atoms: N_16  and  C_17
REMARK    6  A    between atoms: C_17  and  C_18
REMARK                            x       y       z     vdW  Elec       q    Type
REMARK                         _______ _______ _______ _____ _____    ______ ____
ROOT
ATOM      8  N   UNL     1       2.070   1.110   0.000  0.00  0.00    -0.255 NA
ATOM      9  C   UNL     1       1.356   0.698   0.000  0.00  0.00    +0.121 C 
ATOM     10  C   UNL     1       0.641   1.110   0.000  0.00  0.00    +0.090 A 
ATOM     11  C   UNL     1       0.641   1.935   0.000  0.00  0.00    +0.077 A 
ATOM     12  C   UNL     1       1.356   2.348   0.000  0.00  0.00    +0.072 C 
ATOM     13  C   UNL     1       2.070   1.935   0.000  0.00  0.00    +0.143 C 
ATOM     25  N   UNL     1      -0.143   2.190   0.000  0.00  0.00    -0.227 NA
ATOM     26  C   UNL     1      -0.628   1.523   0.000  0.00  0.00    +0.198 A 
ATOM     27  N   UNL     1      -0.143   0.856   0.000  0.00  0.00    -0.226 NA
ENDROOT
BRANCH  13  14
ATOM     14  C   UNL     1       2.784   2.348   0.000  0.00  0.00    +0.257 C 
ATOM     15  O   UNL     1       2.784   3.173   0.000  0.00  0.00    -0.272 OA
ATOM     16  N   UNL     1       3.499   1.935   0.000  0.00  0.00    -0.199 NA
BRANCH  16  17
ATOM     17  C   UNL     1       4.213   2.348   0.000  0.00  0.00    +0.142 C 
BRANCH  17  18
ATOM     18  C   UNL     1       4.213   3.173   0.000  0.00  0.00    -0.001 A 
ATOM     19  C   UNL     1       3.499   3.585   0.000  0.00  0.00    -0.002 A 
ATOM     20  C   UNL     1       3.499   4.410   0.000  0.00  0.00    +0.011 A 
ATOM     21  C   UNL     1       4.213   4.823   0.000  0.00  0.00    +0.058 A 
ATOM     22 CL   UNL     1       4.213   5.648   0.000  0.00  0.00    -0.082 Cl
ATOM     23  C   UNL     1       4.928   4.410   0.000  0.00  0.00    +0.011 A 
ATOM     24  C   UNL     1       4.928   3.585   0.000  0.00  0.00    -0.002 A 
ENDBRANCH  17  18
ENDBRANCH  16  17
ENDBRANCH  13  14
BRANCH   8   7
ATOM      7  C   UNL     1       2.784   0.698   0.000  0.00  0.00    +0.138 C 
BRANCH   7   6
ATOM      3  C   UNL     1       3.197  -1.397   0.000  0.00  0.00    +0.156 A 
ATOM      4  C   UNL     1       2.372  -1.397   0.000  0.00  0.00    +0.038 A 
ATOM      5  C   UNL     1       2.117  -0.612   0.000  0.00  0.00    +0.037 A 
ATOM      6  C   UNL     1       2.784  -0.127   0.000  0.00  0.00    +0.139 A 
ATOM     28  O   UNL     1       3.452  -0.612   0.000  0.00  0.00    -0.458 OA
BRANCH   3   2
ATOM      1  O   UNL     1       3.346  -2.818   0.000  0.00  0.00    -0.212 OA
ATOM      2  C   UNL     1       3.682  -2.064   0.000  0.00  0.00    +0.246 C 
ENDBRANCH   3   2
ENDBRANCH   7   6
ENDBRANCH   8   7
TORSDOF 6
