MODEL 1
REMARK VINA RESULT:     -12.7      0.000      0.000
REMARK  Name = 
REMARK  3 active torsions:
REMARK  status: ('A' for Active; 'I' for Inactive)
REMARK    1  A    between atoms: C_2  and  C_19
REMARK    2  A    between atoms: C_6  and  C_8
REMARK    3  A    between atoms: C_11  and  C_13
REMARK                            x       y       z     vdW  Elec       q    Type
REMARK                         _______ _______ _______ _____ _____    ______ ____
ROOT
ATOM      1  O   UNL     1      -1.259   2.601  26.058  0.00  0.00    -0.268 OA
ATOM      2  C   UNL     1      -1.707   2.998  25.490  0.00  0.00    +0.267 C 
ATOM      3  N   UNL     1      -2.337   2.616  25.120  0.00  0.00    -0.274 N 
ATOM      4  C   UNL     1      -2.832   2.940  24.546  0.00  0.00    +0.094 C 
ATOM      5  C   UNL     1      -3.385   2.367  24.331  0.00  0.00    +0.033 C 
ATOM      6  C   UNL     1      -3.232   1.687  24.773  0.00  0.00    +0.100 C 
ATOM      7  C   UNL     1      -2.585   1.841  25.262  0.00  0.00    +0.103 C 
ENDROOT
BRANCH   2  19
ATOM     19  C   UNL     1      -1.524   3.777  25.291  0.00  0.00    +0.135 A 
ATOM     20  N   UNL     1      -1.994   4.395  25.571  0.00  0.00    -0.239 NA
ATOM     21  C   UNL     1      -1.811   5.176  25.372  0.00  0.00    +0.099 A 
ATOM     22  C   UNL     1      -1.158   5.337  24.894  0.00  0.00    +0.021 A 
ATOM     23  C   UNL     1      -0.688   4.719  24.615  0.00  0.00    +0.003 A 
ATOM     24  C   UNL     1      -0.871   3.940  24.813  0.00  0.00    +0.024 A 
ENDBRANCH   2  19
BRANCH   6   8
ATOM      8  C   UNL     1      -3.652   0.979  24.735  0.00  0.00    +0.228 A 
ATOM      9  N   UNL     1      -4.473   0.898  24.777  0.00  0.00    -0.111 NA
ATOM     10  N   UNL     1      -4.654   0.096  24.716  0.00  0.00    -0.107 NA
ATOM     11  C   UNL     1      -3.946  -0.320  24.636  0.00  0.00    +0.250 A 
ATOM     12  O   UNL     1      -3.327   0.226  24.647  0.00  0.00    -0.419 OA
BRANCH  11  13
ATOM     13  C   UNL     1      -3.870  -1.137  24.557  0.00  0.00    +0.055 A 
ATOM     14  C   UNL     1      -3.464  -1.571  25.129  0.00  0.00    +0.005 A 
ATOM     15  C   UNL     1      -3.388  -2.389  25.051  0.00  0.00    +0.000 A 
ATOM     16  C   UNL     1      -3.720  -2.773  24.399  0.00  0.00    +0.000 A 
ATOM     17  C   UNL     1      -4.126  -2.340  23.828  0.00  0.00    +0.000 A 
ATOM     18  C   UNL     1      -4.201  -1.521  23.907  0.00  0.00    +0.005 A 
ENDBRANCH  11  13
ENDBRANCH   6   8
TORSDOF 3
ENDMDL
MODEL 2
REMARK VINA RESULT:     -12.5      1.139      5.553
REMARK  Name = 
REMARK  3 active torsions:
REMARK  status: ('A' for Active; 'I' for Inactive)
REMARK    1  A    between atoms: C_2  and  C_19
REMARK    2  A    between atoms: C_6  and  C_8
REMARK    3  A    between atoms: C_11  and  C_13
REMARK                            x       y       z     vdW  Elec       q    Type
REMARK                         _______ _______ _______ _____ _____    ______ ____
ROOT
ATOM      1  O   UNL     1      -4.279  -0.093  25.419  0.00  0.00    -0.268 OA
ATOM      2  C   UNL     1      -3.631  -0.476  25.080  0.00  0.00    +0.267 C 
ATOM      3  N   UNL     1      -2.906  -0.087  25.023  0.00  0.00    -0.274 N 
ATOM      4  C   UNL     1      -2.213  -0.397  24.700  0.00  0.00    +0.094 C 
ATOM      5  C   UNL     1      -1.625   0.180  24.756  0.00  0.00    +0.033 C 
ATOM      6  C   UNL     1      -1.955   0.846  25.114  0.00  0.00    +0.100 C 
ATOM      7  C   UNL     1      -2.746   0.682  25.279  0.00  0.00    +0.103 C 
ENDROOT
BRANCH   2  19
ATOM     19  C   UNL     1      -3.708  -1.247  24.800  0.00  0.00    +0.135 A 
ATOM     20  N   UNL     1      -3.429  -1.880  25.250  0.00  0.00    -0.239 NA
ATOM     21  C   UNL     1      -3.506  -2.652  24.969  0.00  0.00    +0.099 A 
ATOM     22  C   UNL     1      -3.862  -2.791  24.238  0.00  0.00    +0.021 A 
ATOM     23  C   UNL     1      -4.141  -2.159  23.788  0.00  0.00    +0.003 A 
ATOM     24  C   UNL     1      -4.064  -1.388  24.069  0.00  0.00    +0.024 A 
ENDBRANCH   2  19
BRANCH   6   8
ATOM      8  C   UNL     1      -1.562   1.553  25.277  0.00  0.00    +0.228 A 
ATOM      9  N   UNL     1      -0.849   1.628  25.687  0.00  0.00    -0.111 NA
ATOM     10  N   UNL     1      -0.659   2.430  25.723  0.00  0.00    -0.107 NA
ATOM     11  C   UNL     1      -1.255   2.851  25.336  0.00  0.00    +0.250 A 
ATOM     12  O   UNL     1      -1.813   2.308  25.061  0.00  0.00    -0.419 OA
BRANCH  11  13
ATOM     13  C   UNL     1      -1.286   3.669  25.242  0.00  0.00    +0.055 A 
ATOM     14  C   UNL     1      -1.926   4.095  25.541  0.00  0.00    +0.005 A 
ATOM     15  C   UNL     1      -1.958   4.913  25.447  0.00  0.00    +0.000 A 
ATOM     16  C   UNL     1      -1.349   5.307  25.052  0.00  0.00    +0.000 A 
ATOM     17  C   UNL     1      -0.709   4.882  24.753  0.00  0.00    +0.000 A 
ATOM     18  C   UNL     1      -0.678   4.062  24.847  0.00  0.00    +0.005 A 
ENDBRANCH  11  13
ENDBRANCH   6   8
TORSDOF 3
ENDMDL
