MODEL 1
REMARK VINA RESULT:     -10.2      0.000      0.000
REMARK  Name = 
REMARK  5 active torsions:
REMARK  status: ('A' for Active; 'I' for Inactive)
REMARK    1  A    between atoms: C_3  and  C_4
REMARK    2  A    between atoms: C_4  and  N_5
REMARK    3  A    between atoms: C_6  and  C_8
REMARK    4  A    between atoms: C_16  and  N_17
REMARK    5  A    between atoms: N_17  and  C_18
REMARK                            x       y       z     vdW  Elec       q    Type
REMARK                         _______ _______ _______ _____ _____    ______ ____
ROOT
ATOM      1  O   UNL     1      -4.930   1.059  25.373  0.00  0.00    -0.219 OA
ATOM      2  C   UNL     1      -4.266   0.926  24.902  0.00  0.00    +0.199 C 
ATOM      3  C   UNL     1      -3.670   1.473  24.739  0.00  0.00    +0.169 C 
ATOM     14  O   UNL     1      -3.117   1.108  24.248  0.00  0.00    -0.350 OA
ATOM     15  C   UNL     1      -3.371   0.336  24.108  0.00  0.00    +0.162 C 
ATOM     16  C   UNL     1      -4.081   0.223  24.512  0.00  0.00    +0.135 C 
ENDROOT
BRANCH   3   4
ATOM      4  C   UNL     1      -3.634   2.248  25.017  0.00  0.00    +0.148 C 
BRANCH   4   5
ATOM      5  N   UNL     1      -2.932   2.678  24.952  0.00  0.00    -0.199 NA
ATOM      6  C   UNL     1      -2.868   3.419  25.309  0.00  0.00    +0.265 C 
ATOM      7  O   UNL     1      -3.505   3.730  25.731  0.00  0.00    -0.268 OA
BRANCH   6   8
ATOM      8  C   UNL     1      -2.166   3.848  25.245  0.00  0.00    +0.058 A 
ATOM      9  C   UNL     1      -2.191   4.665  25.129  0.00  0.00    +0.025 A 
ATOM     10  C   UNL     1      -1.490   5.094  25.065  0.00  0.00    +0.099 A 
ATOM     11  N   UNL     1      -0.763   4.706  25.116  0.00  0.00    -0.242 NA
ATOM     12  C   UNL     1      -0.738   3.891  25.231  0.00  0.00    +0.099 A 
ATOM     13  C   UNL     1      -1.439   3.461  25.296  0.00  0.00    +0.025 A 
ENDBRANCH   6   8
ENDBRANCH   4   5
ENDBRANCH   3   4
BRANCH  16  17
ATOM     17  N   UNL     1      -4.527  -0.470  24.525  0.00  0.00    -0.216 NA
BRANCH  17  18
ATOM     18  C   UNL     1      -4.150  -1.204  24.511  0.00  0.00    +0.073 C 
ATOM     19  C   UNL     1      -4.127  -1.725  23.871  0.00  0.00    +0.017 C 
ATOM     20  C   UNL     1      -3.693  -2.388  24.098  0.00  0.00    +0.001 C 
ATOM     21  C   UNL     1      -3.446  -2.278  24.877  0.00  0.00    +0.001 C 
ATOM     22  C   UNL     1      -3.729  -1.545  25.133  0.00  0.00    +0.017 C 
ENDBRANCH  17  18
ENDBRANCH  16  17
TORSDOF 5
ENDMDL
MODEL 2
REMARK VINA RESULT:      -9.8      0.859      5.079
REMARK  Name = 
REMARK  5 active torsions:
REMARK  status: ('A' for Active; 'I' for Inactive)
REMARK    1  A    between atoms: C_3  and  C_4
REMARK    2  A    between atoms: C_4  and  N_5
REMARK    3  A    between atoms: C_6  and  C_8
REMARK    4  A    between atoms: C_16  and  N_17
REMARK    5  A    between atoms: N_17  and  C_18
REMARK                            x       y       z     vdW  Elec       q    Type
REMARK                         _______ _______ _______ _____ _____    ______ ____
ROOT
ATOM      1  O   UNL     1      -4.171   2.809  25.654  0.00  0.00    -0.219 OA
ATOM      2  C   UNL     1      -3.591   2.642  25.091  0.00  0.00    +0.199 C 
ATOM      3  C   UNL     1      -3.549   1.961  24.627  0.00  0.00    +0.169 C 
ATOM     14  O   UNL     1      -2.885   2.023  24.143  0.00  0.00    -0.350 OA
ATOM     15  C   UNL     1      -2.516   2.742  24.309  0.00  0.00    +0.162 C 
ATOM     16  C   UNL     1      -2.952   3.124  24.895  0.00  0.00    +0.135 C 
ENDROOT
BRANCH   3   4
ATOM      4  C   UNL     1      -4.079   1.329  24.643  0.00  0.00    +0.148 C 
BRANCH   4   5
ATOM      5  N   UNL     1      -3.797   0.554  24.650  0.00  0.00    -0.199 NA
ATOM      6  C   UNL     1      -4.327  -0.078  24.668  0.00  0.00    +0.265 C 
ATOM      7  O   UNL     1      -5.139   0.065  24.679  0.00  0.00    -0.268 OA
BRANCH   6   8
ATOM      8  C   UNL     1      -4.044  -0.853  24.675  0.00  0.00    +0.058 A 
ATOM      9  C   UNL     1      -4.146  -1.336  24.013  0.00  0.00    +0.025 A 
ATOM     10  C   UNL     1      -3.864  -2.111  24.020  0.00  0.00    +0.099 A 
ATOM     11  N   UNL     1      -3.479  -2.403  24.688  0.00  0.00    -0.242 NA
ATOM     12  C   UNL     1      -3.377  -1.922  25.350  0.00  0.00    +0.099 A 
ATOM     13  C   UNL     1      -3.660  -1.147  25.343  0.00  0.00    +0.025 A 
ENDBRANCH   6   8
ENDBRANCH   4   5
ENDBRANCH   3   4
BRANCH  16  17
ATOM     17  N   UNL     1      -2.780   3.860  25.226  0.00  0.00    -0.216 NA
BRANCH  17  18
ATOM     18  C   UNL     1      -2.014   4.163  25.183  0.00  0.00    +0.073 C 
ATOM     19  C   UNL     1      -1.793   4.876  24.832  0.00  0.00    +0.017 C 
ATOM     20  C   UNL     1      -0.977   4.960  24.915  0.00  0.00    +0.001 C 
ATOM     21  C   UNL     1      -0.692   4.298  25.318  0.00  0.00    +0.001 C 
ATOM     22  C   UNL     1      -1.334   3.805  25.483  0.00  0.00    +0.017 C 
ENDBRANCH  17  18
ENDBRANCH  16  17
TORSDOF 5
ENDMDL
MODEL 3
REMARK VINA RESULT:      -9.8      1.799      2.155
REMARK  Name = 
REMARK  5 active torsions:
REMARK  status: ('A' for Active; 'I' for Inactive)
REMARK    1  A    between atoms: C_3  and  C_4
REMARK    2  A    between atoms: C_4  and  N_5
REMARK    3  A    between atoms: C_6  and  C_8
REMARK    4  A    between atoms: C_16  and  N_17
REMARK    5  A    between atoms: N_17  and  C_18
REMARK                            x       y       z     vdW  Elec       q    Type
REMARK                         _______ _______ _______ _____ _____    ______ ____
ROOT
ATOM      1  O   UNL     1      -0.926  -0.411  26.301  0.00  0.00    -0.219 OA
ATOM      2  C   UNL     1      -1.280  -0.201  25.586  0.00  0.00    +0.199 C 
ATOM      3  C   UNL     1      -1.266   0.548  25.240  0.00  0.00    +0.169 C 
ATOM     14  O   UNL     1      -1.687   0.509  24.532  0.00  0.00    -0.350 OA
ATOM     15  C   UNL     1      -1.962  -0.263  24.441  0.00  0.00    +0.162 C 
ATOM     16  C   UNL     1      -1.710  -0.702  25.092  0.00  0.00    +0.135 C 
ENDROOT
BRANCH   3   4
ATOM      4  C   UNL     1      -0.896   1.218  25.548  0.00  0.00    +0.148 C 
BRANCH   4   5
ATOM      5  N   UNL     1      -1.206   1.967  25.395  0.00  0.00    -0.199 NA
ATOM      6  C   UNL     1      -0.837   2.637  25.704  0.00  0.00    +0.265 C 
ATOM      7  O   UNL     1      -0.158   2.557  26.166  0.00  0.00    -0.268 OA
BRANCH   6   8
ATOM      8  C   UNL     1      -1.146   3.386  25.551  0.00  0.00    +0.058 A 
ATOM      9  C   UNL     1      -0.699   3.940  25.133  0.00  0.00    +0.025 A 
ATOM     10  C   UNL     1      -1.009   4.689  24.980  0.00  0.00    +0.099 A 
ATOM     11  N   UNL     1      -1.765   4.885  25.245  0.00  0.00    -0.242 NA
ATOM     12  C   UNL     1      -2.212   4.332  25.663  0.00  0.00    +0.099 A 
ATOM     13  C   UNL     1      -1.902   3.583  25.816  0.00  0.00    +0.025 A 
ENDBRANCH   6   8
ENDBRANCH   4   5
ENDBRANCH   3   4
BRANCH  16  17
ATOM     17  N   UNL     1      -1.861  -1.502  25.226  0.00  0.00    -0.216 NA
BRANCH  17  18
ATOM     18  C   UNL     1      -2.570  -1.836  24.966  0.00  0.00    +0.073 C 
ATOM     19  C   UNL     1      -2.656  -2.359  24.333  0.00  0.00    +0.017 C 
ATOM     20  C   UNL     1      -3.455  -2.553  24.269  0.00  0.00    +0.001 C 
ATOM     21  C   UNL     1      -3.863  -2.151  24.863  0.00  0.00    +0.001 C 
ATOM     22  C   UNL     1      -3.316  -1.708  25.294  0.00  0.00    +0.017 C 
ENDBRANCH  17  18
ENDBRANCH  16  17
TORSDOF 5
ENDMDL
MODEL 4
REMARK VINA RESULT:      -9.6      1.539      5.434
REMARK  Name = 
REMARK  5 active torsions:
REMARK  status: ('A' for Active; 'I' for Inactive)
REMARK    1  A    between atoms: C_3  and  C_4
REMARK    2  A    between atoms: C_4  and  N_5
REMARK    3  A    between atoms: C_6  and  C_8
REMARK    4  A    between atoms: C_16  and  N_17
REMARK    5  A    between atoms: N_17  and  C_18
REMARK                            x       y       z     vdW  Elec       q    Type
REMARK                         _______ _______ _______ _____ _____    ______ ____
ROOT
ATOM      1  O   UNL     1      -0.530   1.335  25.832  0.00  0.00    -0.219 OA
ATOM      2  C   UNL     1      -1.214   1.586  25.446  0.00  0.00    +0.199 C 
ATOM      3  C   UNL     1      -1.718   1.113  24.993  0.00  0.00    +0.169 C 
ATOM     14  O   UNL     1      -2.330   1.590  24.712  0.00  0.00    -0.350 OA
ATOM     15  C   UNL     1      -2.204   2.356  24.990  0.00  0.00    +0.162 C 
ATOM     16  C   UNL     1      -1.516   2.354  25.443  0.00  0.00    +0.135 C 
ENDROOT
BRANCH   3   4
ATOM      4  C   UNL     1      -1.625   0.307  24.849  0.00  0.00    +0.148 C 
BRANCH   4   5
ATOM      5  N   UNL     1      -2.289  -0.174  24.758  0.00  0.00    -0.199 NA
ATOM      6  C   UNL     1      -2.197  -0.971  24.565  0.00  0.00    +0.265 C 
ATOM      7  O   UNL     1      -1.442  -1.286  24.462  0.00  0.00    -0.268 OA
BRANCH   6   8
ATOM      8  C   UNL     1      -2.861  -1.453  24.474  0.00  0.00    +0.058 A 
ATOM      9  C   UNL     1      -3.493  -1.200  24.008  0.00  0.00    +0.025 A 
ATOM     10  C   UNL     1      -4.157  -1.682  23.917  0.00  0.00    +0.099 A 
ATOM     11  N   UNL     1      -4.188  -2.416  24.293  0.00  0.00    -0.242 NA
ATOM     12  C   UNL     1      -3.557  -2.668  24.758  0.00  0.00    +0.099 A 
ATOM     13  C   UNL     1      -2.893  -2.187  24.849  0.00  0.00    +0.025 A 
ENDBRANCH   6   8
ENDBRANCH   4   5
ENDBRANCH   3   4
BRANCH  16  17
ATOM     17  N   UNL     1      -1.185   3.006  25.827  0.00  0.00    -0.216 NA
BRANCH  17  18
ATOM     18  C   UNL     1      -1.301   3.764  25.525  0.00  0.00    +0.073 C 
ATOM     19  C   UNL     1      -1.951   4.251  25.674  0.00  0.00    +0.017 C 
ATOM     20  C   UNL     1      -1.840   4.957  25.262  0.00  0.00    +0.001 C 
ATOM     21  C   UNL     1      -1.122   4.908  24.859  0.00  0.00    +0.001 C 
ATOM     22  C   UNL     1      -0.789   4.170  25.021  0.00  0.00    +0.017 C 
ENDBRANCH  17  18
ENDBRANCH  16  17
TORSDOF 5
ENDMDL
MODEL 5
REMARK VINA RESULT:      -8.2     16.053     18.535
REMARK  Name = 
REMARK  5 active torsions:
REMARK  status: ('A' for Active; 'I' for Inactive)
REMARK    1  A    between atoms: C_3  and  C_4
REMARK    2  A    between atoms: C_4  and  N_5
REMARK    3  A    between atoms: C_6  and  C_8
REMARK    4  A    between atoms: C_16  and  N_17
REMARK    5  A    between atoms: N_17  and  C_18
REMARK                            x       y       z     vdW  Elec       q    Type
REMARK                         _______ _______ _______ _____ _____    ______ ____
ROOT
ATOM      1  O   UNL     1      12.011   7.539  19.001  0.00  0.00    -0.219 OA
ATOM      2  C   UNL     1      12.306   7.278  19.726  0.00  0.00    +0.199 C 
ATOM      3  C   UNL     1      13.081   7.036  19.875  0.00  0.00    +0.169 C 
ATOM     14  O   UNL     1      13.132   6.822  20.670  0.00  0.00    -0.350 OA
ATOM     15  C   UNL     1      12.389   6.931  21.012  0.00  0.00    +0.162 C 
ATOM     16  C   UNL     1      11.879   7.213  20.429  0.00  0.00    +0.135 C 
ENDROOT
BRANCH   3   4
ATOM      4  C   UNL     1      13.696   7.012  19.326  0.00  0.00    +0.148 C 
BRANCH   4   5
ATOM      5  N   UNL     1      14.465   6.852  19.576  0.00  0.00    -0.199 NA
ATOM      6  C   UNL     1      15.096   6.940  19.051  0.00  0.00    +0.265 C 
ATOM      7  O   UNL     1      14.956   7.187  18.276  0.00  0.00    -0.268 OA
BRANCH   6   8
ATOM      8  C   UNL     1      15.866   6.780  19.300  0.00  0.00    +0.058 A 
ATOM      9  C   UNL     1      16.268   6.123  19.003  0.00  0.00    +0.025 A 
ATOM     10  C   UNL     1      17.038   5.963  19.253  0.00  0.00    +0.099 A 
ATOM     11  N   UNL     1      17.405   6.459  19.800  0.00  0.00    -0.242 NA
ATOM     12  C   UNL     1      17.004   7.115  20.097  0.00  0.00    +0.099 A 
ATOM     13  C   UNL     1      16.234   7.275  19.847  0.00  0.00    +0.025 A 
ENDBRANCH   6   8
ENDBRANCH   4   5
ENDBRANCH   3   4
BRANCH  16  17
ATOM     17  N   UNL     1      11.081   7.399  20.530  0.00  0.00    -0.216 NA
BRANCH  17  18
ATOM     18  C   UNL     1      10.828   7.763  21.225  0.00  0.00    +0.073 C 
ATOM     19  C   UNL     1      10.798   8.577  21.363  0.00  0.00    +0.017 C 
ATOM     20  C   UNL     1      10.512   8.696  22.127  0.00  0.00    +0.001 C 
ATOM     21  C   UNL     1      10.365   7.956  22.463  0.00  0.00    +0.001 C 
ATOM     22  C   UNL     1      10.561   7.380  21.905  0.00  0.00    +0.017 C 
ENDBRANCH  17  18
ENDBRANCH  16  17
TORSDOF 5
ENDMDL
MODEL 6
REMARK VINA RESULT:      -8.1     16.077     18.648
REMARK  Name = 
REMARK  5 active torsions:
REMARK  status: ('A' for Active; 'I' for Inactive)
REMARK    1  A    between atoms: C_3  and  C_4
REMARK    2  A    between atoms: C_4  and  N_5
REMARK    3  A    between atoms: C_6  and  C_8
REMARK    4  A    between atoms: C_16  and  N_17
REMARK    5  A    between atoms: N_17  and  C_18
REMARK                            x       y       z     vdW  Elec       q    Type
REMARK                         _______ _______ _______ _____ _____    ______ ____
ROOT
ATOM      1  O   UNL     1      13.926   7.577  18.388  0.00  0.00    -0.219 OA
ATOM      2  C   UNL     1      14.089   7.231  19.119  0.00  0.00    +0.199 C 
ATOM      3  C   UNL     1      13.545   7.099  19.726  0.00  0.00    +0.169 C 
ATOM     14  O   UNL     1      13.944   6.743  20.353  0.00  0.00    -0.350 OA
ATOM     15  C   UNL     1      14.735   6.655  20.135  0.00  0.00    +0.162 C 
ATOM     16  C   UNL     1      14.824   6.956  19.372  0.00  0.00    +0.135 C 
ENDROOT
BRANCH   3   4
ATOM      4  C   UNL     1      12.743   7.290  19.707  0.00  0.00    +0.148 C 
BRANCH   4   5
ATOM      5  N   UNL     1      12.357   7.514  20.401  0.00  0.00    -0.199 NA
ATOM      6  C   UNL     1      11.559   7.727  20.379  0.00  0.00    +0.265 C 
ATOM      7  O   UNL     1      11.150   7.715  19.663  0.00  0.00    -0.268 OA
BRANCH   6   8
ATOM      8  C   UNL     1      11.173   7.951  21.072  0.00  0.00    +0.058 A 
ATOM      9  C   UNL     1      10.804   7.381  21.541  0.00  0.00    +0.025 A 
ATOM     10  C   UNL     1      10.417   7.605  22.235  0.00  0.00    +0.099 A 
ATOM     11  N   UNL     1      10.400   8.399  22.459  0.00  0.00    -0.242 NA
ATOM     12  C   UNL     1      10.769   8.968  21.991  0.00  0.00    +0.099 A 
ATOM     13  C   UNL     1      11.155   8.744  21.297  0.00  0.00    +0.025 A 
ENDBRANCH   6   8
ENDBRANCH   4   5
ENDBRANCH   3   4
BRANCH  16  17
ATOM     17  N   UNL     1      15.526   6.979  18.939  0.00  0.00    -0.216 NA
BRANCH  17  18
ATOM     18  C   UNL     1      16.235   6.744  19.289  0.00  0.00    +0.073 C 
ATOM     19  C   UNL     1      16.626   6.028  19.161  0.00  0.00    +0.017 C 
ATOM     20  C   UNL     1      17.310   6.025  19.622  0.00  0.00    +0.001 C 
ATOM     21  C   UNL     1      17.342   6.738  20.036  0.00  0.00    +0.001 C 
ATOM     22  C   UNL     1      16.677   7.183  19.830  0.00  0.00    +0.017 C 
ENDBRANCH  17  18
ENDBRANCH  16  17
TORSDOF 5
ENDMDL
MODEL 7
REMARK VINA RESULT:      -7.6     17.574     19.211
REMARK  Name = 
REMARK  5 active torsions:
REMARK  status: ('A' for Active; 'I' for Inactive)
REMARK    1  A    between atoms: C_3  and  C_4
REMARK    2  A    between atoms: C_4  and  N_5
REMARK    3  A    between atoms: C_6  and  C_8
REMARK    4  A    between atoms: C_16  and  N_17
REMARK    5  A    between atoms: N_17  and  C_18
REMARK                            x       y       z     vdW  Elec       q    Type
REMARK                         _______ _______ _______ _____ _____    ______ ____
ROOT
ATOM      1  O   UNL     1      13.386   6.901  20.373  0.00  0.00    -0.219 OA
ATOM      2  C   UNL     1      13.832   7.108  19.711  0.00  0.00    +0.199 C 
ATOM      3  C   UNL     1      13.568   7.552  19.067  0.00  0.00    +0.169 C 
ATOM     14  O   UNL     1      14.193   7.625  18.535  0.00  0.00    -0.350 OA
ATOM     15  C   UNL     1      14.843   7.226  18.849  0.00  0.00    +0.162 C 
ATOM     16  C   UNL     1      14.620   6.906  19.575  0.00  0.00    +0.135 C 
ENDROOT
BRANCH   3   4
ATOM      4  C   UNL     1      12.812   7.868  18.974  0.00  0.00    +0.148 C 
BRANCH   4   5
ATOM      5  N   UNL     1      12.523   8.029  18.218  0.00  0.00    -0.199 NA
ATOM      6  C   UNL     1      11.782   8.380  18.126  0.00  0.00    +0.265 C 
ATOM      7  O   UNL     1      11.330   8.570  18.790  0.00  0.00    -0.268 OA
BRANCH   6   8
ATOM      8  C   UNL     1      11.493   8.542  17.370  0.00  0.00    +0.058 A 
ATOM      9  C   UNL     1      11.969   8.932  16.821  0.00  0.00    +0.025 A 
ATOM     10  C   UNL     1      11.681   9.093  16.065  0.00  0.00    +0.099 A 
ATOM     11  N   UNL     1      10.915   8.864  15.859  0.00  0.00    -0.242 NA
ATOM     12  C   UNL     1      10.439   8.474  16.408  0.00  0.00    +0.099 A 
ATOM     13  C   UNL     1      10.728   8.313  17.163  0.00  0.00    +0.025 A 
ENDBRANCH   6   8
ENDBRANCH   4   5
ENDBRANCH   3   4
BRANCH  16  17
ATOM     17  N   UNL     1      15.101   6.463  20.079  0.00  0.00    -0.216 NA
BRANCH  17  18
ATOM     18  C   UNL     1      15.922   6.530  20.029  0.00  0.00    +0.073 C 
ATOM     19  C   UNL     1      16.408   6.140  19.489  0.00  0.00    +0.017 C 
ATOM     20  C   UNL     1      17.187   6.367  19.636  0.00  0.00    +0.001 C 
ATOM     21  C   UNL     1      17.183   6.898  20.268  0.00  0.00    +0.001 C 
ATOM     22  C   UNL     1      16.400   6.998  20.511  0.00  0.00    +0.017 C 
ENDBRANCH  17  18
ENDBRANCH  16  17
TORSDOF 5
ENDMDL
MODEL 8
REMARK VINA RESULT:      -6.8     15.822     18.269
REMARK  Name = 
REMARK  5 active torsions:
REMARK  status: ('A' for Active; 'I' for Inactive)
REMARK    1  A    between atoms: C_3  and  C_4
REMARK    2  A    between atoms: C_4  and  N_5
REMARK    3  A    between atoms: C_6  and  C_8
REMARK    4  A    between atoms: C_16  and  N_17
REMARK    5  A    between atoms: N_17  and  C_18
REMARK                            x       y       z     vdW  Elec       q    Type
REMARK                         _______ _______ _______ _____ _____    ______ ____
ROOT
ATOM      1  O   UNL     1      13.767   7.337  20.710  0.00  0.00    -0.219 OA
ATOM      2  C   UNL     1      13.063   7.184  20.307  0.00  0.00    +0.199 C 
ATOM      3  C   UNL     1      12.962   7.188  19.488  0.00  0.00    +0.169 C 
ATOM     14  O   UNL     1      12.174   7.006  19.328  0.00  0.00    -0.350 OA
ATOM     15  C   UNL     1      11.788   6.889  20.047  0.00  0.00    +0.162 C 
ATOM     16  C   UNL     1      12.337   6.999  20.652  0.00  0.00    +0.135 C 
ENDROOT
BRANCH   3   4
ATOM      4  C   UNL     1      13.547   7.346  18.929  0.00  0.00    +0.148 C 
BRANCH   4   5
ATOM      5  N   UNL     1      13.350   7.727  18.224  0.00  0.00    -0.199 NA
ATOM      6  C   UNL     1      13.941   7.921  17.681  0.00  0.00    +0.265 C 
ATOM      7  O   UNL     1      14.728   7.736  17.845  0.00  0.00    -0.268 OA
BRANCH   6   8
ATOM      8  C   UNL     1      13.745   8.301  16.976  0.00  0.00    +0.058 A 
ATOM      9  C   UNL     1      13.032   8.714  16.914  0.00  0.00    +0.025 A 
ATOM     10  C   UNL     1      12.836   9.094  16.209  0.00  0.00    +0.099 A 
ATOM     11  N   UNL     1      13.352   9.062  15.565  0.00  0.00    -0.242 NA
ATOM     12  C   UNL     1      14.064   8.650  15.627  0.00  0.00    +0.099 A 
ATOM     13  C   UNL     1      14.260   8.270  16.333  0.00  0.00    +0.025 A 
ENDBRANCH   6   8
ENDBRANCH   4   5
ENDBRANCH   3   4
BRANCH  16  17
ATOM     17  N   UNL     1      12.187   6.935  21.462  0.00  0.00    -0.216 NA
BRANCH  17  18
ATOM     18  C   UNL     1      11.499   7.260  21.780  0.00  0.00    +0.073 C 
ATOM     19  C   UNL     1      11.418   8.024  22.084  0.00  0.00    +0.017 C 
ATOM     20  C   UNL     1      10.641   8.115  22.342  0.00  0.00    +0.001 C 
ATOM     21  C   UNL     1      10.239   7.409  22.198  0.00  0.00    +0.001 C 
ATOM     22  C   UNL     1      10.770   6.880  21.850  0.00  0.00    +0.017 C 
ENDBRANCH  17  18
ENDBRANCH  16  17
TORSDOF 5
ENDMDL
MODEL 9
REMARK VINA RESULT:      -6.7     17.467     19.162
REMARK  Name = 
REMARK  5 active torsions:
REMARK  status: ('A' for Active; 'I' for Inactive)
REMARK    1  A    between atoms: C_3  and  C_4
REMARK    2  A    between atoms: C_4  and  N_5
REMARK    3  A    between atoms: C_6  and  C_8
REMARK    4  A    between atoms: C_16  and  N_17
REMARK    5  A    between atoms: N_17  and  C_18
REMARK                            x       y       z     vdW  Elec       q    Type
REMARK                         _______ _______ _______ _____ _____    ______ ____
ROOT
ATOM      1  O   UNL     1      11.866   6.985  19.182  0.00  0.00    -0.219 OA
ATOM      2  C   UNL     1      12.330   7.625  18.944  0.00  0.00    +0.199 C 
ATOM      3  C   UNL     1      13.123   7.747  19.136  0.00  0.00    +0.169 C 
ATOM     14  O   UNL     1      13.365   8.452  18.784  0.00  0.00    -0.350 OA
ATOM     15  C   UNL     1      12.721   8.766  18.374  0.00  0.00    +0.162 C 
ATOM     16  C   UNL     1      12.082   8.255  18.473  0.00  0.00    +0.135 C 
ENDROOT
BRANCH   3   4
ATOM      4  C   UNL     1      13.592   7.251  19.599  0.00  0.00    +0.148 C 
BRANCH   4   5
ATOM      5  N   UNL     1      14.408   7.231  19.486  0.00  0.00    -0.199 NA
ATOM      6  C   UNL     1      14.891   6.837  20.027  0.00  0.00    +0.265 C 
ATOM      7  O   UNL     1      14.556   6.463  20.682  0.00  0.00    -0.268 OA
BRANCH   6   8
ATOM      8  C   UNL     1      15.708   6.817  19.914  0.00  0.00    +0.058 A 
ATOM      9  C   UNL     1      16.172   7.460  20.142  0.00  0.00    +0.025 A 
ATOM     10  C   UNL     1      16.989   7.441  20.029  0.00  0.00    +0.099 A 
ATOM     11  N   UNL     1      17.341   6.778  19.687  0.00  0.00    -0.242 NA
ATOM     12  C   UNL     1      16.878   6.135  19.459  0.00  0.00    +0.099 A 
ATOM     13  C   UNL     1      16.061   6.155  19.572  0.00  0.00    +0.025 A 
ENDBRANCH   6   8
ENDBRANCH   4   5
ENDBRANCH   3   4
BRANCH  16  17
ATOM     17  N   UNL     1      11.326   8.356  18.157  0.00  0.00    -0.216 NA
BRANCH  17  18
ATOM     18  C   UNL     1      11.236   8.564  17.364  0.00  0.00    +0.073 C 
ATOM     19  C   UNL     1      10.605   8.352  16.875  0.00  0.00    +0.017 C 
ATOM     20  C   UNL     1      10.739   8.677  16.130  0.00  0.00    +0.001 C 
ATOM     21  C   UNL     1      11.454   9.089  16.156  0.00  0.00    +0.001 C 
ATOM     22  C   UNL     1      11.761   9.019  16.919  0.00  0.00    +0.017 C 
ENDBRANCH  17  18
ENDBRANCH  16  17
TORSDOF 5
ENDMDL
