MODEL 1
REMARK VINA RESULT:     -11.5      0.000      0.000
REMARK  Name = 
REMARK  8 active torsions:
REMARK  status: ('A' for Active; 'I' for Inactive)
REMARK    1  A    between atoms: C_2  and  C_4
REMARK    2  A    between atoms: C_6  and  C_7
REMARK    3  A    between atoms: C_7  and  C_8
REMARK    4  A    between atoms: C_11  and  C_12
REMARK    5  A    between atoms: C_12  and  O_13
REMARK    6  A    between atoms: O_13  and  C_14
REMARK    7  A    between atoms: C_25  and  C_26
REMARK    8  A    between atoms: C_26  and  N_27
REMARK                            x       y       z     vdW  Elec       q    Type
REMARK                         _______ _______ _______ _____ _____    ______ ____
ROOT
ATOM      4  C   UNL     1      -3.568   1.175  23.874  0.00  0.00    +0.006 C 
ATOM      5  C   UNL     1      -4.063   1.779  24.140  0.00  0.00    +0.005 C 
ATOM      6  C   UNL     1      -4.694   1.604  24.642  0.00  0.00    +0.027 C 
ATOM     22  C   UNL     1      -4.830   0.825  24.878  0.00  0.00    -0.048 C 
ATOM     23  C   UNL     1      -5.460   0.650  25.379  0.00  0.00    +0.026 C 
ATOM     24  C   UNL     1      -4.334   0.222  24.611  0.00  0.00    -0.034 C 
ATOM     25  C   UNL     1      -3.704   0.397  24.109  0.00  0.00    +0.037 C 
ENDROOT
BRANCH   4   2
ATOM      1  C   UNL     1      -3.081   1.541  22.581  0.00  0.00    +0.000 C 
ATOM      2  C   UNL     1      -2.938   1.351  23.372  0.00  0.00    +0.000 C 
ATOM      3  C   UNL     1      -2.166   1.338  23.659  0.00  0.00    +0.000 C 
ENDBRANCH   4   2
BRANCH   6   7
ATOM      7  C   UNL     1      -5.189   2.208  24.908  0.00  0.00    +0.091 C 
BRANCH   7   8
ATOM      8  C   UNL     1      -4.881   2.824  25.361  0.00  0.00    +0.227 A 
ATOM      9  N   UNL     1      -5.177   3.090  26.084  0.00  0.00    -0.112 NA
ATOM     10  N   UNL     1      -4.702   3.714  26.340  0.00  0.00    -0.108 NA
ATOM     11  C   UNL     1      -4.113   3.834  25.775  0.00  0.00    +0.270 A 
ATOM     21  O   UNL     1      -4.224   3.284  25.170  0.00  0.00    -0.420 OA
BRANCH  11  12
ATOM     12  C   UNL     1      -3.517   4.404  25.809  0.00  0.00    +0.291 C 
BRANCH  12  13
ATOM     13  O   UNL     1      -2.762   4.196  26.068  0.00  0.00    -0.465 OA
BRANCH  13  14
ATOM     14  C   UNL     1      -2.096   4.473  25.667  0.00  0.00    +0.139 A 
ATOM     15  C   UNL     1      -2.081   5.244  25.374  0.00  0.00    +0.039 A 
ATOM     16  C   UNL     1      -1.415   5.520  24.973  0.00  0.00    +0.033 A 
ATOM     17  C   UNL     1      -0.764   5.025  24.865  0.00  0.00    +0.140 A 
ATOM     18  F   UNL     1      -0.098   5.301  24.464  0.00  0.00    -0.204 F 
ATOM     19  C   UNL     1      -0.779   4.254  25.158  0.00  0.00    +0.033 A 
ATOM     20  C   UNL     1      -1.445   3.977  25.559  0.00  0.00    +0.039 A 
ENDBRANCH  13  14
ENDBRANCH  12  13
ENDBRANCH  11  12
ENDBRANCH   7   8
ENDBRANCH   6   7
BRANCH  25  26
ATOM     26  C   UNL     1      -3.209  -0.207  23.843  0.00  0.00    +0.076 C 
BRANCH  26  27
ATOM     27  N   UNL     1      -3.314  -0.978  24.117  0.00  0.00    -0.270 NA
ATOM     28  C   UNL     1      -2.875  -1.250  24.761  0.00  0.00    +0.090 C 
ATOM     29  C   UNL     1      -2.980  -2.021  25.035  0.00  0.00    +0.090 C 
ATOM     30  N   UNL     1      -3.524  -2.520  24.666  0.00  0.00    -0.269 NA
ATOM     31  C   UNL     1      -3.629  -3.290  24.939  0.00  0.00    +0.090 C 
ATOM     32  C   UNL     1      -3.963  -2.248  24.022  0.00  0.00    +0.090 C 
ATOM     33  C   UNL     1      -3.857  -1.477  23.748  0.00  0.00    +0.090 C 
ENDBRANCH  26  27
ENDBRANCH  25  26
TORSDOF 8
ENDMDL
MODEL 2
REMARK VINA RESULT:     -11.3      2.613      5.377
REMARK  Name = 
REMARK  8 active torsions:
REMARK  status: ('A' for Active; 'I' for Inactive)
REMARK    1  A    between atoms: C_2  and  C_4
REMARK    2  A    between atoms: C_6  and  C_7
REMARK    3  A    between atoms: C_7  and  C_8
REMARK    4  A    between atoms: C_11  and  C_12
REMARK    5  A    between atoms: C_12  and  O_13
REMARK    6  A    between atoms: O_13  and  C_14
REMARK    7  A    between atoms: C_25  and  C_26
REMARK    8  A    between atoms: C_26  and  N_27
REMARK                            x       y       z     vdW  Elec       q    Type
REMARK                         _______ _______ _______ _____ _____    ______ ____
ROOT
ATOM      4  C   UNL     1      -2.375   2.142  23.408  0.00  0.00    +0.006 C 
ATOM      5  C   UNL     1      -1.631   1.830  23.579  0.00  0.00    +0.005 C 
ATOM      6  C   UNL     1      -1.290   1.959  24.320  0.00  0.00    +0.027 C 
ATOM     22  C   UNL     1      -1.694   2.400  24.888  0.00  0.00    -0.048 C 
ATOM     23  C   UNL     1      -1.354   2.529  25.628  0.00  0.00    +0.026 C 
ATOM     24  C   UNL     1      -2.439   2.711  24.716  0.00  0.00    -0.034 C 
ATOM     25  C   UNL     1      -2.779   2.582  23.976  0.00  0.00    +0.037 C 
ENDROOT
BRANCH   4   2
ATOM      1  C   UNL     1      -2.667   2.595  22.084  0.00  0.00    +0.000 C 
ATOM      2  C   UNL     1      -2.715   2.012  22.667  0.00  0.00    +0.000 C 
ATOM      3  C   UNL     1      -3.102   1.302  22.509  0.00  0.00    +0.000 C 
ENDBRANCH   4   2
BRANCH   6   7
ATOM      7  C   UNL     1      -0.546   1.648  24.491  0.00  0.00    +0.091 C 
BRANCH   7   8
ATOM      8  C   UNL     1      -0.402   0.843  24.386  0.00  0.00    +0.227 A 
ATOM      9  N   UNL     1       0.229   0.514  23.966  0.00  0.00    -0.112 NA
ATOM     10  N   UNL     1       0.158  -0.307  24.003  0.00  0.00    -0.108 NA
ATOM     11  C   UNL     1      -0.515  -0.486  24.445  0.00  0.00    +0.270 A 
ATOM     21  O   UNL     1      -0.861   0.225  24.682  0.00  0.00    -0.420 OA
BRANCH  11  12
ATOM     12  C   UNL     1      -0.794  -1.242  24.621  0.00  0.00    +0.291 C 
BRANCH  12  13
ATOM     13  O   UNL     1      -1.420  -1.339  25.150  0.00  0.00    -0.465 OA
BRANCH  13  14
ATOM     14  C   UNL     1      -2.060  -1.819  24.950  0.00  0.00    +0.139 A 
ATOM     15  C   UNL     1      -1.936  -2.521  24.536  0.00  0.00    +0.039 A 
ATOM     16  C   UNL     1      -2.577  -3.002  24.337  0.00  0.00    +0.033 A 
ATOM     17  C   UNL     1      -3.341  -2.779  24.553  0.00  0.00    +0.140 A 
ATOM     18  F   UNL     1      -3.982  -3.259  24.354  0.00  0.00    -0.204 F 
ATOM     19  C   UNL     1      -3.466  -2.077  24.968  0.00  0.00    +0.033 A 
ATOM     20  C   UNL     1      -2.825  -1.596  25.167  0.00  0.00    +0.039 A 
ENDBRANCH  13  14
ENDBRANCH  12  13
ENDBRANCH  11  12
ENDBRANCH   7   8
ENDBRANCH   6   7
BRANCH  25  26
ATOM     26  C   UNL     1      -3.523   2.893  23.804  0.00  0.00    +0.076 C 
BRANCH  26  27
ATOM     27  N   UNL     1      -4.098   2.937  24.395  0.00  0.00    -0.270 NA
ATOM     28  C   UNL     1      -4.224   3.648  24.796  0.00  0.00    +0.090 C 
ATOM     29  C   UNL     1      -4.799   3.691  25.386  0.00  0.00    +0.090 C 
ATOM     30  N   UNL     1      -5.248   3.025  25.575  0.00  0.00    -0.269 NA
ATOM     31  C   UNL     1      -5.822   3.068  26.165  0.00  0.00    +0.090 C 
ATOM     32  C   UNL     1      -5.121   2.315  25.174  0.00  0.00    +0.090 C 
ATOM     33  C   UNL     1      -4.547   2.272  24.584  0.00  0.00    +0.090 C 
ENDBRANCH  26  27
ENDBRANCH  25  26
TORSDOF 8
ENDMDL
MODEL 3
REMARK VINA RESULT:     -11.0      1.429      2.368
REMARK  Name = 
REMARK  8 active torsions:
REMARK  status: ('A' for Active; 'I' for Inactive)
REMARK    1  A    between atoms: C_2  and  C_4
REMARK    2  A    between atoms: C_6  and  C_7
REMARK    3  A    between atoms: C_7  and  C_8
REMARK    4  A    between atoms: C_11  and  C_12
REMARK    5  A    between atoms: C_12  and  O_13
REMARK    6  A    between atoms: O_13  and  C_14
REMARK    7  A    between atoms: C_25  and  C_26
REMARK    8  A    between atoms: C_26  and  N_27
REMARK                            x       y       z     vdW  Elec       q    Type
REMARK                         _______ _______ _______ _____ _____    ______ ____
ROOT
ATOM      4  C   UNL     1      -3.381  -0.596  25.168  0.00  0.00    +0.006 C 
ATOM      5  C   UNL     1      -4.014  -0.074  25.090  0.00  0.00    +0.005 C 
ATOM      6  C   UNL     1      -4.019   0.480  24.478  0.00  0.00    +0.027 C 
ATOM     22  C   UNL     1      -3.391   0.510  23.943  0.00  0.00    -0.048 C 
ATOM     23  C   UNL     1      -3.396   1.062  23.332  0.00  0.00    +0.026 C 
ATOM     24  C   UNL     1      -2.758  -0.014  24.022  0.00  0.00    -0.034 C 
ATOM     25  C   UNL     1      -2.753  -0.567  24.634  0.00  0.00    +0.037 C 
ENDROOT
BRANCH   4   2
ATOM      1  C   UNL     1      -3.615  -1.926  25.636  0.00  0.00    +0.000 C 
ATOM      2  C   UNL     1      -3.377  -1.149  25.780  0.00  0.00    +0.000 C 
ATOM      3  C   UNL     1      -3.135  -0.926  26.536  0.00  0.00    +0.000 C 
ENDBRANCH   4   2
BRANCH   6   7
ATOM      7  C   UNL     1      -4.652   1.003  24.400  0.00  0.00    +0.091 C 
BRANCH   7   8
ATOM      8  C   UNL     1      -4.682   1.686  24.860  0.00  0.00    +0.227 A 
ATOM      9  N   UNL     1      -5.285   1.891  25.386  0.00  0.00    -0.112 NA
ATOM     10  N   UNL     1      -5.090   2.617  25.726  0.00  0.00    -0.108 NA
ATOM     11  C   UNL     1      -4.367   2.860  25.412  0.00  0.00    +0.270 A 
ATOM     21  O   UNL     1      -4.115   2.285  24.876  0.00  0.00    -0.420 OA
BRANCH  11  12
ATOM     12  C   UNL     1      -3.966   3.556  25.599  0.00  0.00    +0.291 C 
BRANCH  12  13
ATOM     13  O   UNL     1      -3.242   3.522  25.993  0.00  0.00    -0.465 OA
BRANCH  13  14
ATOM     14  C   UNL     1      -2.608   3.981  25.734  0.00  0.00    +0.139 A 
ATOM     15  C   UNL     1      -2.712   4.786  25.591  0.00  0.00    +0.039 A 
ATOM     16  C   UNL     1      -2.076   5.245  25.331  0.00  0.00    +0.033 A 
ATOM     17  C   UNL     1      -1.338   4.898  25.216  0.00  0.00    +0.140 A 
ATOM     18  F   UNL     1      -0.702   5.356  24.957  0.00  0.00    -0.204 F 
ATOM     19  C   UNL     1      -1.233   4.092  25.359  0.00  0.00    +0.033 A 
ATOM     20  C   UNL     1      -1.868   3.633  25.619  0.00  0.00    +0.039 A 
ENDBRANCH  13  14
ENDBRANCH  12  13
ENDBRANCH  11  12
ENDBRANCH   7   8
ENDBRANCH   6   7
BRANCH  25  26
ATOM     26  C   UNL     1      -2.121  -1.090  24.712  0.00  0.00    +0.076 C 
BRANCH  26  27
ATOM     27  N   UNL     1      -1.378  -0.887  24.413  0.00  0.00    -0.270 NA
ATOM     28  C   UNL     1      -0.919  -0.321  24.800  0.00  0.00    +0.090 C 
ATOM     29  C   UNL     1      -0.177  -0.118  24.501  0.00  0.00    +0.090 C 
ATOM     30  N   UNL     1       0.106  -0.482  23.816  0.00  0.00    -0.269 NA
ATOM     31  C   UNL     1       0.847  -0.279  23.518  0.00  0.00    +0.090 C 
ATOM     32  C   UNL     1      -0.354  -1.048  23.430  0.00  0.00    +0.090 C 
ATOM     33  C   UNL     1      -1.096  -1.250  23.729  0.00  0.00    +0.090 C 
ENDBRANCH  26  27
ENDBRANCH  25  26
TORSDOF 8
ENDMDL
MODEL 4
REMARK VINA RESULT:     -10.7      2.448      5.063
REMARK  Name = 
REMARK  8 active torsions:
REMARK  status: ('A' for Active; 'I' for Inactive)
REMARK    1  A    between atoms: C_2  and  C_4
REMARK    2  A    between atoms: C_6  and  C_7
REMARK    3  A    between atoms: C_7  and  C_8
REMARK    4  A    between atoms: C_11  and  C_12
REMARK    5  A    between atoms: C_12  and  O_13
REMARK    6  A    between atoms: O_13  and  C_14
REMARK    7  A    between atoms: C_25  and  C_26
REMARK    8  A    between atoms: C_26  and  N_27
REMARK                            x       y       z     vdW  Elec       q    Type
REMARK                         _______ _______ _______ _____ _____    ______ ____
ROOT
ATOM      4  C   UNL     1      -2.941   3.671  25.354  0.00  0.00    +0.006 C 
ATOM      5  C   UNL     1      -3.705   3.435  25.151  0.00  0.00    +0.005 C 
ATOM      6  C   UNL     1      -3.843   3.060  24.429  0.00  0.00    +0.027 C 
ATOM     22  C   UNL     1      -3.216   2.921  23.910  0.00  0.00    -0.048 C 
ATOM     23  C   UNL     1      -3.354   2.547  23.189  0.00  0.00    +0.026 C 
ATOM     24  C   UNL     1      -2.452   3.158  24.114  0.00  0.00    -0.034 C 
ATOM     25  C   UNL     1      -2.315   3.532  24.835  0.00  0.00    +0.037 C 
ENDROOT
BRANCH   4   2
ATOM      1  C   UNL     1      -2.680   4.862  26.100  0.00  0.00    +0.000 C 
ATOM      2  C   UNL     1      -2.804   4.046  26.076  0.00  0.00    +0.000 C 
ATOM      3  C   UNL     1      -2.791   3.606  26.773  0.00  0.00    +0.000 C 
ENDBRANCH   4   2
BRANCH   6   7
ATOM      7  C   UNL     1      -4.607   2.825  24.226  0.00  0.00    +0.091 C 
BRANCH   7   8
ATOM      8  C   UNL     1      -4.920   2.128  24.536  0.00  0.00    +0.227 A 
ATOM      9  N   UNL     1      -5.617   2.062  24.973  0.00  0.00    -0.112 NA
ATOM     10  N   UNL     1      -5.719   1.267  25.171  0.00  0.00    -0.108 NA
ATOM     11  C   UNL     1      -5.085   0.843  24.856  0.00  0.00    +0.270 A 
ATOM     21  O   UNL     1      -4.592   1.375  24.463  0.00  0.00    -0.420 OA
BRANCH  11  12
ATOM     12  C   UNL     1      -4.966   0.029  24.922  0.00  0.00    +0.291 C 
BRANCH  12  13
ATOM     13  O   UNL     1      -4.203  -0.270  25.011  0.00  0.00    -0.465 OA
BRANCH  13  14
ATOM     14  C   UNL     1      -4.043  -1.058  24.828  0.00  0.00    +0.139 A 
ATOM     15  C   UNL     1      -4.312  -1.380  24.118  0.00  0.00    +0.039 A 
ATOM     16  C   UNL     1      -4.151  -2.169  23.935  0.00  0.00    +0.033 A 
ATOM     17  C   UNL     1      -3.722  -2.635  24.463  0.00  0.00    +0.140 A 
ATOM     18  F   UNL     1      -3.562  -3.424  24.280  0.00  0.00    -0.204 F 
ATOM     19  C   UNL     1      -3.453  -2.314  25.173  0.00  0.00    +0.033 A 
ATOM     20  C   UNL     1      -3.613  -1.525  25.356  0.00  0.00    +0.039 A 
ENDBRANCH  13  14
ENDBRANCH  12  13
ENDBRANCH  11  12
ENDBRANCH   7   8
ENDBRANCH   6   7
BRANCH  25  26
ATOM     26  C   UNL     1      -1.551   3.768  25.039  0.00  0.00    +0.076 C 
BRANCH  26  27
ATOM     27  N   UNL     1      -0.904   3.301  24.824  0.00  0.00    -0.270 NA
ATOM     28  C   UNL     1      -0.459   3.496  24.158  0.00  0.00    +0.090 C 
ATOM     29  C   UNL     1       0.187   3.030  23.943  0.00  0.00    +0.090 C 
ATOM     30  N   UNL     1       0.388   2.369  24.396  0.00  0.00    -0.269 NA
ATOM     31  C   UNL     1       1.034   1.904  24.182  0.00  0.00    +0.090 C 
ATOM     32  C   UNL     1      -0.058   2.176  25.062  0.00  0.00    +0.090 C 
ATOM     33  C   UNL     1      -0.704   2.642  25.276  0.00  0.00    +0.090 C 
ENDBRANCH  26  27
ENDBRANCH  25  26
TORSDOF 8
ENDMDL
MODEL 5
REMARK VINA RESULT:     -10.4      3.253      5.095
REMARK  Name = 
REMARK  8 active torsions:
REMARK  status: ('A' for Active; 'I' for Inactive)
REMARK    1  A    between atoms: C_2  and  C_4
REMARK    2  A    between atoms: C_6  and  C_7
REMARK    3  A    between atoms: C_7  and  C_8
REMARK    4  A    between atoms: C_11  and  C_12
REMARK    5  A    between atoms: C_12  and  O_13
REMARK    6  A    between atoms: O_13  and  C_14
REMARK    7  A    between atoms: C_25  and  C_26
REMARK    8  A    between atoms: C_26  and  N_27
REMARK                            x       y       z     vdW  Elec       q    Type
REMARK                         _______ _______ _______ _____ _____    ______ ____
ROOT
ATOM      4  C   UNL     1      -3.198  -0.059  24.664  0.00  0.00    +0.006 C 
ATOM      5  C   UNL     1      -2.426  -0.245  24.888  0.00  0.00    +0.005 C 
ATOM      6  C   UNL     1      -1.913   0.354  25.135  0.00  0.00    +0.027 C 
ATOM     22  C   UNL     1      -2.173   1.136  25.158  0.00  0.00    -0.048 C 
ATOM     23  C   UNL     1      -1.661   1.734  25.405  0.00  0.00    +0.026 C 
ATOM     24  C   UNL     1      -2.946   1.321  24.934  0.00  0.00    -0.034 C 
ATOM     25  C   UNL     1      -3.458   0.724  24.687  0.00  0.00    +0.037 C 
ENDROOT
BRANCH   4   2
ATOM      1  C   UNL     1      -4.054  -1.161  24.974  0.00  0.00    +0.000 C 
ATOM      2  C   UNL     1      -3.709  -0.657  24.417  0.00  0.00    +0.000 C 
ATOM      3  C   UNL     1      -3.877  -0.752  23.616  0.00  0.00    +0.000 C 
ENDBRANCH   4   2
BRANCH   6   7
ATOM      7  C   UNL     1      -1.141   0.168  25.359  0.00  0.00    +0.091 C 
BRANCH   7   8
ATOM      8  C   UNL     1      -0.637  -0.208  24.827  0.00  0.00    +0.227 A 
ATOM      9  N   UNL     1      -0.535  -1.024  24.749  0.00  0.00    -0.112 NA
ATOM     10  N   UNL     1       0.020  -1.156  24.153  0.00  0.00    -0.108 NA
ATOM     11  C   UNL     1       0.261  -0.422  23.862  0.00  0.00    +0.270 A 
ATOM     21  O   UNL     1      -0.145   0.163  24.279  0.00  0.00    -0.420 OA
BRANCH  11  12
ATOM     12  C   UNL     1       0.811  -0.296  23.261  0.00  0.00    +0.291 C 
BRANCH  12  13
ATOM     13  O   UNL     1       1.220   0.420  23.220  0.00  0.00    -0.465 OA
BRANCH  13  14
ATOM     14  C   UNL     1       1.979   0.445  22.896  0.00  0.00    +0.139 A 
ATOM     15  C   UNL     1       2.559   0.920  23.237  0.00  0.00    +0.039 A 
ATOM     16  C   UNL     1       3.317   0.945  22.912  0.00  0.00    +0.033 A 
ATOM     17  C   UNL     1       3.494   0.493  22.245  0.00  0.00    +0.140 A 
ATOM     18  F   UNL     1       4.252   0.518  21.920  0.00  0.00    -0.204 F 
ATOM     19  C   UNL     1       2.914   0.017  21.903  0.00  0.00    +0.033 A 
ATOM     20  C   UNL     1       2.155  -0.007  22.228  0.00  0.00    +0.039 A 
ENDBRANCH  13  14
ENDBRANCH  12  13
ENDBRANCH  11  12
ENDBRANCH   7   8
ENDBRANCH   6   7
BRANCH  25  26
ATOM     26  C   UNL     1      -4.229   0.908  24.463  0.00  0.00    +0.076 C 
BRANCH  26  27
ATOM     27  N   UNL     1      -4.579   1.609  24.725  0.00  0.00    -0.270 NA
ATOM     28  C   UNL     1      -4.466   2.309  24.303  0.00  0.00    +0.090 C 
ATOM     29  C   UNL     1      -4.815   3.009  24.564  0.00  0.00    +0.090 C 
ATOM     30  N   UNL     1      -5.276   3.010  25.249  0.00  0.00    -0.269 NA
ATOM     31  C   UNL     1      -5.625   3.709  25.510  0.00  0.00    +0.090 C 
ATOM     32  C   UNL     1      -5.389   2.310  25.671  0.00  0.00    +0.090 C 
ATOM     33  C   UNL     1      -5.040   1.610  25.409  0.00  0.00    +0.090 C 
ENDBRANCH  26  27
ENDBRANCH  25  26
TORSDOF 8
ENDMDL
MODEL 6
REMARK VINA RESULT:     -10.2      2.823      4.995
REMARK  Name = 
REMARK  8 active torsions:
REMARK  status: ('A' for Active; 'I' for Inactive)
REMARK    1  A    between atoms: C_2  and  C_4
REMARK    2  A    between atoms: C_6  and  C_7
REMARK    3  A    between atoms: C_7  and  C_8
REMARK    4  A    between atoms: C_11  and  C_12
REMARK    5  A    between atoms: C_12  and  O_13
REMARK    6  A    between atoms: O_13  and  C_14
REMARK    7  A    between atoms: C_25  and  C_26
REMARK    8  A    between atoms: C_26  and  N_27
REMARK                            x       y       z     vdW  Elec       q    Type
REMARK                         _______ _______ _______ _____ _____    ______ ____
ROOT
ATOM      4  C   UNL     1      -1.074   2.075  25.042  0.00  0.00    +0.006 C 
ATOM      5  C   UNL     1      -1.862   2.287  24.921  0.00  0.00    +0.005 C 
ATOM      6  C   UNL     1      -2.175   2.289  24.157  0.00  0.00    +0.027 C 
ATOM     22  C   UNL     1      -1.700   2.080  23.516  0.00  0.00    -0.048 C 
ATOM     23  C   UNL     1      -2.013   2.083  22.753  0.00  0.00    +0.026 C 
ATOM     24  C   UNL     1      -0.912   1.869  23.638  0.00  0.00    -0.034 C 
ATOM     25  C   UNL     1      -0.599   1.866  24.401  0.00  0.00    +0.037 C 
ENDROOT
BRANCH   4   2
ATOM      1  C   UNL     1      -0.805   1.389  26.267  0.00  0.00    +0.000 C 
ATOM      2  C   UNL     1      -0.761   2.073  25.805  0.00  0.00    +0.000 C 
ATOM      3  C   UNL     1      -0.406   2.752  26.108  0.00  0.00    +0.000 C 
ENDBRANCH   4   2
BRANCH   6   7
ATOM      7  C   UNL     1      -2.963   2.501  24.036  0.00  0.00    +0.091 C 
BRANCH   7   8
ATOM      8  C   UNL     1      -3.568   2.017  24.317  0.00  0.00    +0.227 A 
ATOM      9  N   UNL     1      -4.229   2.266  24.744  0.00  0.00    -0.112 NA
ATOM     10  N   UNL     1      -4.689   1.602  24.911  0.00  0.00    -0.108 NA
ATOM     11  C   UNL     1      -4.312   0.943  24.588  0.00  0.00    +0.270 A 
ATOM     21  O   UNL     1      -3.620   1.200  24.220  0.00  0.00    -0.420 OA
BRANCH  11  12
ATOM     12  C   UNL     1      -4.581   0.164  24.625  0.00  0.00    +0.291 C 
BRANCH  12  13
ATOM     13  O   UNL     1      -4.224  -0.372  25.142  0.00  0.00    -0.465 OA
BRANCH  13  14
ATOM     14  C   UNL     1      -4.049  -1.137  24.888  0.00  0.00    +0.139 A 
ATOM     15  C   UNL     1      -4.392  -1.433  24.200  0.00  0.00    +0.039 A 
ATOM     16  C   UNL     1      -4.216  -2.199  23.947  0.00  0.00    +0.033 A 
ATOM     17  C   UNL     1      -3.697  -2.667  24.384  0.00  0.00    +0.140 A 
ATOM     18  F   UNL     1      -3.521  -3.433  24.131  0.00  0.00    -0.204 F 
ATOM     19  C   UNL     1      -3.353  -2.372  25.073  0.00  0.00    +0.033 A 
ATOM     20  C   UNL     1      -3.529  -1.606  25.326  0.00  0.00    +0.039 A 
ENDBRANCH  13  14
ENDBRANCH  12  13
ENDBRANCH  11  12
ENDBRANCH   7   8
ENDBRANCH   6   7
BRANCH  25  26
ATOM     26  C   UNL     1       0.189   1.654  24.523  0.00  0.00    +0.076 C 
BRANCH  26  27
ATOM     27  N   UNL     1       0.571   1.159  23.984  0.00  0.00    -0.270 NA
ATOM     28  C   UNL     1       0.307   0.384  23.877  0.00  0.00    +0.090 C 
ATOM     29  C   UNL     1       0.689  -0.111  23.339  0.00  0.00    +0.090 C 
ATOM     30  N   UNL     1       1.335   0.169  22.908  0.00  0.00    -0.269 NA
ATOM     31  C   UNL     1       1.717  -0.326  22.370  0.00  0.00    +0.090 C 
ATOM     32  C   UNL     1       1.598   0.943  23.015  0.00  0.00    +0.090 C 
ATOM     33  C   UNL     1       1.216   1.438  23.553  0.00  0.00    +0.090 C 
ENDBRANCH  26  27
ENDBRANCH  25  26
TORSDOF 8
ENDMDL
MODEL 7
REMARK VINA RESULT:     -10.0      2.207      3.617
REMARK  Name = 
REMARK  8 active torsions:
REMARK  status: ('A' for Active; 'I' for Inactive)
REMARK    1  A    between atoms: C_2  and  C_4
REMARK    2  A    between atoms: C_6  and  C_7
REMARK    3  A    between atoms: C_7  and  C_8
REMARK    4  A    between atoms: C_11  and  C_12
REMARK    5  A    between atoms: C_12  and  O_13
REMARK    6  A    between atoms: O_13  and  C_14
REMARK    7  A    between atoms: C_25  and  C_26
REMARK    8  A    between atoms: C_26  and  N_27
REMARK                            x       y       z     vdW  Elec       q    Type
REMARK                         _______ _______ _______ _____ _____    ______ ____
ROOT
ATOM      4  C   UNL     1      -1.383   1.943  23.893  0.00  0.00    +0.006 C 
ATOM      5  C   UNL     1      -1.410   2.659  24.302  0.00  0.00    +0.005 C 
ATOM      6  C   UNL     1      -1.020   2.735  25.026  0.00  0.00    +0.027 C 
ATOM     22  C   UNL     1      -0.603   2.095  25.339  0.00  0.00    -0.048 C 
ATOM     23  C   UNL     1      -0.214   2.171  26.062  0.00  0.00    +0.026 C 
ATOM     24  C   UNL     1      -0.577   1.379  24.929  0.00  0.00    -0.034 C 
ATOM     25  C   UNL     1      -0.967   1.303  24.206  0.00  0.00    +0.037 C 
ENDROOT
BRANCH   4   2
ATOM      1  C   UNL     1      -2.555   1.603  23.149  0.00  0.00    +0.000 C 
ATOM      2  C   UNL     1      -1.773   1.868  23.170  0.00  0.00    +0.000 C 
ATOM      3  C   UNL     1      -1.383   2.057  22.469  0.00  0.00    +0.000 C 
ENDBRANCH   4   2
BRANCH   6   7
ATOM      7  C   UNL     1      -1.046   3.450  25.435  0.00  0.00    +0.091 C 
BRANCH   7   8
ATOM      8  C   UNL     1      -1.769   3.826  25.561  0.00  0.00    +0.227 A 
ATOM      9  N   UNL     1      -1.909   4.638  25.508  0.00  0.00    -0.112 NA
ATOM     10  N   UNL     1      -2.705   4.771  25.677  0.00  0.00    -0.108 NA
ATOM     11  C   UNL     1      -3.057   4.042  25.835  0.00  0.00    +0.270 A 
ATOM     21  O   UNL     1      -2.478   3.458  25.764  0.00  0.00    -0.420 OA
BRANCH  11  12
ATOM     12  C   UNL     1      -3.849   3.918  26.031  0.00  0.00    +0.291 C 
BRANCH  12  13
ATOM     13  O   UNL     1      -4.417   3.859  25.435  0.00  0.00    -0.465 OA
BRANCH  13  14
ATOM     14  C   UNL     1      -4.974   3.251  25.453  0.00  0.00    +0.139 A 
ATOM     15  C   UNL     1      -5.403   3.104  26.141  0.00  0.00    +0.039 A 
ATOM     16  C   UNL     1      -5.961   2.495  26.158  0.00  0.00    +0.033 A 
ATOM     17  C   UNL     1      -6.087   2.034  25.486  0.00  0.00    +0.140 A 
ATOM     18  F   UNL     1      -6.645   1.425  25.503  0.00  0.00    -0.204 F 
ATOM     19  C   UNL     1      -5.658   2.181  24.797  0.00  0.00    +0.033 A 
ATOM     20  C   UNL     1      -5.101   2.789  24.780  0.00  0.00    +0.039 A 
ENDBRANCH  13  14
ENDBRANCH  12  13
ENDBRANCH  11  12
ENDBRANCH   7   8
ENDBRANCH   6   7
BRANCH  25  26
ATOM     26  C   UNL     1      -0.940   0.589  23.797  0.00  0.00    +0.076 C 
BRANCH  26  27
ATOM     27  N   UNL     1      -0.812  -0.117  24.206  0.00  0.00    -0.270 NA
ATOM     28  C   UNL     1      -0.073  -0.485  24.172  0.00  0.00    +0.090 C 
ATOM     29  C   UNL     1       0.055  -1.190  24.581  0.00  0.00    +0.090 C 
ATOM     30  N   UNL     1      -0.554  -1.527  25.024  0.00  0.00    -0.269 NA
ATOM     31  C   UNL     1      -0.426  -2.231  25.432  0.00  0.00    +0.090 C 
ATOM     32  C   UNL     1      -1.292  -1.159  25.057  0.00  0.00    +0.090 C 
ATOM     33  C   UNL     1      -1.420  -0.454  24.648  0.00  0.00    +0.090 C 
ENDBRANCH  26  27
ENDBRANCH  25  26
TORSDOF 8
ENDMDL
