REMARK  Name = 
REMARK  8 active torsions:
REMARK  status: ('A' for Active; 'I' for Inactive)
REMARK    1  A    between atoms: O_2  and  C_3
REMARK    2  A    between atoms: C_6  and  C_7
REMARK    3  A    between atoms: C_7  and  N_8
REMARK    4  A    between atoms: C_9  and  C_11
REMARK    5  A    between atoms: C_11  and  C_12
REMARK    6  A    between atoms: C_12  and  C_13
REMARK    7  A    between atoms: N_22  and  C_23
REMARK    8  A    between atoms: C_23  and  C_24
REMARK                            x       y       z     vdW  Elec       q    Type
REMARK                         _______ _______ _______ _____ _____    ______ ____
ROOT
ATOM     13  C   UNL     1      -1.275   1.847   0.000  0.00  0.00    +0.080 C 
ATOM     14  C   UNL     1      -1.471   2.649   0.000  0.00  0.00    +0.131 C 
ATOM     15  N   UNL     1      -0.966   3.302   0.000  0.00  0.00    -0.203 NA
ATOM     16  C   UNL     1      -0.141   3.314   0.000  0.00  0.00    +0.257 C 
ATOM     17  O   UNL     1       0.206   4.062   0.000  0.00  0.00    -0.272 OA
ATOM     18  C   UNL     1       0.383   2.677   0.000  0.00  0.00    +0.152 C 
ATOM     19  C   UNL     1       0.211   1.870   0.000  0.00  0.00    +0.083 C 
ATOM     20  C   UNL     1       0.926   1.457   0.000  0.00  0.00    +0.035 C 
ATOM     21  C   UNL     1       1.539   2.009   0.000  0.00  0.00    +0.074 C 
ATOM     22  N   UNL     1       1.203   2.763   0.000  0.00  0.00    -0.259 NA
ATOM     34  N   UNL     1      -0.526   1.501   0.000  0.00  0.00    -0.271 NA
ATOM     35  C   UNL     1      -0.514   0.676   0.000  0.00  0.00    +0.090 C 
ENDROOT
BRANCH  13  12
ATOM     12  C   UNL     1      -1.912   1.323   0.000  0.00  0.00    +0.027 C 
BRANCH  12  11
ATOM     11  C   UNL     1      -2.685   1.613   0.000  0.00  0.00    +0.088 C 
BRANCH  11   9
ATOM      8  N   UNL     1      -4.094   1.379   0.000  0.00  0.00    -0.201 NA
ATOM      9  C   UNL     1      -3.322   1.089   0.000  0.00  0.00    +0.242 C 
ATOM     10  O   UNL     1      -3.187   0.276   0.000  0.00  0.00    -0.273 OA
BRANCH   8   7
ATOM      7  C   UNL     1      -4.732   0.855   0.000  0.00  0.00    +0.141 C 
BRANCH   7   6
ATOM      3  C   UNL     1      -7.049   1.725   0.000  0.00  0.00    +0.139 A 
ATOM      4  C   UNL     1      -6.412   2.249   0.000  0.00  0.00    +0.037 A 
ATOM      5  C   UNL     1      -5.639   1.959   0.000  0.00  0.00    +0.001 A 
ATOM      6  C   UNL     1      -5.504   1.145   0.000  0.00  0.00    -0.000 A 
ATOM     36  C   UNL     1      -6.141   0.621   0.000  0.00  0.00    +0.001 A 
ATOM     37  C   UNL     1      -6.914   0.911   0.000  0.00  0.00    +0.037 A 
BRANCH   3   2
ATOM      1  C   UNL     1      -8.458   1.491   0.000  0.00  0.00    +0.252 C 
ATOM      2  O   UNL     1      -7.821   2.015   0.000  0.00  0.00    -0.471 OA
ENDBRANCH   3   2
ENDBRANCH   7   6
ENDBRANCH   8   7
ENDBRANCH  11   9
ENDBRANCH  12  11
ENDBRANCH  13  12
BRANCH  22  23
ATOM     23  C   UNL     1       1.616   3.477   0.000  0.00  0.00    +0.137 C 
BRANCH  23  24
ATOM     24  C   UNL     1       2.441   3.477   0.000  0.00  0.00    +0.137 A 
ATOM     25  N   UNL     1       2.926   2.810   0.000  0.00  0.00    -0.230 NA
ATOM     26  C   UNL     1       3.710   3.065   0.000  0.00  0.00    +0.098 A 
ATOM     27  C   UNL     1       3.710   3.890   0.000  0.00  0.00    +0.079 A 
ATOM     28  C   UNL     1       4.425   4.302   0.000  0.00  0.00    +0.019 A 
ATOM     29  C   UNL     1       5.139   3.890   0.000  0.00  0.00    +0.002 A 
ATOM     30  C   UNL     1       5.139   3.065   0.000  0.00  0.00    +0.002 A 
ATOM     31  C   UNL     1       4.425   2.652   0.000  0.00  0.00    +0.021 A 
ATOM     32  N   UNL     1       2.926   4.145   0.000  0.00  0.00    -0.312 N 
ATOM     33  C   UNL     1       2.671   4.929   0.000  0.00  0.00    +0.132 C 
ENDBRANCH  23  24
ENDBRANCH  22  23
TORSDOF 8
