MODEL 1
REMARK VINA RESULT:     -12.0      0.000      0.000
REMARK  Name = 
REMARK  7 active torsions:
REMARK  status: ('A' for Active; 'I' for Inactive)
REMARK    1  A    between atoms: C_2  and  C_3
REMARK    2  A    between atoms: C_2  and  C_25
REMARK    3  A    between atoms: C_10  and  N_11
REMARK    4  A    between atoms: C_12  and  C_14
REMARK    5  A    between atoms: N_27  and  C_29
REMARK    6  A    between atoms: C_29  and  C_30
REMARK    7  A    between atoms: C_30  and  C_31
REMARK                            x       y       z     vdW  Elec       q    Type
REMARK                         _______ _______ _______ _____ _____    ______ ____
ROOT
ATOM      3  C   UNL     1      -4.461   0.381  24.693  0.00  0.00    +0.039 C 
ATOM      4  C   UNL     1      -5.129   0.615  25.115  0.00  0.00    +0.003 C 
ATOM      5  C   UNL     1      -5.204   1.395  25.369  0.00  0.00    +0.000 C 
ATOM      6  C   UNL     1      -4.609   1.944  25.201  0.00  0.00    +0.002 C 
ATOM      7  C   UNL     1      -5.279   2.177  25.624  0.00  0.00    +0.000 C 
ATOM      8  C   UNL     1      -4.685   2.725  25.456  0.00  0.00    +0.002 C 
ATOM      9  C   UNL     1      -4.091   3.272  25.287  0.00  0.00    +0.022 C 
ATOM     10  C   UNL     1      -3.422   3.039  24.864  0.00  0.00    +0.095 C 
ATOM     20  C   UNL     1      -3.347   2.257  24.610  0.00  0.00    +0.022 C 
ATOM     21  C   UNL     1      -2.679   2.024  24.187  0.00  0.00    +0.002 C 
ATOM     22  C   UNL     1      -3.941   1.710  24.778  0.00  0.00    +0.032 C 
ATOM     23  C   UNL     1      -3.866   0.929  24.524  0.00  0.00    +0.152 C 
ATOM     24  O   UNL     1      -3.197   0.695  24.101  0.00  0.00    -0.223 OA
ENDROOT
BRANCH  10  11
ATOM     11  N   UNL     1      -2.829   3.585  24.696  0.00  0.00    -0.207 NA
ATOM     12  C   UNL     1      -2.459   3.995  25.310  0.00  0.00    +0.241 C 
ATOM     13  O   UNL     1      -2.683   3.857  26.092  0.00  0.00    -0.273 OA
BRANCH  12  14
ATOM     14  C   UNL     1      -1.865   4.543  25.142  0.00  0.00    +0.078 C 
ATOM     15  C   UNL     1      -2.043   5.348  25.114  0.00  0.00    +0.009 C 
ATOM     16  C   UNL     1      -1.449   5.895  24.946  0.00  0.00    +0.000 C 
ATOM     17  C   UNL     1      -0.677   5.638  24.805  0.00  0.00    +0.000 C 
ATOM     18  C   UNL     1      -0.500   4.832  24.833  0.00  0.00    +0.000 C 
ATOM     19  C   UNL     1      -1.094   4.284  25.001  0.00  0.00    +0.009 C 
ENDBRANCH  12  14
ENDBRANCH  10  11
BRANCH   3   2
ATOM      1  C   UNL     1      -4.737  -0.639  23.731  0.00  0.00    +0.010 C 
ATOM      2  C   UNL     1      -4.385  -0.400  24.438  0.00  0.00    +0.079 C 
BRANCH   2  25
ATOM     25  C   UNL     1      -3.958  -0.942  24.889  0.00  0.00    +0.225 C 
ATOM     26  O   UNL     1      -3.779  -0.773  25.677  0.00  0.00    -0.275 OA
ATOM     27  N   UNL     1      -3.710  -1.654  24.554  0.00  0.00    -0.277 N 
ATOM     28  C   UNL     1      -3.888  -1.823  23.767  0.00  0.00    +0.115 C 
BRANCH  27  29
ATOM     29  C   UNL     1      -3.283  -2.196  25.005  0.00  0.00    +0.110 C 
BRANCH  29  30
ATOM     30  C   UNL     1      -2.763  -2.721  24.638  0.00  0.00    +0.127 C 
BRANCH  30  31
ATOM     31  C   UNL     1      -1.970  -2.741  24.862  0.00  0.00    +0.075 C 
ATOM     32  N   UNL     1      -1.176  -2.762  25.087  0.00  0.00    -0.196 NA
ENDBRANCH  30  31
ENDBRANCH  29  30
ENDBRANCH  27  29
ENDBRANCH   2  25
ENDBRANCH   3   2
TORSDOF 7
ENDMDL
MODEL 2
REMARK VINA RESULT:     -11.6      1.057      5.218
REMARK  Name = 
REMARK  7 active torsions:
REMARK  status: ('A' for Active; 'I' for Inactive)
REMARK    1  A    between atoms: C_2  and  C_3
REMARK    2  A    between atoms: C_2  and  C_25
REMARK    3  A    between atoms: C_10  and  N_11
REMARK    4  A    between atoms: C_12  and  C_14
REMARK    5  A    between atoms: N_27  and  C_29
REMARK    6  A    between atoms: C_29  and  C_30
REMARK    7  A    between atoms: C_30  and  C_31
REMARK                            x       y       z     vdW  Elec       q    Type
REMARK                         _______ _______ _______ _____ _____    ______ ____
ROOT
ATOM      3  C   UNL     1      -4.088   3.272  24.903  0.00  0.00    +0.039 C 
ATOM      4  C   UNL     1      -4.759   3.353  25.376  0.00  0.00    +0.003 C 
ATOM      5  C   UNL     1      -5.215   2.692  25.561  0.00  0.00    +0.000 C 
ATOM      6  C   UNL     1      -5.000   1.948  25.272  0.00  0.00    +0.002 C 
ATOM      7  C   UNL     1      -5.672   2.029  25.746  0.00  0.00    +0.000 C 
ATOM      8  C   UNL     1      -5.457   1.286  25.458  0.00  0.00    +0.002 C 
ATOM      9  C   UNL     1      -5.242   0.544  25.169  0.00  0.00    +0.022 C 
ATOM     10  C   UNL     1      -4.570   0.463  24.696  0.00  0.00    +0.095 C 
ATOM     20  C   UNL     1      -4.115   1.125  24.512  0.00  0.00    +0.022 C 
ATOM     21  C   UNL     1      -3.444   1.044  24.039  0.00  0.00    +0.002 C 
ATOM     22  C   UNL     1      -4.329   1.868  24.800  0.00  0.00    +0.032 C 
ATOM     23  C   UNL     1      -3.873   2.529  24.615  0.00  0.00    +0.152 C 
ATOM     24  O   UNL     1      -3.202   2.449  24.142  0.00  0.00    -0.223 OA
ENDROOT
BRANCH  10  11
ATOM     11  N   UNL     1      -4.356  -0.279  24.408  0.00  0.00    -0.207 NA
ATOM     12  C   UNL     1      -4.153  -0.883  24.933  0.00  0.00    +0.241 C 
ATOM     13  O   UNL     1      -4.164  -0.743  25.747  0.00  0.00    -0.273 OA
BRANCH  12  14
ATOM     14  C   UNL     1      -3.938  -1.625  24.645  0.00  0.00    +0.078 C 
ATOM     15  C   UNL     1      -4.307  -1.929  23.972  0.00  0.00    +0.009 C 
ATOM     16  C   UNL     1      -4.092  -2.671  23.684  0.00  0.00    +0.000 C 
ATOM     17  C   UNL     1      -3.508  -3.111  24.069  0.00  0.00    +0.000 C 
ATOM     18  C   UNL     1      -3.140  -2.806  24.742  0.00  0.00    +0.000 C 
ATOM     19  C   UNL     1      -3.355  -2.064  25.030  0.00  0.00    +0.009 C 
ENDBRANCH  12  14
ENDBRANCH  10  11
BRANCH   3   2
ATOM      1  C   UNL     1      -3.812   4.386  24.052  0.00  0.00    +0.010 C 
ATOM      2  C   UNL     1      -3.631   3.934  24.718  0.00  0.00    +0.079 C 
BRANCH   2  25
ATOM     25  C   UNL     1      -2.995   4.144  25.198  0.00  0.00    +0.225 C 
ATOM     26  O   UNL     1      -3.051   4.061  26.018  0.00  0.00    -0.275 OA
ATOM     27  N   UNL     1      -2.301   4.437  24.860  0.00  0.00    -0.277 N 
ATOM     28  C   UNL     1      -2.245   4.520  24.041  0.00  0.00    +0.115 C 
BRANCH  27  29
ATOM     29  C   UNL     1      -1.665   4.647  25.340  0.00  0.00    +0.110 C 
BRANCH  29  30
ATOM     30  C   UNL     1      -0.896   4.621  25.042  0.00  0.00    +0.127 C 
BRANCH  30  31
ATOM     31  C   UNL     1      -0.354   4.078  25.344  0.00  0.00    +0.075 C 
ATOM     32  N   UNL     1       0.189   3.534  25.646  0.00  0.00    -0.196 NA
ENDBRANCH  30  31
ENDBRANCH  29  30
ENDBRANCH  27  29
ENDBRANCH   2  25
ENDBRANCH   3   2
TORSDOF 7
ENDMDL
MODEL 3
REMARK VINA RESULT:     -11.6      3.416      4.942
REMARK  Name = 
REMARK  7 active torsions:
REMARK  status: ('A' for Active; 'I' for Inactive)
REMARK    1  A    between atoms: C_2  and  C_3
REMARK    2  A    between atoms: C_2  and  C_25
REMARK    3  A    between atoms: C_10  and  N_11
REMARK    4  A    between atoms: C_12  and  C_14
REMARK    5  A    between atoms: N_27  and  C_29
REMARK    6  A    between atoms: C_29  and  C_30
REMARK    7  A    between atoms: C_30  and  C_31
REMARK                            x       y       z     vdW  Elec       q    Type
REMARK                         _______ _______ _______ _____ _____    ______ ____
ROOT
ATOM      3  C   UNL     1       0.025   0.039  23.653  0.00  0.00    +0.039 C 
ATOM      4  C   UNL     1       0.098  -0.571  24.203  0.00  0.00    +0.003 C 
ATOM      5  C   UNL     1      -0.480  -0.676  24.781  0.00  0.00    +0.000 C 
ATOM      6  C   UNL     1      -1.132  -0.170  24.810  0.00  0.00    +0.002 C 
ATOM      7  C   UNL     1      -1.059  -0.781  25.361  0.00  0.00    +0.000 C 
ATOM      8  C   UNL     1      -1.710  -0.276  25.390  0.00  0.00    +0.002 C 
ATOM      9  C   UNL     1      -2.361   0.230  25.419  0.00  0.00    +0.022 C 
ATOM     10  C   UNL     1      -2.435   0.841  24.868  0.00  0.00    +0.095 C 
ATOM     20  C   UNL     1      -1.856   0.945  24.290  0.00  0.00    +0.022 C 
ATOM     21  C   UNL     1      -1.930   1.556  23.740  0.00  0.00    +0.002 C 
ATOM     22  C   UNL     1      -1.205   0.440  24.261  0.00  0.00    +0.032 C 
ATOM     23  C   UNL     1      -0.627   0.545  23.682  0.00  0.00    +0.152 C 
ATOM     24  O   UNL     1      -0.700   1.155  23.132  0.00  0.00    -0.223 OA
ENDROOT
BRANCH  10  11
ATOM     11  N   UNL     1      -3.085   1.346  24.897  0.00  0.00    -0.207 NA
ATOM     12  C   UNL     1      -3.837   1.042  25.054  0.00  0.00    +0.241 C 
ATOM     13  O   UNL     1      -3.937   0.233  25.182  0.00  0.00    -0.273 OA
BRANCH  12  14
ATOM     14  C   UNL     1      -4.488   1.548  25.083  0.00  0.00    +0.078 C 
ATOM     15  C   UNL     1      -5.242   1.259  24.911  0.00  0.00    +0.009 C 
ATOM     16  C   UNL     1      -5.893   1.765  24.939  0.00  0.00    +0.000 C 
ATOM     17  C   UNL     1      -5.791   2.559  25.141  0.00  0.00    +0.000 C 
ATOM     18  C   UNL     1      -5.037   2.847  25.313  0.00  0.00    +0.000 C 
ATOM     19  C   UNL     1      -4.385   2.341  25.284  0.00  0.00    +0.009 C 
ENDBRANCH  12  14
ENDBRANCH  10  11
BRANCH   3   2
ATOM      1  C   UNL     1       0.465  -0.113  22.302  0.00  0.00    +0.010 C 
ATOM      2  C   UNL     1       0.603   0.144  23.074  0.00  0.00    +0.079 C 
BRANCH   2  25
ATOM     25  C   UNL     1       1.318   0.507  23.265  0.00  0.00    +0.225 C 
ATOM     26  O   UNL     1       1.344   1.082  23.857  0.00  0.00    -0.275 OA
ATOM     27  N   UNL     1       2.009   0.295  22.866  0.00  0.00    -0.277 N 
ATOM     28  C   UNL     1       1.983  -0.280  22.275  0.00  0.00    +0.115 C 
BRANCH  27  29
ATOM     29  C   UNL     1       2.724   0.657  23.058  0.00  0.00    +0.110 C 
BRANCH  29  30
ATOM     30  C   UNL     1       3.418   0.431  22.673  0.00  0.00    +0.127 C 
BRANCH  30  31
ATOM     31  C   UNL     1       4.151   0.614  23.002  0.00  0.00    +0.075 C 
ATOM     32  N   UNL     1       4.886   0.797  23.332  0.00  0.00    -0.196 NA
ENDBRANCH  30  31
ENDBRANCH  29  30
ENDBRANCH  27  29
ENDBRANCH   2  25
ENDBRANCH   3   2
TORSDOF 7
ENDMDL
MODEL 4
REMARK VINA RESULT:     -10.8      2.959      4.552
REMARK  Name = 
REMARK  7 active torsions:
REMARK  status: ('A' for Active; 'I' for Inactive)
REMARK    1  A    between atoms: C_2  and  C_3
REMARK    2  A    between atoms: C_2  and  C_25
REMARK    3  A    between atoms: C_10  and  N_11
REMARK    4  A    between atoms: C_12  and  C_14
REMARK    5  A    between atoms: N_27  and  C_29
REMARK    6  A    between atoms: C_29  and  C_30
REMARK    7  A    between atoms: C_30  and  C_31
REMARK                            x       y       z     vdW  Elec       q    Type
REMARK                         _______ _______ _______ _____ _____    ______ ____
ROOT
ATOM      3  C   UNL     1      -0.765   0.769  23.551  0.00  0.00    +0.039 C 
ATOM      4  C   UNL     1      -0.808   1.206  22.854  0.00  0.00    +0.003 C 
ATOM      5  C   UNL     1      -1.485   1.644  22.682  0.00  0.00    +0.000 C 
ATOM      6  C   UNL     1      -2.121   1.645  23.209  0.00  0.00    +0.002 C 
ATOM      7  C   UNL     1      -2.164   2.082  22.510  0.00  0.00    +0.000 C 
ATOM      8  C   UNL     1      -2.799   2.083  23.037  0.00  0.00    +0.002 C 
ATOM      9  C   UNL     1      -3.433   2.084  23.564  0.00  0.00    +0.022 C 
ATOM     10  C   UNL     1      -3.391   1.647  24.263  0.00  0.00    +0.095 C 
ATOM     20  C   UNL     1      -2.713   1.209  24.434  0.00  0.00    +0.022 C 
ATOM     21  C   UNL     1      -2.671   0.772  25.132  0.00  0.00    +0.002 C 
ATOM     22  C   UNL     1      -2.078   1.208  23.907  0.00  0.00    +0.032 C 
ATOM     23  C   UNL     1      -1.401   0.770  24.079  0.00  0.00    +0.152 C 
ATOM     24  O   UNL     1      -1.358   0.333  24.777  0.00  0.00    -0.223 OA
ENDROOT
BRANCH  10  11
ATOM     11  N   UNL     1      -4.025   1.648  24.789  0.00  0.00    -0.207 NA
ATOM     12  C   UNL     1      -4.623   2.213  24.715  0.00  0.00    +0.241 C 
ATOM     13  O   UNL     1      -4.584   2.777  24.113  0.00  0.00    -0.273 OA
BRANCH  12  14
ATOM     14  C   UNL     1      -5.258   2.214  25.241  0.00  0.00    +0.078 C 
ATOM     15  C   UNL     1      -5.289   2.773  25.847  0.00  0.00    +0.009 C 
ATOM     16  C   UNL     1      -5.924   2.774  26.374  0.00  0.00    +0.000 C 
ATOM     17  C   UNL     1      -6.527   2.216  26.295  0.00  0.00    +0.000 C 
ATOM     18  C   UNL     1      -6.495   1.656  25.688  0.00  0.00    +0.000 C 
ATOM     19  C   UNL     1      -5.860   1.656  25.161  0.00  0.00    +0.009 C 
ENDBRANCH  12  14
ENDBRANCH  10  11
BRANCH   3   2
ATOM      1  C   UNL     1      -0.156  -0.457  23.958  0.00  0.00    +0.010 C 
ATOM      2  C   UNL     1      -0.088   0.331  23.724  0.00  0.00    +0.079 C 
BRANCH   2  25
ATOM     25  C   UNL     1       0.657   0.679  23.662  0.00  0.00    +0.225 C 
ATOM     26  O   UNL     1       0.812   1.393  24.047  0.00  0.00    -0.275 OA
ATOM     27  N   UNL     1       1.247   0.316  23.214  0.00  0.00    -0.277 N 
ATOM     28  C   UNL     1       1.092  -0.397  22.829  0.00  0.00    +0.115 C 
BRANCH  27  29
ATOM     29  C   UNL     1       1.992   0.665  23.152  0.00  0.00    +0.110 C 
BRANCH  29  30
ATOM     30  C   UNL     1       2.594   0.282  22.738  0.00  0.00    +0.127 C 
BRANCH  30  31
ATOM     31  C   UNL     1       3.355   0.598  22.730  0.00  0.00    +0.075 C 
ATOM     32  N   UNL     1       4.118   0.915  22.723  0.00  0.00    -0.196 NA
ENDBRANCH  30  31
ENDBRANCH  29  30
ENDBRANCH  27  29
ENDBRANCH   2  25
ENDBRANCH   3   2
TORSDOF 7
ENDMDL
MODEL 5
REMARK VINA RESULT:     -10.5      2.209      3.327
REMARK  Name = 
REMARK  7 active torsions:
REMARK  status: ('A' for Active; 'I' for Inactive)
REMARK    1  A    between atoms: C_2  and  C_3
REMARK    2  A    between atoms: C_2  and  C_25
REMARK    3  A    between atoms: C_10  and  N_11
REMARK    4  A    between atoms: C_12  and  C_14
REMARK    5  A    between atoms: N_27  and  C_29
REMARK    6  A    between atoms: C_29  and  C_30
REMARK    7  A    between atoms: C_30  and  C_31
REMARK                            x       y       z     vdW  Elec       q    Type
REMARK                         _______ _______ _______ _____ _____    ______ ____
ROOT
ATOM      3  C   UNL     1      -0.680  -0.848  24.715  0.00  0.00    +0.039 C 
ATOM      4  C   UNL     1      -0.124  -0.910  24.109  0.00  0.00    +0.003 C 
ATOM      5  C   UNL     1       0.217  -0.230  23.791  0.00  0.00    +0.000 C 
ATOM      6  C   UNL     1       0.002   0.513  24.079  0.00  0.00    +0.002 C 
ATOM      7  C   UNL     1       0.558   0.451  23.472  0.00  0.00    +0.000 C 
ATOM      8  C   UNL     1       0.343   1.194  23.760  0.00  0.00    +0.002 C 
ATOM      9  C   UNL     1       0.128   1.936  24.048  0.00  0.00    +0.022 C 
ATOM     10  C   UNL     1      -0.428   1.999  24.655  0.00  0.00    +0.095 C 
ATOM     20  C   UNL     1      -0.769   1.318  24.973  0.00  0.00    +0.022 C 
ATOM     21  C   UNL     1      -1.324   1.381  25.579  0.00  0.00    +0.002 C 
ATOM     22  C   UNL     1      -0.554   0.575  24.685  0.00  0.00    +0.032 C 
ATOM     23  C   UNL     1      -0.895  -0.104  25.003  0.00  0.00    +0.152 C 
ATOM     24  O   UNL     1      -1.451  -0.043  25.610  0.00  0.00    -0.223 OA
ENDROOT
BRANCH  10  11
ATOM     11  N   UNL     1      -0.643   2.740  24.943  0.00  0.00    -0.207 NA
ATOM     12  C   UNL     1      -0.950   3.309  24.429  0.00  0.00    +0.241 C 
ATOM     13  O   UNL     1      -1.042   3.135  23.628  0.00  0.00    -0.273 OA
BRANCH  12  14
ATOM     14  C   UNL     1      -1.165   4.052  24.717  0.00  0.00    +0.078 C 
ATOM     15  C   UNL     1      -1.906   4.161  25.064  0.00  0.00    +0.009 C 
ATOM     16  C   UNL     1      -2.121   4.904  25.352  0.00  0.00    +0.000 C 
ATOM     17  C   UNL     1      -1.595   5.537  25.293  0.00  0.00    +0.000 C 
ATOM     18  C   UNL     1      -0.853   5.428  24.946  0.00  0.00    +0.000 C 
ATOM     19  C   UNL     1      -0.639   4.685  24.658  0.00  0.00    +0.009 C 
ENDBRANCH  12  14
ENDBRANCH  10  11
BRANCH   3   2
ATOM      1  C   UNL     1      -0.836  -1.760  25.803  0.00  0.00    +0.010 C 
ATOM      2  C   UNL     1      -1.021  -1.528  25.034  0.00  0.00    +0.079 C 
BRANCH   2  25
ATOM     25  C   UNL     1      -1.547  -1.976  24.584  0.00  0.00    +0.225 C 
ATOM     26  O   UNL     1      -1.354  -2.184  23.808  0.00  0.00    -0.275 OA
ATOM     27  N   UNL     1      -2.267  -2.216  24.908  0.00  0.00    -0.277 N 
ATOM     28  C   UNL     1      -2.460  -2.008  25.682  0.00  0.00    +0.115 C 
BRANCH  27  29
ATOM     29  C   UNL     1      -2.794  -2.663  24.458  0.00  0.00    +0.110 C 
BRANCH  29  30
ATOM     30  C   UNL     1      -3.597  -2.669  24.646  0.00  0.00    +0.127 C 
BRANCH  30  31
ATOM     31  C   UNL     1      -4.162  -2.654  24.045  0.00  0.00    +0.075 C 
ATOM     32  N   UNL     1      -4.727  -2.640  23.444  0.00  0.00    -0.196 NA
ENDBRANCH  30  31
ENDBRANCH  29  30
ENDBRANCH  27  29
ENDBRANCH   2  25
ENDBRANCH   3   2
TORSDOF 7
ENDMDL
MODEL 6
REMARK VINA RESULT:     -10.4      2.298      3.889
REMARK  Name = 
REMARK  7 active torsions:
REMARK  status: ('A' for Active; 'I' for Inactive)
REMARK    1  A    between atoms: C_2  and  C_3
REMARK    2  A    between atoms: C_2  and  C_25
REMARK    3  A    between atoms: C_10  and  N_11
REMARK    4  A    between atoms: C_12  and  C_14
REMARK    5  A    between atoms: N_27  and  C_29
REMARK    6  A    between atoms: C_29  and  C_30
REMARK    7  A    between atoms: C_30  and  C_31
REMARK                            x       y       z     vdW  Elec       q    Type
REMARK                         _______ _______ _______ _____ _____    ______ ____
ROOT
ATOM      3  C   UNL     1      -1.792  -1.112  24.633  0.00  0.00    +0.039 C 
ATOM      4  C   UNL     1      -2.288  -1.705  24.348  0.00  0.00    +0.003 C 
ATOM      5  C   UNL     1      -3.104  -1.585  24.325  0.00  0.00    +0.000 C 
ATOM      6  C   UNL     1      -3.424  -0.870  24.587  0.00  0.00    +0.002 C 
ATOM      7  C   UNL     1      -3.920  -1.465  24.302  0.00  0.00    +0.000 C 
ATOM      8  C   UNL     1      -4.240  -0.751  24.563  0.00  0.00    +0.002 C 
ATOM      9  C   UNL     1      -4.559  -0.037  24.825  0.00  0.00    +0.022 C 
ATOM     10  C   UNL     1      -4.063   0.558  25.110  0.00  0.00    +0.095 C 
ATOM     20  C   UNL     1      -3.247   0.437  25.133  0.00  0.00    +0.022 C 
ATOM     21  C   UNL     1      -2.751   1.032  25.418  0.00  0.00    +0.002 C 
ATOM     22  C   UNL     1      -2.928  -0.277  24.872  0.00  0.00    +0.032 C 
ATOM     23  C   UNL     1      -2.112  -0.396  24.895  0.00  0.00    +0.152 C 
ATOM     24  O   UNL     1      -1.615   0.197  25.180  0.00  0.00    -0.223 OA
ENDROOT
BRANCH  10  11
ATOM     11  N   UNL     1      -4.382   1.271  25.371  0.00  0.00    -0.207 NA
ATOM     12  C   UNL     1      -4.833   1.735  24.858  0.00  0.00    +0.241 C 
ATOM     13  O   UNL     1      -4.964   1.483  24.082  0.00  0.00    -0.273 OA
BRANCH  12  14
ATOM     14  C   UNL     1      -5.152   2.449  25.119  0.00  0.00    +0.078 C 
ATOM     15  C   UNL     1      -4.773   3.160  24.941  0.00  0.00    +0.009 C 
ATOM     16  C   UNL     1      -5.093   3.874  25.203  0.00  0.00    +0.000 C 
ATOM     17  C   UNL     1      -5.792   3.877  25.643  0.00  0.00    +0.000 C 
ATOM     18  C   UNL     1      -6.170   3.165  25.821  0.00  0.00    +0.000 C 
ATOM     19  C   UNL     1      -5.851   2.451  25.559  0.00  0.00    +0.009 C 
ENDBRANCH  12  14
ENDBRANCH  10  11
BRANCH   3   2
ATOM      1  C   UNL     1      -0.604  -1.390  25.375  0.00  0.00    +0.010 C 
ATOM      2  C   UNL     1      -0.976  -1.231  24.657  0.00  0.00    +0.079 C 
BRANCH   2  25
ATOM     25  C   UNL     1      -0.533  -1.191  23.963  0.00  0.00    +0.225 C 
ATOM     26  O   UNL     1      -0.756  -1.638  23.304  0.00  0.00    -0.275 OA
ATOM     27  N   UNL     1       0.134  -0.706  23.925  0.00  0.00    -0.277 N 
ATOM     28  C   UNL     1       0.356  -0.260  24.583  0.00  0.00    +0.115 C 
BRANCH  27  29
ATOM     29  C   UNL     1       0.577  -0.667  23.231  0.00  0.00    +0.110 C 
BRANCH  29  30
ATOM     30  C   UNL     1       1.092  -0.034  23.105  0.00  0.00    +0.127 C 
BRANCH  30  31
ATOM     31  C   UNL     1       1.650  -0.071  22.500  0.00  0.00    +0.075 C 
ATOM     32  N   UNL     1       2.210  -0.107  21.894  0.00  0.00    -0.196 NA
ENDBRANCH  30  31
ENDBRANCH  29  30
ENDBRANCH  27  29
ENDBRANCH   2  25
ENDBRANCH   3   2
TORSDOF 7
ENDMDL
MODEL 7
REMARK VINA RESULT:     -10.1      3.204      4.968
REMARK  Name = 
REMARK  7 active torsions:
REMARK  status: ('A' for Active; 'I' for Inactive)
REMARK    1  A    between atoms: C_2  and  C_3
REMARK    2  A    between atoms: C_2  and  C_25
REMARK    3  A    between atoms: C_10  and  N_11
REMARK    4  A    between atoms: C_12  and  C_14
REMARK    5  A    between atoms: N_27  and  C_29
REMARK    6  A    between atoms: C_29  and  C_30
REMARK    7  A    between atoms: C_30  and  C_31
REMARK                            x       y       z     vdW  Elec       q    Type
REMARK                         _______ _______ _______ _____ _____    ______ ____
ROOT
ATOM      3  C   UNL     1      -2.905   1.310  24.442  0.00  0.00    +0.039 C 
ATOM      4  C   UNL     1      -2.965   0.732  25.027  0.00  0.00    +0.003 C 
ATOM      5  C   UNL     1      -2.318   0.251  25.199  0.00  0.00    +0.000 C 
ATOM      6  C   UNL     1      -1.610   0.348  24.786  0.00  0.00    +0.002 C 
ATOM      7  C   UNL     1      -1.670  -0.231  25.372  0.00  0.00    +0.000 C 
ATOM      8  C   UNL     1      -0.963  -0.134  24.959  0.00  0.00    +0.002 C 
ATOM      9  C   UNL     1      -0.255  -0.037  24.547  0.00  0.00    +0.022 C 
ATOM     10  C   UNL     1      -0.194   0.542  23.961  0.00  0.00    +0.095 C 
ATOM     20  C   UNL     1      -0.841   1.023  23.789  0.00  0.00    +0.022 C 
ATOM     21  C   UNL     1      -0.780   1.602  23.204  0.00  0.00    +0.002 C 
ATOM     22  C   UNL     1      -1.549   0.926  24.201  0.00  0.00    +0.032 C 
ATOM     23  C   UNL     1      -2.196   1.408  24.029  0.00  0.00    +0.152 C 
ATOM     24  O   UNL     1      -2.136   1.986  23.444  0.00  0.00    -0.223 OA
ENDROOT
BRANCH  10  11
ATOM     11  N   UNL     1       0.513   0.639  23.549  0.00  0.00    -0.207 NA
ATOM     12  C   UNL     1       0.960  -0.021  23.334  0.00  0.00    +0.241 C 
ATOM     13  O   UNL     1       0.698  -0.779  23.532  0.00  0.00    -0.273 OA
BRANCH  12  14
ATOM     14  C   UNL     1       1.668   0.076  22.922  0.00  0.00    +0.078 C 
ATOM     15  C   UNL     1       1.739  -0.213  22.152  0.00  0.00    +0.009 C 
ATOM     16  C   UNL     1       2.447  -0.116  21.739  0.00  0.00    +0.000 C 
ATOM     17  C   UNL     1       3.083   0.270  22.097  0.00  0.00    +0.000 C 
ATOM     18  C   UNL     1       3.011   0.558  22.867  0.00  0.00    +0.000 C 
ATOM     19  C   UNL     1       2.303   0.461  23.280  0.00  0.00    +0.009 C 
ENDBRANCH  12  14
ENDBRANCH  10  11
BRANCH   3   2
ATOM      1  C   UNL     1      -3.959   1.695  23.558  0.00  0.00    +0.010 C 
ATOM      2  C   UNL     1      -3.552   1.792  24.269  0.00  0.00    +0.079 C 
BRANCH   2  25
ATOM     25  C   UNL     1      -3.792   2.370  24.805  0.00  0.00    +0.225 C 
ATOM     26  O   UNL     1      -3.228   2.839  25.187  0.00  0.00    -0.275 OA
ATOM     27  N   UNL     1      -4.594   2.482  24.962  0.00  0.00    -0.277 N 
ATOM     28  C   UNL     1      -5.157   2.014  24.581  0.00  0.00    +0.115 C 
BRANCH  27  29
ATOM     29  C   UNL     1      -4.834   3.060  25.499  0.00  0.00    +0.110 C 
BRANCH  29  30
ATOM     30  C   UNL     1      -5.635   3.236  25.585  0.00  0.00    +0.127 C 
BRANCH  30  31
ATOM     31  C   UNL     1      -5.875   4.014  25.717  0.00  0.00    +0.075 C 
ATOM     32  N   UNL     1      -6.114   4.793  25.849  0.00  0.00    -0.196 NA
ENDBRANCH  30  31
ENDBRANCH  29  30
ENDBRANCH  27  29
ENDBRANCH   2  25
ENDBRANCH   3   2
TORSDOF 7
ENDMDL
