REMARK  Name = 
REMARK  5 active torsions:
REMARK  status: ('A' for Active; 'I' for Inactive)
REMARK    1  A    between atoms: C_2  and  N_3
REMARK    2  A    between atoms: N_6  and  C_7
REMARK    3  A    between atoms: C_13  and  N_16
REMARK    4  A    between atoms: C_19  and  C_20
REMARK    5  A    between atoms: C_20  and  C_21
REMARK                            x       y       z     vdW  Elec       q    Type
REMARK                         _______ _______ _______ _____ _____    ______ ____
ROOT
ATOM      7  C   UNL     1       1.989  -0.542   0.000  0.00  0.00    +0.158 C 
ATOM      8  C   UNL     1       1.060  -0.557   0.000  0.00  0.00    +0.170 C 
ATOM      9  C   UNL     1       0.740  -1.266   0.000  0.00  0.00    +0.176 C 
ATOM     10  O   UNL     1       0.120  -1.643   0.000  0.00  0.00    -0.327 OA
ATOM     11  C   UNL     1       0.640  -0.930   0.000  0.00  0.00    +0.253 C 
ATOM     12  O   UNL     1       0.500  -0.117   0.000  0.00  0.00    -0.327 OA
ATOM     13  C   UNL     1       1.611  -0.930   0.000  0.00  0.00    +0.147 C 
ATOM     14  C   UNL     1       2.127  -1.359   0.000  0.00  0.00    +0.194 C 
ATOM     15  O   UNL     1       2.539  -2.074   0.000  0.00  0.00    -0.220 OA
ENDROOT
BRANCH  13  16
ATOM     16  N   UNL     1       1.331  -1.706   0.000  0.00  0.00    -0.268 NA
ATOM     17  C   UNL     1       1.863  -2.337   0.000  0.00  0.00    +0.072 C 
ATOM     18  C   UNL     1       1.583  -3.113   0.000  0.00  0.00    +0.018 C 
ATOM     19  C   UNL     1       0.771  -3.258   0.000  0.00  0.00    +0.007 C 
ATOM     27  C   UNL     1       0.239  -2.628   0.000  0.00  0.00    +0.018 C 
ATOM     28  C   UNL     1       0.519  -1.852   0.000  0.00  0.00    +0.072 C 
BRANCH  19  20
ATOM     20  C   UNL     1       0.490  -4.034   0.000  0.00  0.00    +0.026 C 
BRANCH  20  21
ATOM     21  C   UNL     1      -0.322  -4.180   0.000  0.00  0.00    -0.022 A 
ATOM     22  C   UNL     1      -0.602  -4.955   0.000  0.00  0.00    -0.004 A 
ATOM     23  C   UNL     1      -1.414  -5.101   0.000  0.00  0.00    -0.000 A 
ATOM     24  C   UNL     1      -1.946  -4.470   0.000  0.00  0.00    -0.000 A 
ATOM     25  C   UNL     1      -1.666  -3.694   0.000  0.00  0.00    -0.000 A 
ATOM     26  C   UNL     1      -0.854  -3.549   0.000  0.00  0.00    -0.004 A 
ENDBRANCH  20  21
ENDBRANCH  19  20
ENDBRANCH  13  16
BRANCH   7   6
ATOM      3  N   UNL     1       2.758   1.501   0.000  0.00  0.00    -0.187 NA
ATOM      4  C   UNL     1       2.231   0.867   0.000  0.00  0.00    +0.339 C 
ATOM      5  O   UNL     1       1.417   1.006   0.000  0.00  0.00    -0.249 OA
ATOM      6  N   UNL     1       2.517   0.093   0.000  0.00  0.00    -0.184 NA
BRANCH   3   2
ATOM      1  C   UNL     1       2.999   2.910   0.000  0.00  0.00    +0.025 C 
ATOM      2  C   UNL     1       2.472   2.275   0.000  0.00  0.00    +0.117 C 
ENDBRANCH   3   2
ENDBRANCH   7   6
TORSDOF 5
