REMARK  Name = 
REMARK  4 active torsions:
REMARK  status: ('A' for Active; 'I' for Inactive)
REMARK    1  A    between atoms: C_4  and  C_6
REMARK    2  A    between atoms: C_8  and  C_11
REMARK    3  A    between atoms: C_14  and  O_15
REMARK    4  A    between atoms: O_15  and  C_16
REMARK                            x       y       z     vdW  Elec       q    Type
REMARK                         _______ _______ _______ _____ _____    ______ ____
ROOT
ATOM     11  C   UNL     1       4.189  -1.810   0.000  0.00  0.00    +0.058 A 
ATOM     12  C   UNL     1       3.369  -1.897   0.000  0.00  0.00    +0.010 A 
ATOM     13  C   UNL     1       2.884  -1.229   0.000  0.00  0.00    +0.058 A 
ATOM     14  C   UNL     1       3.219  -0.476   0.000  0.00  0.00    +0.225 A 
ATOM     22  N   UNL     1       4.040  -0.389   0.000  0.00  0.00    -0.210 NA
ATOM     23  C   UNL     1       4.525  -1.057   0.000  0.00  0.00    +0.105 A 
ENDROOT
BRANCH  11   8
ATOM      6  C   UNL     1       5.087  -3.748   0.000  0.00  0.00    +0.252 A 
ATOM      7  N   UNL     1       4.419  -3.263   0.000  0.00  0.00    -0.190 NA
ATOM      8  C   UNL     1       4.674  -2.478   0.000  0.00  0.00    +0.205 A 
ATOM      9  N   UNL     1       5.499  -2.478   0.000  0.00  0.00    -0.056 NA
ATOM     10  O   UNL     1       5.754  -3.263   0.000  0.00  0.00    -0.336 OA
BRANCH   6   4
ATOM      1  C   UNL     1       5.499  -5.842   0.000  0.00  0.00    +0.021 C 
ATOM      2  C   UNL     1       4.674  -5.842   0.000  0.00  0.00    +0.089 C 
ATOM      3  N   UNL     1       4.419  -5.057   0.000  0.00  0.00    -0.210 NA
ATOM      4  C   UNL     1       5.087  -4.572   0.000  0.00  0.00    +0.151 C 
ATOM      5  C   UNL     1       5.754  -5.057   0.000  0.00  0.00    +0.028 C 
ENDBRANCH   6   4
ENDBRANCH  11   8
BRANCH  14  15
ATOM     15  O   UNL     1       2.734   0.192   0.000  0.00  0.00    -0.464 OA
BRANCH  15  16
ATOM     16  C   UNL     1       3.070   0.946   0.000  0.00  0.00    +0.168 C 
ATOM     17  C   UNL     1       2.585   1.613   0.000  0.00  0.00    +0.044 C 
ATOM     18  C   UNL     1       2.921   2.367   0.000  0.00  0.00    +0.004 C 
ATOM     19  C   UNL     1       3.741   2.453   0.000  0.00  0.00    +0.000 C 
ATOM     20  C   UNL     1       4.226   1.785   0.000  0.00  0.00    +0.004 C 
ATOM     21  C   UNL     1       3.890   1.032   0.000  0.00  0.00    +0.044 C 
ENDBRANCH  15  16
ENDBRANCH  14  15
TORSDOF 4
