MODEL 1
REMARK VINA RESULT:     -10.4      0.000      0.000
REMARK  Name = 
REMARK  8 active torsions:
REMARK  status: ('A' for Active; 'I' for Inactive)
REMARK    1  A    between atoms: O_2  and  C_3
REMARK    2  A    between atoms: C_6  and  C_9
REMARK    3  A    between atoms: C_11  and  C_16
REMARK    4  A    between atoms: C_23  and  C_24
REMARK    5  A    between atoms: C_24  and  O_25
REMARK    6  A    between atoms: O_25  and  C_26
REMARK    7  A    between atoms: N_28  and  C_29
REMARK    8  A    between atoms: C_32  and  C_35
REMARK                            x       y       z     vdW  Elec       q    Type
REMARK                         _______ _______ _______ _____ _____    ______ ____
ROOT
ATOM     16  C   UNL     1      -2.005   0.615  24.043  0.00  0.00    +0.056 C 
ATOM     17  C   UNL     1      -1.811   1.046  23.425  0.00  0.00    +0.078 C 
ATOM     18  N   UNL     1      -1.289   0.719  23.974  0.00  0.00    -0.270 NA
ATOM     19  C   UNL     1      -1.866   0.199  24.678  0.00  0.00    +0.072 C 
ATOM     20  C   UNL     1      -1.910  -0.168  25.217  0.00  0.00    +0.018 C 
ATOM     21  C   UNL     1      -1.487   0.297  24.577  0.00  0.00    +0.010 C 
ATOM     22  C   UNL     1      -0.612   0.327  24.638  0.00  0.00    +0.020 C 
ATOM     23  C   UNL     1      -0.380   0.746  24.043  0.00  0.00    +0.102 C 
ENDROOT
BRANCH  16  11
ATOM      9  C   UNL     1      -4.104   0.925  24.558  0.00  0.00    +0.084 A 
ATOM     10  C   UNL     1      -3.302   1.072  24.437  0.00  0.00    +0.034 A 
ATOM     11  C   UNL     1      -2.809   0.468  24.164  0.00  0.00    +0.063 A 
ATOM     12  N   UNL     1      -3.119  -0.281  24.013  0.00  0.00    -0.235 NA
ATOM     13  C   UNL     1      -3.921  -0.427  24.134  0.00  0.00    +0.139 A 
ATOM     14  C   UNL     1      -4.232  -1.176  23.982  0.00  0.00    +0.074 C 
ATOM     15  N   UNL     1      -4.414   0.176  24.406  0.00  0.00    -0.231 NA
BRANCH   9   6
ATOM      3  C   UNL     1      -5.582   2.735  25.376  0.00  0.00    +0.139 A 
ATOM      4  C   UNL     1      -5.620   1.985  25.717  0.00  0.00    +0.037 A 
ATOM      5  C   UNL     1      -5.128   1.381  25.445  0.00  0.00    +0.005 A 
ATOM      6  C   UNL     1      -4.597   1.529  24.831  0.00  0.00    +0.018 A 
ATOM      7  C   UNL     1      -4.558   2.278  24.489  0.00  0.00    +0.005 A 
ATOM      8  C   UNL     1      -5.051   2.882  24.762  0.00  0.00    +0.037 A 
BRANCH   3   2
ATOM      1  C   UNL     1      -5.808   4.119  25.647  0.00  0.00    +0.252 C 
ATOM      2  O   UNL     1      -6.074   3.338  25.648  0.00  0.00    -0.471 OA
ENDBRANCH   3   2
ENDBRANCH   9   6
ENDBRANCH  16  11
BRANCH  23  24
ATOM     24  C   UNL     1       0.296   1.046  23.678  0.00  0.00    +0.226 C 
BRANCH  24  25
ATOM     25  O   UNL     1       0.772   0.551  23.222  0.00  0.00    -0.432 OA
BRANCH  25  26
ATOM     26  C   UNL     1       1.593   0.579  23.301  0.00  0.00    +0.425 C 
ATOM     27  O   UNL     1       1.940   1.142  23.794  0.00  0.00    -0.224 OA
ATOM     28  N   UNL     1       2.067   0.046  22.886  0.00  0.00    -0.142 NA
BRANCH  28  29
ATOM     29  C   UNL     1       2.887   0.075  22.965  0.00  0.00    +0.077 A 
ATOM     30  C   UNL     1       3.310   0.712  22.654  0.00  0.00    +0.017 A 
ATOM     31  C   UNL     1       4.130   0.741  22.733  0.00  0.00    +0.004 A 
ATOM     32  C   UNL     1       4.529   0.134  23.124  0.00  0.00    +0.035 A 
ATOM     33  C   UNL     1       4.107  -0.503  23.435  0.00  0.00    +0.004 A 
ATOM     34  C   UNL     1       3.286  -0.532  23.356  0.00  0.00    +0.017 A 
BRANCH  32  35
ATOM     35  C   UNL     1       5.350   0.164  23.202  0.00  0.00    +0.173 C 
ATOM     36  C   UNL     1       5.688   0.500  23.875  0.00  0.00    +0.077 C 
ATOM     37  O   UNL     1       5.831  -0.144  22.607  0.00  0.00    -0.291 OA
ENDBRANCH  32  35
ENDBRANCH  28  29
ENDBRANCH  25  26
ENDBRANCH  24  25
ENDBRANCH  23  24
TORSDOF 8
ENDMDL
MODEL 2
REMARK VINA RESULT:     -10.1      2.712      4.765
REMARK  Name = 
REMARK  8 active torsions:
REMARK  status: ('A' for Active; 'I' for Inactive)
REMARK    1  A    between atoms: O_2  and  C_3
REMARK    2  A    between atoms: C_6  and  C_9
REMARK    3  A    between atoms: C_11  and  C_16
REMARK    4  A    between atoms: C_23  and  C_24
REMARK    5  A    between atoms: C_24  and  O_25
REMARK    6  A    between atoms: O_25  and  C_26
REMARK    7  A    between atoms: N_28  and  C_29
REMARK    8  A    between atoms: C_32  and  C_35
REMARK                            x       y       z     vdW  Elec       q    Type
REMARK                         _______ _______ _______ _____ _____    ______ ____
ROOT
ATOM     16  C   UNL     1      -0.885   2.515  24.621  0.00  0.00    +0.056 C 
ATOM     17  C   UNL     1      -1.077   2.133  23.971  0.00  0.00    +0.078 C 
ATOM     18  N   UNL     1      -0.507   1.902  24.522  0.00  0.00    -0.270 NA
ATOM     19  C   UNL     1      -0.493   2.630  25.277  0.00  0.00    +0.072 C 
ATOM     20  C   UNL     1      -0.254   2.860  25.839  0.00  0.00    +0.018 C 
ATOM     21  C   UNL     1      -0.325   2.282  25.157  0.00  0.00    +0.010 C 
ATOM     22  C   UNL     1       0.208   1.585  25.185  0.00  0.00    +0.020 C 
ATOM     23  C   UNL     1       0.050   1.180  24.558  0.00  0.00    +0.102 C 
ENDROOT
BRANCH  16  11
ATOM      9  C   UNL     1      -2.498   3.905  25.104  0.00  0.00    +0.084 A 
ATOM     10  C   UNL     1      -2.096   3.203  24.947  0.00  0.00    +0.034 A 
ATOM     11  C   UNL     1      -1.288   3.219  24.779  0.00  0.00    +0.063 A 
ATOM     12  N   UNL     1      -0.883   3.936  24.769  0.00  0.00    -0.235 NA
ATOM     13  C   UNL     1      -1.285   4.639  24.927  0.00  0.00    +0.139 A 
ATOM     14  C   UNL     1      -0.880   5.358  24.917  0.00  0.00    +0.074 C 
ATOM     15  N   UNL     1      -2.093   4.624  25.094  0.00  0.00    -0.231 NA
BRANCH   9   6
ATOM      3  C   UNL     1      -4.921   3.857  25.607  0.00  0.00    +0.139 A 
ATOM      4  C   UNL     1      -4.373   3.910  26.222  0.00  0.00    +0.037 A 
ATOM      5  C   UNL     1      -3.566   3.926  26.054  0.00  0.00    +0.005 A 
ATOM      6  C   UNL     1      -3.306   3.889  25.272  0.00  0.00    +0.018 A 
ATOM      7  C   UNL     1      -3.853   3.837  24.657  0.00  0.00    +0.005 A 
ATOM      8  C   UNL     1      -4.661   3.821  24.825  0.00  0.00    +0.037 A 
BRANCH   3   2
ATOM      1  C   UNL     1      -6.138   3.125  25.765  0.00  0.00    +0.252 C 
ATOM      2  O   UNL     1      -5.729   3.841  25.774  0.00  0.00    -0.471 OA
ENDBRANCH   3   2
ENDBRANCH   9   6
ENDBRANCH  16  11
BRANCH  23  24
ATOM     24  C   UNL     1       0.259   0.494  24.152  0.00  0.00    +0.226 C 
BRANCH  24  25
ATOM     25  O   UNL     1       0.183  -0.241  24.518  0.00  0.00    -0.432 OA
BRANCH  25  26
ATOM     26  C   UNL     1      -0.474  -0.715  24.360  0.00  0.00    +0.425 C 
ATOM     27  O   UNL     1      -0.662  -0.911  23.581  0.00  0.00    -0.224 OA
ATOM     28  N   UNL     1      -0.942  -0.992  24.980  0.00  0.00    -0.142 NA
BRANCH  28  29
ATOM     29  C   UNL     1      -1.599  -1.466  24.821  0.00  0.00    +0.077 A 
ATOM     30  C   UNL     1      -1.494  -2.249  24.583  0.00  0.00    +0.017 A 
ATOM     31  C   UNL     1      -2.151  -2.723  24.424  0.00  0.00    +0.004 A 
ATOM     32  C   UNL     1      -2.912  -2.414  24.503  0.00  0.00    +0.035 A 
ATOM     33  C   UNL     1      -3.016  -1.631  24.741  0.00  0.00    +0.004 A 
ATOM     34  C   UNL     1      -2.359  -1.157  24.900  0.00  0.00    +0.017 A 
BRANCH  32  35
ATOM     35  C   UNL     1      -3.567  -2.888  24.344  0.00  0.00    +0.173 C 
ATOM     36  C   UNL     1      -4.170  -2.610  23.855  0.00  0.00    +0.077 C 
ATOM     37  O   UNL     1      -3.619  -3.642  24.675  0.00  0.00    -0.291 OA
ENDBRANCH  32  35
ENDBRANCH  28  29
ENDBRANCH  25  26
ENDBRANCH  24  25
ENDBRANCH  23  24
TORSDOF 8
ENDMDL
MODEL 3
REMARK VINA RESULT:      -9.0      1.352      1.976
REMARK  Name = 
REMARK  8 active torsions:
REMARK  status: ('A' for Active; 'I' for Inactive)
REMARK    1  A    between atoms: O_2  and  C_3
REMARK    2  A    between atoms: C_6  and  C_9
REMARK    3  A    between atoms: C_11  and  C_16
REMARK    4  A    between atoms: C_23  and  C_24
REMARK    5  A    between atoms: C_24  and  O_25
REMARK    6  A    between atoms: O_25  and  C_26
REMARK    7  A    between atoms: N_28  and  C_29
REMARK    8  A    between atoms: C_32  and  C_35
REMARK                            x       y       z     vdW  Elec       q    Type
REMARK                         _______ _______ _______ _____ _____    ______ ____
ROOT
ATOM     16  C   UNL     1      -1.325   1.777  24.337  0.00  0.00    +0.056 C 
ATOM     17  C   UNL     1      -0.904   1.378  24.855  0.00  0.00    +0.078 C 
ATOM     18  N   UNL     1      -0.873   1.295  24.035  0.00  0.00    -0.270 NA
ATOM     19  C   UNL     1      -1.561   1.975  23.629  0.00  0.00    +0.072 C 
ATOM     20  C   UNL     1      -1.855   2.244  23.112  0.00  0.00    +0.018 C 
ATOM     21  C   UNL     1      -1.290   1.690  23.533  0.00  0.00    +0.010 C 
ATOM     22  C   UNL     1      -0.810   1.165  23.019  0.00  0.00    +0.020 C 
ATOM     23  C   UNL     1      -0.378   0.752  23.494  0.00  0.00    +0.102 C 
ENDROOT
BRANCH  16  11
ATOM      9  C   UNL     1      -3.181   2.711  25.009  0.00  0.00    +0.084 A 
ATOM     10  C   UNL     1      -2.653   2.150  24.714  0.00  0.00    +0.034 A 
ATOM     11  C   UNL     1      -1.854   2.339  24.633  0.00  0.00    +0.063 A 
ATOM     12  N   UNL     1      -1.583   3.087  24.847  0.00  0.00    -0.235 NA
ATOM     13  C   UNL     1      -2.111   3.648  25.142  0.00  0.00    +0.139 A 
ATOM     14  C   UNL     1      -1.841   4.398  25.356  0.00  0.00    +0.074 C 
ATOM     15  N   UNL     1      -2.910   3.460  25.223  0.00  0.00    -0.231 NA
BRANCH   9   6
ATOM      3  C   UNL     1      -5.578   2.144  25.251  0.00  0.00    +0.139 A 
ATOM      4  C   UNL     1      -5.001   1.598  25.472  0.00  0.00    +0.037 A 
ATOM      5  C   UNL     1      -4.202   1.787  25.391  0.00  0.00    +0.005 A 
ATOM      6  C   UNL     1      -3.981   2.522  25.090  0.00  0.00    +0.018 A 
ATOM      7  C   UNL     1      -4.557   3.069  24.869  0.00  0.00    +0.005 A 
ATOM      8  C   UNL     1      -5.357   2.880  24.950  0.00  0.00    +0.037 A 
BRANCH   3   2
ATOM      1  C   UNL     1      -6.782   1.600  24.708  0.00  0.00    +0.252 C 
ATOM      2  O   UNL     1      -6.377   1.956  25.332  0.00  0.00    -0.471 OA
ENDBRANCH   3   2
ENDBRANCH   9   6
ENDBRANCH  16  11
BRANCH  23  24
ATOM     24  C   UNL     1       0.198   0.162  23.509  0.00  0.00    +0.226 C 
BRANCH  24  25
ATOM     25  O   UNL     1       0.753   0.113  22.901  0.00  0.00    -0.432 OA
BRANCH  25  26
ATOM     26  C   UNL     1       1.554   0.028  23.079  0.00  0.00    +0.425 C 
ATOM     27  O   UNL     1       1.785  -0.417  23.734  0.00  0.00    -0.224 OA
ATOM     28  N   UNL     1       2.124   0.386  22.602  0.00  0.00    -0.142 NA
BRANCH  28  29
ATOM     29  C   UNL     1       2.925   0.301  22.781  0.00  0.00    +0.077 A 
ATOM     30  C   UNL     1       3.412   0.965  22.818  0.00  0.00    +0.017 A 
ATOM     31  C   UNL     1       4.213   0.879  22.997  0.00  0.00    +0.004 A 
ATOM     32  C   UNL     1       4.527   0.129  23.138  0.00  0.00    +0.035 A 
ATOM     33  C   UNL     1       4.039  -0.535  23.101  0.00  0.00    +0.004 A 
ATOM     34  C   UNL     1       3.238  -0.449  22.922  0.00  0.00    +0.017 A 
BRANCH  32  35
ATOM     35  C   UNL     1       5.328   0.045  23.317  0.00  0.00    +0.173 C 
ATOM     36  C   UNL     1       5.596   0.181  24.085  0.00  0.00    +0.077 C 
ATOM     37  O   UNL     1       5.859  -0.177  22.726  0.00  0.00    -0.291 OA
ENDBRANCH  32  35
ENDBRANCH  28  29
ENDBRANCH  25  26
ENDBRANCH  24  25
ENDBRANCH  23  24
TORSDOF 8
ENDMDL
MODEL 4
REMARK VINA RESULT:      -9.0      1.469      2.735
REMARK  Name = 
REMARK  8 active torsions:
REMARK  status: ('A' for Active; 'I' for Inactive)
REMARK    1  A    between atoms: O_2  and  C_3
REMARK    2  A    between atoms: C_6  and  C_9
REMARK    3  A    between atoms: C_11  and  C_16
REMARK    4  A    between atoms: C_23  and  C_24
REMARK    5  A    between atoms: C_24  and  O_25
REMARK    6  A    between atoms: O_25  and  C_26
REMARK    7  A    between atoms: N_28  and  C_29
REMARK    8  A    between atoms: C_32  and  C_35
REMARK                            x       y       z     vdW  Elec       q    Type
REMARK                         _______ _______ _______ _____ _____    ______ ____
ROOT
ATOM     16  C   UNL     1      -1.531   1.011  24.285  0.00  0.00    +0.056 C 
ATOM     17  C   UNL     1      -0.963   0.739  24.742  0.00  0.00    +0.078 C 
ATOM     18  N   UNL     1      -0.865   1.209  24.071  0.00  0.00    -0.270 NA
ATOM     19  C   UNL     1      -1.822   1.402  23.686  0.00  0.00    +0.072 C 
ATOM     20  C   UNL     1      -2.209   1.680  23.240  0.00  0.00    +0.018 C 
ATOM     21  C   UNL     1      -1.427   1.472  23.628  0.00  0.00    +0.010 C 
ATOM     22  C   UNL     1      -0.707   1.792  23.241  0.00  0.00    +0.020 C 
ATOM     23  C   UNL     1      -0.121   1.546  23.664  0.00  0.00    +0.102 C 
ENDROOT
BRANCH  16  11
ATOM      9  C   UNL     1      -3.347  -0.162  24.595  0.00  0.00    +0.084 A 
ATOM     10  C   UNL     1      -2.572   0.037  24.392  0.00  0.00    +0.034 A 
ATOM     11  C   UNL     1      -2.307   0.812  24.488  0.00  0.00    +0.063 A 
ATOM     12  N   UNL     1      -2.815   1.388  24.787  0.00  0.00    -0.235 NA
ATOM     13  C   UNL     1      -3.589   1.190  24.990  0.00  0.00    +0.139 A 
ATOM     14  C   UNL     1      -4.098   1.766  25.289  0.00  0.00    +0.074 C 
ATOM     15  N   UNL     1      -3.856   0.415  24.894  0.00  0.00    -0.231 NA
BRANCH   9   6
ATOM      3  C   UNL     1      -4.144  -2.487  24.305  0.00  0.00    +0.139 A 
ATOM      4  C   UNL     1      -4.377  -1.902  23.772  0.00  0.00    +0.037 A 
ATOM      5  C   UNL     1      -4.111  -1.126  23.869  0.00  0.00    +0.005 A 
ATOM      6  C   UNL     1      -3.613  -0.937  24.498  0.00  0.00    +0.018 A 
ATOM      7  C   UNL     1      -3.380  -1.522  25.031  0.00  0.00    +0.005 A 
ATOM      8  C   UNL     1      -3.646  -2.297  24.935  0.00  0.00    +0.037 A 
BRANCH   3   2
ATOM      1  C   UNL     1      -3.928  -3.820  23.839  0.00  0.00    +0.252 C 
ATOM      2  O   UNL     1      -4.409  -3.262  24.210  0.00  0.00    -0.471 OA
ENDBRANCH   3   2
ENDBRANCH   9   6
ENDBRANCH  16  11
BRANCH  23  24
ATOM     24  C   UNL     1       0.701   1.570  23.719  0.00  0.00    +0.226 C 
BRANCH  24  25
ATOM     25  O   UNL     1       1.164   1.197  23.147  0.00  0.00    -0.432 OA
BRANCH  25  26
ATOM     26  C   UNL     1       1.963   1.053  23.291  0.00  0.00    +0.425 C 
ATOM     27  O   UNL     1       2.344   1.434  23.916  0.00  0.00    -0.224 OA
ATOM     28  N   UNL     1       2.382   0.530  22.810  0.00  0.00    -0.142 NA
BRANCH  28  29
ATOM     29  C   UNL     1       3.182   0.387  22.955  0.00  0.00    +0.077 A 
ATOM     30  C   UNL     1       3.744   0.962  22.769  0.00  0.00    +0.017 A 
ATOM     31  C   UNL     1       4.543   0.818  22.914  0.00  0.00    +0.004 A 
ATOM     32  C   UNL     1       4.781   0.101  23.244  0.00  0.00    +0.035 A 
ATOM     33  C   UNL     1       4.219  -0.474  23.430  0.00  0.00    +0.004 A 
ATOM     34  C   UNL     1       3.419  -0.331  23.285  0.00  0.00    +0.017 A 
BRANCH  32  35
ATOM     35  C   UNL     1       5.580  -0.041  23.389  0.00  0.00    +0.173 C 
ATOM     36  C   UNL     1       5.869  -0.030  24.161  0.00  0.00    +0.077 C 
ATOM     37  O   UNL     1       6.091  -0.196  22.759  0.00  0.00    -0.291 OA
ENDBRANCH  32  35
ENDBRANCH  28  29
ENDBRANCH  25  26
ENDBRANCH  24  25
ENDBRANCH  23  24
TORSDOF 8
ENDMDL
MODEL 5
REMARK VINA RESULT:      -8.2      1.487      7.678
REMARK  Name = 
REMARK  8 active torsions:
REMARK  status: ('A' for Active; 'I' for Inactive)
REMARK    1  A    between atoms: O_2  and  C_3
REMARK    2  A    between atoms: C_6  and  C_9
REMARK    3  A    between atoms: C_11  and  C_16
REMARK    4  A    between atoms: C_23  and  C_24
REMARK    5  A    between atoms: C_24  and  O_25
REMARK    6  A    between atoms: O_25  and  C_26
REMARK    7  A    between atoms: N_28  and  C_29
REMARK    8  A    between atoms: C_32  and  C_35
REMARK                            x       y       z     vdW  Elec       q    Type
REMARK                         _______ _______ _______ _____ _____    ______ ____
ROOT
ATOM     16  C   UNL     1       0.562   0.638  23.544  0.00  0.00    +0.056 C 
ATOM     17  C   UNL     1       0.524   1.412  23.612  0.00  0.00    +0.078 C 
ATOM     18  N   UNL     1       0.047   0.864  24.004  0.00  0.00    -0.270 NA
ATOM     19  C   UNL     1       0.352  -0.090  23.694  0.00  0.00    +0.072 C 
ATOM     20  C   UNL     1       0.293  -0.740  23.716  0.00  0.00    +0.018 C 
ATOM     21  C   UNL     1       0.090   0.106  23.932  0.00  0.00    +0.010 C 
ATOM     22  C   UNL     1      -0.564   0.211  24.508  0.00  0.00    +0.020 C 
ATOM     23  C   UNL     1      -0.634   0.965  24.604  0.00  0.00    +0.102 C 
ENDROOT
BRANCH  16  11
ATOM      9  C   UNL     1       2.503   0.086  22.711  0.00  0.00    +0.084 A 
ATOM     10  C   UNL     1       1.933   0.391  23.223  0.00  0.00    +0.034 A 
ATOM     11  C   UNL     1       1.133   0.331  23.031  0.00  0.00    +0.063 A 
ATOM     12  N   UNL     1       0.902  -0.034  22.329  0.00  0.00    -0.235 NA
ATOM     13  C   UNL     1       1.472  -0.340  21.818  0.00  0.00    +0.139 A 
ATOM     14  C   UNL     1       1.243  -0.705  21.115  0.00  0.00    +0.074 C 
ATOM     15  N   UNL     1       2.273  -0.280  22.008  0.00  0.00    -0.231 NA
BRANCH   9   6
ATOM      3  C   UNL     1       4.904   0.266  23.284  0.00  0.00    +0.139 A 
ATOM      4  C   UNL     1       4.517   0.901  22.928  0.00  0.00    +0.037 A 
ATOM      5  C   UNL     1       3.716   0.841  22.737  0.00  0.00    +0.005 A 
ATOM      6  C   UNL     1       3.304   0.145  22.902  0.00  0.00    +0.018 A 
ATOM      7  C   UNL     1       3.691  -0.490  23.258  0.00  0.00    +0.005 A 
ATOM      8  C   UNL     1       4.492  -0.430  23.450  0.00  0.00    +0.037 A 
BRANCH   3   2
ATOM      1  C   UNL     1       6.062  -0.257  23.938  0.00  0.00    +0.252 C 
ATOM      2  O   UNL     1       5.704   0.325  23.476  0.00  0.00    -0.471 OA
ENDBRANCH   3   2
ENDBRANCH   9   6
ENDBRANCH  16  11
BRANCH  23  24
ATOM     24  C   UNL     1      -1.069   1.535  25.010  0.00  0.00    +0.226 C 
BRANCH  24  25
ATOM     25  O   UNL     1      -1.594   2.023  24.600  0.00  0.00    -0.432 OA
BRANCH  25  26
ATOM     26  C   UNL     1      -2.326   2.210  24.929  0.00  0.00    +0.425 C 
ATOM     27  O   UNL     1      -2.409   2.262  25.748  0.00  0.00    -0.224 OA
ATOM     28  N   UNL     1      -2.976   2.346  24.440  0.00  0.00    -0.142 NA
BRANCH  28  29
ATOM     29  C   UNL     1      -3.709   2.534  24.769  0.00  0.00    +0.077 A 
ATOM     30  C   UNL     1      -3.869   3.308  25.006  0.00  0.00    +0.017 A 
ATOM     31  C   UNL     1      -4.602   3.495  25.336  0.00  0.00    +0.004 A 
ATOM     32  C   UNL     1      -5.175   2.909  25.429  0.00  0.00    +0.035 A 
ATOM     33  C   UNL     1      -5.015   2.135  25.193  0.00  0.00    +0.004 A 
ATOM     34  C   UNL     1      -4.282   1.947  24.863  0.00  0.00    +0.017 A 
BRANCH  32  35
ATOM     35  C   UNL     1      -5.907   3.097  25.759  0.00  0.00    +0.173 C 
ATOM     36  C   UNL     1      -6.372   2.506  26.098  0.00  0.00    +0.077 C 
ATOM     37  O   UNL     1      -6.173   3.878  25.749  0.00  0.00    -0.291 OA
ENDBRANCH  32  35
ENDBRANCH  28  29
ENDBRANCH  25  26
ENDBRANCH  24  25
ENDBRANCH  23  24
TORSDOF 8
ENDMDL
MODEL 6
REMARK VINA RESULT:      -8.0      3.221      5.782
REMARK  Name = 
REMARK  8 active torsions:
REMARK  status: ('A' for Active; 'I' for Inactive)
REMARK    1  A    between atoms: O_2  and  C_3
REMARK    2  A    between atoms: C_6  and  C_9
REMARK    3  A    between atoms: C_11  and  C_16
REMARK    4  A    between atoms: C_23  and  C_24
REMARK    5  A    between atoms: C_24  and  O_25
REMARK    6  A    between atoms: O_25  and  C_26
REMARK    7  A    between atoms: N_28  and  C_29
REMARK    8  A    between atoms: C_32  and  C_35
REMARK                            x       y       z     vdW  Elec       q    Type
REMARK                         _______ _______ _______ _____ _____    ______ ____
ROOT
ATOM     16  C   UNL     1      -4.198   0.273  24.462  0.00  0.00    +0.056 C 
ATOM     17  C   UNL     1      -4.042   0.802  23.913  0.00  0.00    +0.078 C 
ATOM     18  N   UNL     1      -4.484   0.927  24.599  0.00  0.00    -0.270 NA
ATOM     19  C   UNL     1      -4.506   0.019  25.123  0.00  0.00    +0.072 C 
ATOM     20  C   UNL     1      -4.697  -0.335  25.638  0.00  0.00    +0.018 C 
ATOM     21  C   UNL     1      -4.633   0.403  25.133  0.00  0.00    +0.010 C 
ATOM     22  C   UNL     1      -5.039   1.118  25.441  0.00  0.00    +0.020 C 
ATOM     23  C   UNL     1      -4.909   1.666  24.926  0.00  0.00    +0.102 C 
ENDROOT
BRANCH  16  11
ATOM      9  C   UNL     1      -2.808  -1.411  24.446  0.00  0.00    +0.084 A 
ATOM     10  C   UNL     1      -3.112  -0.652  24.556  0.00  0.00    +0.034 A 
ATOM     11  C   UNL     1      -3.894  -0.487  24.352  0.00  0.00    +0.063 A 
ATOM     12  N   UNL     1      -4.373  -1.081  24.038  0.00  0.00    -0.235 NA
ATOM     13  C   UNL     1      -4.069  -1.840  23.928  0.00  0.00    +0.139 A 
ATOM     14  C   UNL     1      -4.547  -2.434  23.614  0.00  0.00    +0.074 C 
ATOM     15  N   UNL     1      -3.287  -2.005  24.131  0.00  0.00    -0.231 NA
BRANCH   9   6
ATOM      3  C   UNL     1      -0.462  -1.905  25.057  0.00  0.00    +0.139 A 
ATOM      4  C   UNL     1      -1.065  -2.418  25.290  0.00  0.00    +0.037 A 
ATOM      5  C   UNL     1      -1.847  -2.253  25.086  0.00  0.00    +0.005 A 
ATOM      6  C   UNL     1      -2.026  -1.576  24.650  0.00  0.00    +0.018 A 
ATOM      7  C   UNL     1      -1.423  -1.063  24.417  0.00  0.00    +0.005 A 
ATOM      8  C   UNL     1      -0.640  -1.228  24.621  0.00  0.00    +0.037 A 
BRANCH   3   2
ATOM      1  C   UNL     1       0.517  -2.798  25.593  0.00  0.00    +0.252 C 
ATOM      2  O   UNL     1       0.321  -2.069  25.261  0.00  0.00    -0.471 OA
ENDBRANCH   3   2
ENDBRANCH   9   6
ENDBRANCH  16  11
BRANCH  23  24
ATOM     24  C   UNL     1      -5.062   2.459  24.762  0.00  0.00    +0.226 C 
BRANCH  24  25
ATOM     25  O   UNL     1      -4.798   3.045  25.278  0.00  0.00    -0.432 OA
BRANCH  25  26
ATOM     26  C   UNL     1      -4.128   3.489  25.092  0.00  0.00    +0.425 C 
ATOM     27  O   UNL     1      -4.084   3.885  24.370  0.00  0.00    -0.224 OA
ATOM     28  N   UNL     1      -3.502   3.537  25.627  0.00  0.00    -0.142 NA
BRANCH  28  29
ATOM     29  C   UNL     1      -2.832   3.981  25.440  0.00  0.00    +0.077 A 
ATOM     30  C   UNL     1      -2.155   3.606  25.154  0.00  0.00    +0.017 A 
ATOM     31  C   UNL     1      -1.485   4.050  24.967  0.00  0.00    +0.004 A 
ATOM     32  C   UNL     1      -1.492   4.869  25.065  0.00  0.00    +0.035 A 
ATOM     33  C   UNL     1      -2.169   5.244  25.351  0.00  0.00    +0.004 A 
ATOM     34  C   UNL     1      -2.839   4.800  25.538  0.00  0.00    +0.017 A 
BRANCH  32  35
ATOM     35  C   UNL     1      -0.822   5.312  24.878  0.00  0.00    +0.173 C 
ATOM     36  C   UNL     1      -0.138   4.935  24.613  0.00  0.00    +0.077 C 
ATOM     37  O   UNL     1      -0.838   6.133  24.956  0.00  0.00    -0.291 OA
ENDBRANCH  32  35
ENDBRANCH  28  29
ENDBRANCH  25  26
ENDBRANCH  24  25
ENDBRANCH  23  24
TORSDOF 8
ENDMDL
MODEL 7
REMARK VINA RESULT:      -7.8     14.578     17.185
REMARK  Name = 
REMARK  8 active torsions:
REMARK  status: ('A' for Active; 'I' for Inactive)
REMARK    1  A    between atoms: O_2  and  C_3
REMARK    2  A    between atoms: C_6  and  C_9
REMARK    3  A    between atoms: C_11  and  C_16
REMARK    4  A    between atoms: C_23  and  C_24
REMARK    5  A    between atoms: C_24  and  O_25
REMARK    6  A    between atoms: O_25  and  C_26
REMARK    7  A    between atoms: N_28  and  C_29
REMARK    8  A    between atoms: C_32  and  C_35
REMARK                            x       y       z     vdW  Elec       q    Type
REMARK                         _______ _______ _______ _____ _____    ______ ____
ROOT
ATOM     16  C   UNL     1      -5.470 -10.167  12.215  0.00  0.00    +0.056 C 
ATOM     17  C   UNL     1      -5.475 -10.773  12.703  0.00  0.00    +0.078 C 
ATOM     18  N   UNL     1      -5.939 -10.093  12.765  0.00  0.00    -0.270 NA
ATOM     19  C   UNL     1      -5.693  -9.475  11.955  0.00  0.00    +0.072 C 
ATOM     20  C   UNL     1      -5.773  -8.921  11.619  0.00  0.00    +0.018 C 
ATOM     21  C   UNL     1      -5.928  -9.503  12.283  0.00  0.00    +0.010 C 
ATOM     22  C   UNL     1      -6.530  -9.262  12.874  0.00  0.00    +0.020 C 
ATOM     23  C   UNL     1      -6.566  -9.836  13.376  0.00  0.00    +0.102 C 
ENDROOT
BRANCH  16  11
ATOM      9  C   UNL     1      -3.646 -10.019  11.023  0.00  0.00    +0.084 A 
ATOM     10  C   UNL     1      -4.163  -9.983  11.665  0.00  0.00    +0.034 A 
ATOM     11  C   UNL     1      -4.953 -10.204  11.572  0.00  0.00    +0.063 A 
ATOM     12  N   UNL     1      -5.225 -10.463  10.838  0.00  0.00    -0.235 NA
ATOM     13  C   UNL     1      -4.708 -10.499  10.196  0.00  0.00    +0.139 A 
ATOM     14  C   UNL     1      -4.980 -10.758   9.461  0.00  0.00    +0.074 C 
ATOM     15  N   UNL     1      -3.919 -10.278  10.288  0.00  0.00    -0.231 NA
BRANCH   9   6
ATOM      3  C   UNL     1      -1.279  -9.355  11.302  0.00  0.00    +0.139 A 
ATOM      4  C   UNL     1      -1.556 -10.048  11.652  0.00  0.00    +0.037 A 
ATOM      5  C   UNL     1      -2.345 -10.270  11.559  0.00  0.00    +0.005 A 
ATOM      6  C   UNL     1      -2.857  -9.798  11.116  0.00  0.00    +0.018 A 
ATOM      7  C   UNL     1      -2.580  -9.104  10.766  0.00  0.00    +0.005 A 
ATOM      8  C   UNL     1      -1.790  -8.882  10.859  0.00  0.00    +0.037 A 
BRANCH   3   2
ATOM      1  C   UNL     1      -0.041  -8.919  10.736  0.00  0.00    +0.252 C 
ATOM      2  O   UNL     1      -0.490  -9.132  11.394  0.00  0.00    -0.471 OA
ENDBRANCH   3   2
ENDBRANCH   9   6
ENDBRANCH  16  11
BRANCH  23  24
ATOM     24  C   UNL     1      -6.948 -10.080  14.065  0.00  0.00    +0.226 C 
BRANCH  24  25
ATOM     25  O   UNL     1      -6.858  -9.646  14.761  0.00  0.00    -0.432 OA
BRANCH  25  26
ATOM     26  C   UNL     1      -7.187  -9.922  15.465  0.00  0.00    +0.425 C 
ATOM     27  O   UNL     1      -7.631 -10.617  15.468  0.00  0.00    -0.224 OA
ATOM     28  N   UNL     1      -7.071  -9.505  16.167  0.00  0.00    -0.142 NA
BRANCH  28  29
ATOM     29  C   UNL     1      -7.399  -9.782  16.871  0.00  0.00    +0.077 A 
ATOM     30  C   UNL     1      -6.920 -10.150  17.434  0.00  0.00    +0.017 A 
ATOM     31  C   UNL     1      -7.249 -10.427  18.138  0.00  0.00    +0.004 A 
ATOM     32  C   UNL     1      -8.057 -10.337  18.280  0.00  0.00    +0.035 A 
ATOM     33  C   UNL     1      -8.536  -9.969  17.718  0.00  0.00    +0.004 A 
ATOM     34  C   UNL     1      -8.207  -9.692  17.013  0.00  0.00    +0.017 A 
BRANCH  32  35
ATOM     35  C   UNL     1      -8.385 -10.614  18.984  0.00  0.00    +0.173 C 
ATOM     36  C   UNL     1      -9.199 -10.733  19.042  0.00  0.00    +0.077 C 
ATOM     37  O   UNL     1      -7.897 -10.773  19.630  0.00  0.00    -0.291 OA
ENDBRANCH  32  35
ENDBRANCH  28  29
ENDBRANCH  25  26
ENDBRANCH  24  25
ENDBRANCH  23  24
TORSDOF 8
ENDMDL
MODEL 8
REMARK VINA RESULT:      -7.4      2.934      6.109
REMARK  Name = 
REMARK  8 active torsions:
REMARK  status: ('A' for Active; 'I' for Inactive)
REMARK    1  A    between atoms: O_2  and  C_3
REMARK    2  A    between atoms: C_6  and  C_9
REMARK    3  A    between atoms: C_11  and  C_16
REMARK    4  A    between atoms: C_23  and  C_24
REMARK    5  A    between atoms: C_24  and  O_25
REMARK    6  A    between atoms: O_25  and  C_26
REMARK    7  A    between atoms: N_28  and  C_29
REMARK    8  A    between atoms: C_32  and  C_35
REMARK                            x       y       z     vdW  Elec       q    Type
REMARK                         _______ _______ _______ _____ _____    ______ ____
ROOT
ATOM     16  C   UNL     1      -0.736   0.252  25.039  0.00  0.00    +0.056 C 
ATOM     17  C   UNL     1      -1.040   0.632  25.646  0.00  0.00    +0.078 C 
ATOM     18  N   UNL     1      -0.652   0.973  25.002  0.00  0.00    -0.270 NA
ATOM     19  C   UNL     1      -0.366   0.192  24.364  0.00  0.00    +0.072 C 
ATOM     20  C   UNL     1      -0.080  -0.018  23.815  0.00  0.00    +0.018 C 
ATOM     21  C   UNL     1      -0.357   0.594  24.410  0.00  0.00    +0.010 C 
ATOM     22  C   UNL     1      -0.175   1.430  24.217  0.00  0.00    +0.020 C 
ATOM     23  C   UNL     1      -0.460   1.841  24.794  0.00  0.00    +0.102 C 
ENDROOT
BRANCH  16  11
ATOM      9  C   UNL     1      -1.596  -1.744  24.830  0.00  0.00    +0.084 A 
ATOM     10  C   UNL     1      -1.526  -0.922  24.834  0.00  0.00    +0.034 A 
ATOM     11  C   UNL     1      -0.807  -0.571  25.034  0.00  0.00    +0.063 A 
ATOM     12  N   UNL     1      -0.159  -1.041  25.231  0.00  0.00    -0.235 NA
ATOM     13  C   UNL     1      -0.229  -1.863  25.227  0.00  0.00    +0.139 A 
ATOM     14  C   UNL     1       0.419  -2.334  25.423  0.00  0.00    +0.074 C 
ATOM     15  N   UNL     1      -0.948  -2.215  25.026  0.00  0.00    -0.231 NA
BRANCH   9   6
ATOM      3  C   UNL     1      -3.754  -2.797  24.228  0.00  0.00    +0.139 A 
ATOM      4  C   UNL     1      -3.734  -2.185  24.781  0.00  0.00    +0.037 A 
ATOM      5  C   UNL     1      -3.015  -1.834  24.981  0.00  0.00    +0.005 A 
ATOM      6  C   UNL     1      -2.316  -2.095  24.629  0.00  0.00    +0.018 A 
ATOM      7  C   UNL     1      -2.336  -2.707  24.076  0.00  0.00    +0.005 A 
ATOM      8  C   UNL     1      -3.055  -3.058  23.875  0.00  0.00    +0.037 A 
BRANCH   3   2
ATOM      1  C   UNL     1      -4.970  -2.786  23.478  0.00  0.00    +0.252 C 
ATOM      2  O   UNL     1      -4.472  -3.148  24.027  0.00  0.00    -0.471 OA
ENDBRANCH   3   2
ENDBRANCH   9   6
ENDBRANCH  16  11
BRANCH  23  24
ATOM     24  C   UNL     1      -0.544   2.614  25.068  0.00  0.00    +0.226 C 
BRANCH  24  25
ATOM     25  O   UNL     1      -1.047   3.137  24.676  0.00  0.00    -0.432 OA
BRANCH  25  26
ATOM     26  C   UNL     1      -1.811   3.266  24.959  0.00  0.00    +0.425 C 
ATOM     27  O   UNL     1      -1.929   3.459  25.752  0.00  0.00    -0.224 OA
ATOM     28  N   UNL     1      -2.456   3.201  24.449  0.00  0.00    -0.142 NA
BRANCH  28  29
ATOM     29  C   UNL     1      -3.220   3.330  24.733  0.00  0.00    +0.077 A 
ATOM     30  C   UNL     1      -3.410   4.046  25.096  0.00  0.00    +0.017 A 
ATOM     31  C   UNL     1      -4.174   4.175  25.380  0.00  0.00    +0.004 A 
ATOM     32  C   UNL     1      -4.749   3.588  25.300  0.00  0.00    +0.035 A 
ATOM     33  C   UNL     1      -4.559   2.872  24.937  0.00  0.00    +0.004 A 
ATOM     34  C   UNL     1      -3.794   2.743  24.654  0.00  0.00    +0.017 A 
BRANCH  32  35
ATOM     35  C   UNL     1      -5.512   3.717  25.584  0.00  0.00    +0.173 C 
ATOM     36  C   UNL     1      -6.006   3.077  25.749  0.00  0.00    +0.077 C 
ATOM     37  O   UNL     1      -5.781   4.488  25.702  0.00  0.00    -0.291 OA
ENDBRANCH  32  35
ENDBRANCH  28  29
ENDBRANCH  25  26
ENDBRANCH  24  25
ENDBRANCH  23  24
TORSDOF 8
ENDMDL
MODEL 9
REMARK VINA RESULT:      -7.2     13.981     15.716
REMARK  Name = 
REMARK  8 active torsions:
REMARK  status: ('A' for Active; 'I' for Inactive)
REMARK    1  A    between atoms: O_2  and  C_3
REMARK    2  A    between atoms: C_6  and  C_9
REMARK    3  A    between atoms: C_11  and  C_16
REMARK    4  A    between atoms: C_23  and  C_24
REMARK    5  A    between atoms: C_24  and  O_25
REMARK    6  A    between atoms: O_25  and  C_26
REMARK    7  A    between atoms: N_28  and  C_29
REMARK    8  A    between atoms: C_32  and  C_35
REMARK                            x       y       z     vdW  Elec       q    Type
REMARK                         _______ _______ _______ _____ _____    ______ ____
ROOT
ATOM     16  C   UNL     1      -6.457 -10.262  15.747  0.00  0.00    +0.056 C 
ATOM     17  C   UNL     1      -6.766 -10.781  15.256  0.00  0.00    +0.078 C 
ATOM     18  N   UNL     1      -6.086 -10.332  15.127  0.00  0.00    -0.270 NA
ATOM     19  C   UNL     1      -5.942  -9.735  15.976  0.00  0.00    +0.072 C 
ATOM     20  C   UNL     1      -5.599  -9.285  16.303  0.00  0.00    +0.018 C 
ATOM     21  C   UNL     1      -5.789  -9.826  15.613  0.00  0.00    +0.010 C 
ATOM     22  C   UNL     1      -5.236  -9.791  14.932  0.00  0.00    +0.020 C 
ATOM     23  C   UNL     1      -5.507 -10.291  14.422  0.00  0.00    +0.102 C 
ENDROOT
BRANCH  16  11
ATOM      9  C   UNL     1      -7.924  -9.585  17.216  0.00  0.00    +0.084 A 
ATOM     10  C   UNL     1      -7.537  -9.700  16.497  0.00  0.00    +0.034 A 
ATOM     11  C   UNL     1      -6.844 -10.147  16.468  0.00  0.00    +0.063 A 
ATOM     12  N   UNL     1      -6.538 -10.479  17.157  0.00  0.00    -0.235 NA
ATOM     13  C   UNL     1      -6.925 -10.364  17.877  0.00  0.00    +0.139 A 
ATOM     14  C   UNL     1      -6.619 -10.696  18.568  0.00  0.00    +0.074 C 
ATOM     15  N   UNL     1      -7.617  -9.917  17.907  0.00  0.00    -0.231 NA
BRANCH   9   6
ATOM      3  C   UNL     1     -10.001  -8.243  17.303  0.00  0.00    +0.139 A 
ATOM      4  C   UNL     1      -9.918  -8.838  16.738  0.00  0.00    +0.037 A 
ATOM      5  C   UNL     1      -9.225  -9.286  16.709  0.00  0.00    +0.005 A 
ATOM      6  C   UNL     1      -8.616  -9.138  17.245  0.00  0.00    +0.018 A 
ATOM      7  C   UNL     1      -8.700  -8.543  17.811  0.00  0.00    +0.005 A 
ATOM      8  C   UNL     1      -9.392  -8.095  17.840  0.00  0.00    +0.037 A 
BRANCH   3   2
ATOM      1  C   UNL     1     -10.719  -7.051  16.980  0.00  0.00    +0.252 C 
ATOM      2  O   UNL     1     -10.694  -7.796  17.333  0.00  0.00    -0.471 OA
ENDBRANCH   3   2
ENDBRANCH   9   6
ENDBRANCH  16  11
BRANCH  23  24
ATOM     24  C   UNL     1      -5.361 -10.606  13.675  0.00  0.00    +0.226 C 
BRANCH  24  25
ATOM     25  O   UNL     1      -4.761 -10.292  13.204  0.00  0.00    -0.432 OA
BRANCH  25  26
ATOM     26  C   UNL     1      -4.825 -10.315  12.383  0.00  0.00    +0.425 C 
ATOM     27  O   UNL     1      -5.475 -10.680  12.030  0.00  0.00    -0.224 OA
ATOM     28  N   UNL     1      -4.239  -9.973  11.913  0.00  0.00    -0.142 NA
BRANCH  28  29
ATOM     29  C   UNL     1      -4.304  -9.997  11.090  0.00  0.00    +0.077 A 
ATOM     30  C   UNL     1      -3.957 -10.613  10.666  0.00  0.00    +0.017 A 
ATOM     31  C   UNL     1      -4.022 -10.637   9.844  0.00  0.00    +0.004 A 
ATOM     32  C   UNL     1      -4.434 -10.043   9.446  0.00  0.00    +0.035 A 
ATOM     33  C   UNL     1      -4.782  -9.427   9.870  0.00  0.00    +0.004 A 
ATOM     34  C   UNL     1      -4.717  -9.403  10.692  0.00  0.00    +0.017 A 
BRANCH  32  35
ATOM     35  C   UNL     1      -4.499 -10.067   8.624  0.00  0.00    +0.173 C 
ATOM     36  C   UNL     1      -4.843  -9.437   8.218  0.00  0.00    +0.077 C 
ATOM     37  O   UNL     1      -4.219 -10.723   8.209  0.00  0.00    -0.291 OA
ENDBRANCH  32  35
ENDBRANCH  28  29
ENDBRANCH  25  26
ENDBRANCH  24  25
ENDBRANCH  23  24
TORSDOF 8
ENDMDL
