MODEL 1
REMARK VINA RESULT:      -9.1      0.000      0.000
REMARK  Name = 
REMARK  8 active torsions:
REMARK  status: ('A' for Active; 'I' for Inactive)
REMARK    1  A    between atoms: O_2  and  C_3
REMARK    2  A    between atoms: C_3  and  C_4
REMARK    3  A    between atoms: C_4  and  N_5
REMARK    4  A    between atoms: N_5  and  C_6
REMARK    5  A    between atoms: C_9  and  C_12
REMARK    6  A    between atoms: C_15  and  C_17
REMARK    7  A    between atoms: N_21  and  C_22
REMARK    8  A    between atoms: C_22  and  C_23
REMARK                            x       y       z     vdW  Elec       q    Type
REMARK                         _______ _______ _______ _____ _____    ______ ____
ROOT
ATOM     12  C   UNL     1      -0.943  -0.057  24.432  0.00  0.00    +0.205 A 
ATOM     13  N   UNL     1      -0.989  -0.183  25.246  0.00  0.00    -0.056 NA
ATOM     14  O   UNL     1      -1.787  -0.195  25.456  0.00  0.00    -0.336 OA
ATOM     15  C   UNL     1      -2.233  -0.076  24.772  0.00  0.00    +0.251 A 
ATOM     16  N   UNL     1      -1.711   0.009  24.139  0.00  0.00    -0.190 NA
ENDROOT
BRANCH  12   9
ATOM      6  C   UNL     1       1.138   0.097  23.099  0.00  0.00    +0.148 A 
ATOM      7  C   UNL     1       0.757   0.784  23.351  0.00  0.00    +0.036 A 
ATOM      8  C   UNL     1       0.064   0.733  23.794  0.00  0.00    +0.008 A 
ATOM      9  C   UNL     1      -0.249  -0.006  23.987  0.00  0.00    +0.058 A 
ATOM     10  C   UNL     1       0.131  -0.694  23.737  0.00  0.00    +0.103 A 
ATOM     11  N   UNL     1       0.825  -0.642  23.292  0.00  0.00    -0.228 NA
BRANCH   6   5
ATOM      5  N   UNL     1       1.831   0.148  22.656  0.00  0.00    -0.218 NA
BRANCH   5   4
ATOM      4  C   UNL     1       2.511   0.477  22.989  0.00  0.00    +0.146 C 
BRANCH   4   3
ATOM      3  C   UNL     1       3.232   0.420  22.593  0.00  0.00    +0.166 C 
BRANCH   3   2
ATOM      1  C   UNL     1       4.612   0.517  22.952  0.00  0.00    +0.174 C 
ATOM      2  O   UNL     1       3.876   0.872  22.843  0.00  0.00    -0.349 OA
ENDBRANCH   3   2
ENDBRANCH   4   3
ENDBRANCH   5   4
ENDBRANCH   6   5
ENDBRANCH  12   9
BRANCH  15  17
ATOM     17  C   UNL     1      -3.056  -0.048  24.730  0.00  0.00    +0.138 C 
ATOM     18  C   UNL     1      -3.559  -0.694  24.628  0.00  0.00    +0.027 C 
ATOM     19  C   UNL     1      -4.336  -0.413  24.617  0.00  0.00    +0.019 C 
ATOM     20  C   UNL     1      -4.311   0.407  24.712  0.00  0.00    +0.073 C 
ATOM     21  N   UNL     1      -3.521   0.632  24.782  0.00  0.00    -0.263 NA
BRANCH  21  22
ATOM     22  C   UNL     1      -3.243   1.402  24.885  0.00  0.00    +0.100 C 
BRANCH  22  23
ATOM     23  C   UNL     1      -3.771   2.037  24.861  0.00  0.00    -0.003 A 
ATOM     24  C   UNL     1      -3.884   2.453  24.158  0.00  0.00    +0.000 A 
ATOM     25  C   UNL     1      -4.411   3.087  24.135  0.00  0.00    +0.040 A 
ATOM     26  C   UNL     1      -4.824   3.306  24.814  0.00  0.00    +0.176 A 
ATOM     27  O   UNL     1      -5.375   3.902  24.958  0.00  0.00    -0.435 OA
ATOM     28  C   UNL     1      -5.602   3.855  25.749  0.00  0.00    +0.429 C 
ATOM     29  O   UNL     1      -5.191   3.229  26.095  0.00  0.00    -0.435 OA
ATOM     30  C   UNL     1      -4.711   2.890  25.518  0.00  0.00    +0.176 A 
ATOM     31  C   UNL     1      -4.184   2.255  25.541  0.00  0.00    +0.037 A 
ENDBRANCH  22  23
ENDBRANCH  21  22
ENDBRANCH  15  17
TORSDOF 8
ENDMDL
MODEL 2
REMARK VINA RESULT:      -8.3      2.265      3.852
REMARK  Name = 
REMARK  8 active torsions:
REMARK  status: ('A' for Active; 'I' for Inactive)
REMARK    1  A    between atoms: O_2  and  C_3
REMARK    2  A    between atoms: C_3  and  C_4
REMARK    3  A    between atoms: C_4  and  N_5
REMARK    4  A    between atoms: N_5  and  C_6
REMARK    5  A    between atoms: C_9  and  C_12
REMARK    6  A    between atoms: C_15  and  C_17
REMARK    7  A    between atoms: N_21  and  C_22
REMARK    8  A    between atoms: C_22  and  C_23
REMARK                            x       y       z     vdW  Elec       q    Type
REMARK                         _______ _______ _______ _____ _____    ______ ____
ROOT
ATOM     12  C   UNL     1      -0.408   1.605  25.144  0.00  0.00    +0.205 A 
ATOM     13  N   UNL     1       0.278   1.913  25.483  0.00  0.00    -0.056 NA
ATOM     14  O   UNL     1       0.200   2.734  25.515  0.00  0.00    -0.336 OA
ATOM     15  C   UNL     1      -0.534   2.932  25.194  0.00  0.00    +0.251 A 
ATOM     16  N   UNL     1      -0.910   2.235  24.965  0.00  0.00    -0.190 NA
ENDROOT
BRANCH  12   9
ATOM      6  C   UNL     1      -0.879  -0.791  24.733  0.00  0.00    +0.148 A 
ATOM      7  C   UNL     1      -1.056  -0.454  25.466  0.00  0.00    +0.036 A 
ATOM      8  C   UNL     1      -0.899   0.343  25.602  0.00  0.00    +0.008 A 
ATOM      9  C   UNL     1      -0.565   0.806  25.006  0.00  0.00    +0.058 A 
ATOM     10  C   UNL     1      -0.388   0.471  24.274  0.00  0.00    +0.103 A 
ATOM     11  N   UNL     1      -0.545  -0.327  24.137  0.00  0.00    -0.228 NA
BRANCH   6   5
ATOM      5  N   UNL     1      -1.036  -1.588  24.596  0.00  0.00    -0.218 NA
BRANCH   5   4
ATOM      4  C   UNL     1      -1.770  -1.905  24.802  0.00  0.00    +0.146 C 
BRANCH   4   3
ATOM      3  C   UNL     1      -2.091  -2.522  24.359  0.00  0.00    +0.166 C 
BRANCH   3   2
ATOM      1  C   UNL     1      -3.469  -2.890  24.279  0.00  0.00    +0.174 C 
ATOM      2  O   UNL     1      -2.735  -2.948  24.651  0.00  0.00    -0.349 OA
ENDBRANCH   3   2
ENDBRANCH   4   3
ENDBRANCH   5   4
ENDBRANCH   6   5
ENDBRANCH  12   9
BRANCH  15  17
ATOM     17  C   UNL     1      -0.838   3.695  25.117  0.00  0.00    +0.138 C 
ATOM     18  C   UNL     1      -0.501   4.311  24.683  0.00  0.00    +0.027 C 
ATOM     19  C   UNL     1      -0.988   4.973  24.759  0.00  0.00    +0.019 C 
ATOM     20  C   UNL     1      -1.626   4.766  25.239  0.00  0.00    +0.073 C 
ATOM     21  N   UNL     1      -1.534   3.977  25.460  0.00  0.00    -0.263 NA
BRANCH  21  22
ATOM     22  C   UNL     1      -2.046   3.545  25.941  0.00  0.00    +0.100 C 
BRANCH  22  23
ATOM     23  C   UNL     1      -2.862   3.664  25.886  0.00  0.00    -0.003 A 
ATOM     24  C   UNL     1      -3.227   4.237  26.354  0.00  0.00    +0.000 A 
ATOM     25  C   UNL     1      -4.040   4.357  26.300  0.00  0.00    +0.040 A 
ATOM     26  C   UNL     1      -4.491   3.903  25.777  0.00  0.00    +0.176 A 
ATOM     27  O   UNL     1      -5.296   3.896  25.605  0.00  0.00    -0.435 OA
ATOM     28  C   UNL     1      -5.430   3.319  25.031  0.00  0.00    +0.429 C 
ATOM     29  O   UNL     1      -4.706   2.969  24.849  0.00  0.00    -0.435 OA
ATOM     30  C   UNL     1      -4.126   3.330  25.310  0.00  0.00    +0.176 A 
ATOM     31  C   UNL     1      -3.310   3.210  25.364  0.00  0.00    +0.037 A 
ENDBRANCH  22  23
ENDBRANCH  21  22
ENDBRANCH  15  17
TORSDOF 8
ENDMDL
MODEL 3
REMARK VINA RESULT:      -8.1      1.474      2.047
REMARK  Name = 
REMARK  8 active torsions:
REMARK  status: ('A' for Active; 'I' for Inactive)
REMARK    1  A    between atoms: O_2  and  C_3
REMARK    2  A    between atoms: C_3  and  C_4
REMARK    3  A    between atoms: C_4  and  N_5
REMARK    4  A    between atoms: N_5  and  C_6
REMARK    5  A    between atoms: C_9  and  C_12
REMARK    6  A    between atoms: C_15  and  C_17
REMARK    7  A    between atoms: N_21  and  C_22
REMARK    8  A    between atoms: C_22  and  C_23
REMARK                            x       y       z     vdW  Elec       q    Type
REMARK                         _______ _______ _______ _____ _____    ______ ____
ROOT
ATOM     12  C   UNL     1      -0.307   1.454  24.689  0.00  0.00    +0.205 A 
ATOM     13  N   UNL     1      -0.623   1.061  25.342  0.00  0.00    -0.056 NA
ATOM     14  O   UNL     1      -1.215   1.537  25.663  0.00  0.00    -0.336 OA
ATOM     15  C   UNL     1      -1.265   2.223  25.208  0.00  0.00    +0.251 A 
ATOM     16  N   UNL     1      -0.703   2.172  24.606  0.00  0.00    -0.190 NA
ENDROOT
BRANCH  12   9
ATOM      6  C   UNL     1       1.514   0.623  23.232  0.00  0.00    +0.148 A 
ATOM      7  C   UNL     1       0.816   0.189  23.309  0.00  0.00    +0.036 A 
ATOM      8  C   UNL     1       0.210   0.466  23.794  0.00  0.00    +0.008 A 
ATOM      9  C   UNL     1       0.301   1.177  24.203  0.00  0.00    +0.058 A 
ATOM     10  C   UNL     1       0.998   1.611  24.127  0.00  0.00    +0.103 A 
ATOM     11  N   UNL     1       1.605   1.334  23.641  0.00  0.00    -0.228 NA
BRANCH   6   5
ATOM      5  N   UNL     1       2.120   0.346  22.747  0.00  0.00    -0.218 NA
BRANCH   5   4
ATOM      4  C   UNL     1       2.891   0.623  22.851  0.00  0.00    +0.146 C 
BRANCH   4   3
ATOM      3  C   UNL     1       3.523   0.224  22.500  0.00  0.00    +0.166 C 
BRANCH   3   2
ATOM      1  C   UNL     1       4.863   0.235  22.995  0.00  0.00    +0.174 C 
ATOM      2  O   UNL     1       4.278   0.558  22.512  0.00  0.00    -0.349 OA
ENDBRANCH   3   2
ENDBRANCH   4   3
ENDBRANCH   5   4
ENDBRANCH   6   5
ENDBRANCH  12   9
BRANCH  15  17
ATOM     17  C   UNL     1      -1.785   2.851  25.334  0.00  0.00    +0.138 C 
ATOM     18  C   UNL     1      -1.610   3.556  25.725  0.00  0.00    +0.027 C 
ATOM     19  C   UNL     1      -2.290   4.024  25.724  0.00  0.00    +0.019 C 
ATOM     20  C   UNL     1      -2.885   3.608  25.332  0.00  0.00    +0.073 C 
ATOM     21  N   UNL     1      -2.574   2.883  25.092  0.00  0.00    -0.263 NA
BRANCH  21  22
ATOM     22  C   UNL     1      -2.978   2.294  24.681  0.00  0.00    +0.100 C 
BRANCH  22  23
ATOM     23  C   UNL     1      -3.804   2.274  24.695  0.00  0.00    -0.003 A 
ATOM     24  C   UNL     1      -4.236   2.701  24.137  0.00  0.00    +0.000 A 
ATOM     25  C   UNL     1      -5.060   2.680  24.152  0.00  0.00    +0.040 A 
ATOM     26  C   UNL     1      -5.453   2.234  24.724  0.00  0.00    +0.176 A 
ATOM     27  O   UNL     1      -6.254   2.109  24.874  0.00  0.00    -0.435 OA
ATOM     28  C   UNL     1      -6.317   1.605  25.524  0.00  0.00    +0.429 C 
ATOM     29  O   UNL     1      -5.554   1.419  25.776  0.00  0.00    -0.435 OA
ATOM     30  C   UNL     1      -5.020   1.807  25.281  0.00  0.00    +0.176 A 
ATOM     31  C   UNL     1      -4.195   1.827  25.267  0.00  0.00    +0.037 A 
ENDBRANCH  22  23
ENDBRANCH  21  22
ENDBRANCH  15  17
TORSDOF 8
ENDMDL
MODEL 4
REMARK VINA RESULT:      -8.1      1.946      2.243
REMARK  Name = 
REMARK  8 active torsions:
REMARK  status: ('A' for Active; 'I' for Inactive)
REMARK    1  A    between atoms: O_2  and  C_3
REMARK    2  A    between atoms: C_3  and  C_4
REMARK    3  A    between atoms: C_4  and  N_5
REMARK    4  A    between atoms: N_5  and  C_6
REMARK    5  A    between atoms: C_9  and  C_12
REMARK    6  A    between atoms: C_15  and  C_17
REMARK    7  A    between atoms: N_21  and  C_22
REMARK    8  A    between atoms: C_22  and  C_23
REMARK                            x       y       z     vdW  Elec       q    Type
REMARK                         _______ _______ _______ _____ _____    ______ ____
ROOT
ATOM     12  C   UNL     1      -0.247   0.383  23.863  0.00  0.00    +0.205 A 
ATOM     13  N   UNL     1      -0.533  -0.120  24.452  0.00  0.00    -0.056 NA
ATOM     14  O   UNL     1      -1.307   0.109  24.627  0.00  0.00    -0.336 OA
ATOM     15  C   UNL     1      -1.497   0.753  24.147  0.00  0.00    +0.251 A 
ATOM     16  N   UNL     1      -0.842   0.922  23.675  0.00  0.00    -0.190 NA
ENDROOT
BRANCH  12   9
ATOM      6  C   UNL     1       2.006   0.289  22.840  0.00  0.00    +0.148 A 
ATOM      7  C   UNL     1       1.454  -0.303  22.679  0.00  0.00    +0.036 A 
ATOM      8  C   UNL     1       0.704  -0.272  23.020  0.00  0.00    +0.008 A 
ATOM      9  C   UNL     1       0.504   0.352  23.523  0.00  0.00    +0.058 A 
ATOM     10  C   UNL     1       1.055   0.943  23.684  0.00  0.00    +0.103 A 
ATOM     11  N   UNL     1       1.806   0.912  23.343  0.00  0.00    -0.228 NA
BRANCH   6   5
ATOM      5  N   UNL     1       2.756   0.257  22.500  0.00  0.00    -0.218 NA
BRANCH   5   4
ATOM      4  C   UNL     1       3.410   0.537  22.918  0.00  0.00    +0.146 C 
BRANCH   4   3
ATOM      3  C   UNL     1       4.169   0.292  22.706  0.00  0.00    +0.166 C 
BRANCH   3   2
ATOM      1  C   UNL     1       5.411   0.157  23.400  0.00  0.00    +0.174 C 
ATOM      2  O   UNL     1       4.828   0.635  23.065  0.00  0.00    -0.349 OA
ENDBRANCH   3   2
ENDBRANCH   4   3
ENDBRANCH   5   4
ENDBRANCH   6   5
ENDBRANCH  12   9
BRANCH  15  17
ATOM     17  C   UNL     1      -2.217   1.156  24.141  0.00  0.00    +0.138 C 
ATOM     18  C   UNL     1      -2.867   0.981  23.664  0.00  0.00    +0.027 C 
ATOM     19  C   UNL     1      -3.465   1.523  23.840  0.00  0.00    +0.019 C 
ATOM     20  C   UNL     1      -3.183   2.032  24.426  0.00  0.00    +0.073 C 
ATOM     21  N   UNL     1      -2.413   1.805  24.612  0.00  0.00    -0.263 NA
BRANCH  21  22
ATOM     22  C   UNL     1      -1.923   2.164  25.170  0.00  0.00    +0.100 C 
BRANCH  22  23
ATOM     23  C   UNL     1      -1.941   2.983  25.268  0.00  0.00    -0.003 A 
ATOM     24  C   UNL     1      -2.540   3.333  25.715  0.00  0.00    +0.000 A 
ATOM     25  C   UNL     1      -2.557   4.151  25.812  0.00  0.00    +0.040 A 
ATOM     26  C   UNL     1      -1.976   4.622  25.463  0.00  0.00    +0.176 A 
ATOM     27  O   UNL     1      -1.851   5.436  25.463  0.00  0.00    -0.435 OA
ATOM     28  C   UNL     1      -1.176   5.591  25.016  0.00  0.00    +0.429 C 
ATOM     29  O   UNL     1      -0.883   4.871  24.740  0.00  0.00    -0.435 OA
ATOM     30  C   UNL     1      -1.377   4.272  25.016  0.00  0.00    +0.176 A 
ATOM     31  C   UNL     1      -1.359   3.452  24.918  0.00  0.00    +0.037 A 
ENDBRANCH  22  23
ENDBRANCH  21  22
ENDBRANCH  15  17
TORSDOF 8
ENDMDL
MODEL 5
REMARK VINA RESULT:      -8.1      1.976      3.281
REMARK  Name = 
REMARK  8 active torsions:
REMARK  status: ('A' for Active; 'I' for Inactive)
REMARK    1  A    between atoms: O_2  and  C_3
REMARK    2  A    between atoms: C_3  and  C_4
REMARK    3  A    between atoms: C_4  and  N_5
REMARK    4  A    between atoms: N_5  and  C_6
REMARK    5  A    between atoms: C_9  and  C_12
REMARK    6  A    between atoms: C_15  and  C_17
REMARK    7  A    between atoms: N_21  and  C_22
REMARK    8  A    between atoms: C_22  and  C_23
REMARK                            x       y       z     vdW  Elec       q    Type
REMARK                         _______ _______ _______ _____ _____    ______ ____
ROOT
ATOM     12  C   UNL     1       0.022   1.189  23.934  0.00  0.00    +0.205 A 
ATOM     13  N   UNL     1      -0.092   1.677  24.589  0.00  0.00    -0.056 NA
ATOM     14  O   UNL     1      -0.904   1.737  24.723  0.00  0.00    -0.336 OA
ATOM     15  C   UNL     1      -1.291   1.285  24.151  0.00  0.00    +0.251 A 
ATOM     16  N   UNL     1      -0.718   0.947  23.663  0.00  0.00    -0.190 NA
ENDROOT
BRANCH  12   9
ATOM      6  C   UNL     1       2.206   0.559  22.951  0.00  0.00    +0.148 A 
ATOM      7  C   UNL     1       1.553   0.063  22.859  0.00  0.00    +0.036 A 
ATOM      8  C   UNL     1       0.826   0.273  23.187  0.00  0.00    +0.008 A 
ATOM      9  C   UNL     1       0.750   0.979  23.607  0.00  0.00    +0.058 A 
ATOM     10  C   UNL     1       1.402   1.476  23.699  0.00  0.00    +0.103 A 
ATOM     11  N   UNL     1       2.130   1.266  23.371  0.00  0.00    -0.228 NA
BRANCH   6   5
ATOM      5  N   UNL     1       2.933   0.350  22.624  0.00  0.00    -0.218 NA
BRANCH   5   4
ATOM      4  C   UNL     1       3.633   0.608  22.976  0.00  0.00    +0.146 C 
BRANCH   4   3
ATOM      3  C   UNL     1       4.351   0.254  22.773  0.00  0.00    +0.166 C 
BRANCH   3   2
ATOM      1  C   UNL     1       5.539  -0.017  23.519  0.00  0.00    +0.174 C 
ATOM      2  O   UNL     1       5.052   0.517  23.121  0.00  0.00    -0.349 OA
ENDBRANCH   3   2
ENDBRANCH   4   3
ENDBRANCH   5   4
ENDBRANCH   6   5
ENDBRANCH  12   9
BRANCH  15  17
ATOM     17  C   UNL     1      -2.107   1.190  24.080  0.00  0.00    +0.138 C 
ATOM     18  C   UNL     1      -2.610   1.648  23.613  0.00  0.00    +0.027 C 
ATOM     19  C   UNL     1      -3.378   1.360  23.709  0.00  0.00    +0.019 C 
ATOM     20  C   UNL     1      -3.349   0.724  24.234  0.00  0.00    +0.073 C 
ATOM     21  N   UNL     1      -2.564   0.619  24.464  0.00  0.00    -0.263 NA
BRANCH  21  22
ATOM     22  C   UNL     1      -2.283   0.045  24.985  0.00  0.00    +0.100 C 
BRANCH  22  23
ATOM     23  C   UNL     1      -2.682  -0.674  25.060  0.00  0.00    -0.003 A 
ATOM     24  C   UNL     1      -3.248  -0.772  25.653  0.00  0.00    +0.000 A 
ATOM     25  C   UNL     1      -3.646  -1.490  25.727  0.00  0.00    +0.040 A 
ATOM     26  C   UNL     1      -3.480  -2.111  25.209  0.00  0.00    +0.176 A 
ATOM     27  O   UNL     1      -3.782  -2.875  25.148  0.00  0.00    -0.435 OA
ATOM     28  C   UNL     1      -3.403  -3.250  24.519  0.00  0.00    +0.429 C 
ATOM     29  O   UNL     1      -2.867  -2.716  24.190  0.00  0.00    -0.435 OA
ATOM     30  C   UNL     1      -2.915  -2.012  24.616  0.00  0.00    +0.176 A 
ATOM     31  C   UNL     1      -2.515  -1.294  24.541  0.00  0.00    +0.037 A 
ENDBRANCH  22  23
ENDBRANCH  21  22
ENDBRANCH  15  17
TORSDOF 8
ENDMDL
MODEL 6
REMARK VINA RESULT:      -8.0      2.901      4.277
REMARK  Name = 
REMARK  8 active torsions:
REMARK  status: ('A' for Active; 'I' for Inactive)
REMARK    1  A    between atoms: O_2  and  C_3
REMARK    2  A    between atoms: C_3  and  C_4
REMARK    3  A    between atoms: C_4  and  N_5
REMARK    4  A    between atoms: N_5  and  C_6
REMARK    5  A    between atoms: C_9  and  C_12
REMARK    6  A    between atoms: C_15  and  C_17
REMARK    7  A    between atoms: N_21  and  C_22
REMARK    8  A    between atoms: C_22  and  C_23
REMARK                            x       y       z     vdW  Elec       q    Type
REMARK                         _______ _______ _______ _____ _____    ______ ____
ROOT
ATOM     12  C   UNL     1      -2.043   2.282  25.041  0.00  0.00    +0.205 A 
ATOM     13  N   UNL     1      -2.232   2.616  24.310  0.00  0.00    -0.056 NA
ATOM     14  O   UNL     1      -2.988   2.359  24.101  0.00  0.00    -0.336 OA
ATOM     15  C   UNL     1      -3.265   1.867  24.703  0.00  0.00    +0.251 A 
ATOM     16  N   UNL     1      -2.681   1.819  25.283  0.00  0.00    -0.190 NA
ENDROOT
BRANCH  12   9
ATOM      6  C   UNL     1       0.070   2.613  26.288  0.00  0.00    +0.148 A 
ATOM      7  C   UNL     1      -0.437   3.251  26.157  0.00  0.00    +0.036 A 
ATOM      8  C   UNL     1      -1.140   3.141  25.742  0.00  0.00    +0.008 A 
ATOM      9  C   UNL     1      -1.339   2.392  25.456  0.00  0.00    +0.058 A 
ATOM     10  C   UNL     1      -0.833   1.754  25.587  0.00  0.00    +0.103 A 
ATOM     11  N   UNL     1      -0.128   1.864  26.002  0.00  0.00    -0.228 NA
BRANCH   6   5
ATOM      5  N   UNL     1       0.774   2.723  26.703  0.00  0.00    -0.218 NA
BRANCH   5   4
ATOM      4  C   UNL     1       0.795   2.599  27.519  0.00  0.00    +0.146 C 
BRANCH   4   3
ATOM      3  C   UNL     1       1.500   2.704  27.933  0.00  0.00    +0.166 C 
BRANCH   3   2
ATOM      1  C   UNL     1       2.231   2.670  29.160  0.00  0.00    +0.174 C 
ATOM      2  O   UNL     1       1.526   2.561  28.745  0.00  0.00    -0.349 OA
ENDBRANCH   3   2
ENDBRANCH   4   3
ENDBRANCH   5   4
ENDBRANCH   6   5
ENDBRANCH  12   9
BRANCH  15  17
ATOM     17  C   UNL     1      -3.998   1.489  24.720  0.00  0.00    +0.138 C 
ATOM     18  C   UNL     1      -4.698   1.801  25.024  0.00  0.00    +0.027 C 
ATOM     19  C   UNL     1      -5.293   1.236  24.927  0.00  0.00    +0.019 C 
ATOM     20  C   UNL     1      -4.959   0.575  24.563  0.00  0.00    +0.073 C 
ATOM     21  N   UNL     1      -4.160   0.731  24.435  0.00  0.00    -0.263 NA
BRANCH  21  22
ATOM     22  C   UNL     1      -3.616   0.219  24.084  0.00  0.00    +0.100 C 
BRANCH  22  23
ATOM     23  C   UNL     1      -3.718  -0.597  24.148  0.00  0.00    -0.003 A 
ATOM     24  C   UNL     1      -4.209  -0.995  23.618  0.00  0.00    +0.000 A 
ATOM     25  C   UNL     1      -4.311  -1.811  23.682  0.00  0.00    +0.040 A 
ATOM     26  C   UNL     1      -3.921  -2.230  24.277  0.00  0.00    +0.176 A 
ATOM     27  O   UNL     1      -3.914  -3.030  24.475  0.00  0.00    -0.435 OA
ATOM     28  C   UNL     1      -3.419  -3.128  25.127  0.00  0.00    +0.429 C 
ATOM     29  O   UNL     1      -3.120  -2.387  25.332  0.00  0.00    -0.435 OA
ATOM     30  C   UNL     1      -3.430  -1.832  24.807  0.00  0.00    +0.176 A 
ATOM     31  C   UNL     1      -3.328  -1.015  24.743  0.00  0.00    +0.037 A 
ENDBRANCH  22  23
ENDBRANCH  21  22
ENDBRANCH  15  17
TORSDOF 8
ENDMDL
MODEL 7
REMARK VINA RESULT:      -7.7      1.886      5.744
REMARK  Name = 
REMARK  8 active torsions:
REMARK  status: ('A' for Active; 'I' for Inactive)
REMARK    1  A    between atoms: O_2  and  C_3
REMARK    2  A    between atoms: C_3  and  C_4
REMARK    3  A    between atoms: C_4  and  N_5
REMARK    4  A    between atoms: N_5  and  C_6
REMARK    5  A    between atoms: C_9  and  C_12
REMARK    6  A    between atoms: C_15  and  C_17
REMARK    7  A    between atoms: N_21  and  C_22
REMARK    8  A    between atoms: C_22  and  C_23
REMARK                            x       y       z     vdW  Elec       q    Type
REMARK                         _______ _______ _______ _____ _____    ______ ____
ROOT
ATOM     12  C   UNL     1      -1.028   2.304  24.754  0.00  0.00    +0.205 A 
ATOM     13  N   UNL     1      -0.262   2.464  25.016  0.00  0.00    -0.056 NA
ATOM     14  O   UNL     1       0.230   1.857  24.750  0.00  0.00    -0.336 OA
ATOM     15  C   UNL     1      -0.233   1.322  24.326  0.00  0.00    +0.251 A 
ATOM     16  N   UNL     1      -1.010   1.598  24.328  0.00  0.00    -0.190 NA
ENDROOT
BRANCH  12   9
ATOM      6  C   UNL     1      -3.031   3.696  25.177  0.00  0.00    +0.148 A 
ATOM      7  C   UNL     1      -2.457   3.608  25.764  0.00  0.00    +0.036 A 
ATOM      8  C   UNL     1      -1.790   3.145  25.623  0.00  0.00    +0.008 A 
ATOM      9  C   UNL     1      -1.696   2.768  24.895  0.00  0.00    +0.058 A 
ATOM     10  C   UNL     1      -2.268   2.855  24.308  0.00  0.00    +0.103 A 
ATOM     11  N   UNL     1      -2.936   3.319  24.449  0.00  0.00    -0.228 NA
BRANCH   6   5
ATOM      5  N   UNL     1      -3.697   4.160  25.318  0.00  0.00    -0.218 NA
BRANCH   5   4
ATOM      4  C   UNL     1      -4.363   3.827  25.676  0.00  0.00    +0.146 C 
BRANCH   4   3
ATOM      3  C   UNL     1      -5.118   4.053  25.431  0.00  0.00    +0.166 C 
BRANCH   3   2
ATOM      1  C   UNL     1      -6.114   3.068  25.713  0.00  0.00    +0.174 C 
ATOM      2  O   UNL     1      -5.780   3.808  25.859  0.00  0.00    -0.349 OA
ENDBRANCH   3   2
ENDBRANCH   4   3
ENDBRANCH   5   4
ENDBRANCH   6   5
ENDBRANCH  12   9
BRANCH  15  17
ATOM     17  C   UNL     1       0.036   0.632  23.962  0.00  0.00    +0.138 C 
ATOM     18  C   UNL     1       0.531   0.591  23.303  0.00  0.00    +0.027 C 
ATOM     19  C   UNL     1       0.658  -0.206  23.128  0.00  0.00    +0.019 C 
ATOM     20  C   UNL     1       0.241  -0.657  23.680  0.00  0.00    +0.073 C 
ATOM     21  N   UNL     1      -0.143  -0.140  24.195  0.00  0.00    -0.263 NA
BRANCH  21  22
ATOM     22  C   UNL     1      -0.622  -0.355  24.831  0.00  0.00    +0.100 C 
BRANCH  22  23
ATOM     23  C   UNL     1      -1.090  -1.034  24.783  0.00  0.00    -0.003 A 
ATOM     24  C   UNL     1      -0.766  -1.772  24.957  0.00  0.00    +0.000 A 
ATOM     25  C   UNL     1      -1.234  -2.449  24.909  0.00  0.00    +0.040 A 
ATOM     26  C   UNL     1      -2.026  -2.389  24.687  0.00  0.00    +0.176 A 
ATOM     27  O   UNL     1      -2.618  -2.955  24.592  0.00  0.00    -0.435 OA
ATOM     28  C   UNL     1      -3.308  -2.567  24.360  0.00  0.00    +0.429 C 
ATOM     29  O   UNL     1      -3.142  -1.761  24.311  0.00  0.00    -0.435 OA
ATOM     30  C   UNL     1      -2.350  -1.651  24.513  0.00  0.00    +0.176 A 
ATOM     31  C   UNL     1      -1.882  -0.972  24.561  0.00  0.00    +0.037 A 
ENDBRANCH  22  23
ENDBRANCH  21  22
ENDBRANCH  15  17
TORSDOF 8
ENDMDL
MODEL 8
REMARK VINA RESULT:      -7.4      3.088      4.383
REMARK  Name = 
REMARK  8 active torsions:
REMARK  status: ('A' for Active; 'I' for Inactive)
REMARK    1  A    between atoms: O_2  and  C_3
REMARK    2  A    between atoms: C_3  and  C_4
REMARK    3  A    between atoms: C_4  and  N_5
REMARK    4  A    between atoms: N_5  and  C_6
REMARK    5  A    between atoms: C_9  and  C_12
REMARK    6  A    between atoms: C_15  and  C_17
REMARK    7  A    between atoms: N_21  and  C_22
REMARK    8  A    between atoms: C_22  and  C_23
REMARK                            x       y       z     vdW  Elec       q    Type
REMARK                         _______ _______ _______ _____ _____    ______ ____
ROOT
ATOM     12  C   UNL     1      -4.719   0.658  24.812  0.00  0.00    +0.205 A 
ATOM     13  N   UNL     1      -5.443   0.840  24.461  0.00  0.00    -0.056 NA
ATOM     14  O   UNL     1      -5.607   1.634  24.616  0.00  0.00    -0.336 OA
ATOM     15  C   UNL     1      -4.985   1.941  25.062  0.00  0.00    +0.251 A 
ATOM     16  N   UNL     1      -4.436   1.337  25.184  0.00  0.00    -0.190 NA
ENDROOT
BRANCH  12   9
ATOM      6  C   UNL     1      -3.593  -1.547  24.759  0.00  0.00    +0.148 A 
ATOM      7  C   UNL     1      -3.914  -1.230  24.068  0.00  0.00    +0.036 A 
ATOM      8  C   UNL     1      -4.289  -0.496  24.085  0.00  0.00    +0.008 A 
ATOM      9  C   UNL     1      -4.344  -0.077  24.795  0.00  0.00    +0.058 A 
ATOM     10  C   UNL     1      -4.023  -0.393  25.485  0.00  0.00    +0.103 A 
ATOM     11  N   UNL     1      -3.647  -1.128  25.468  0.00  0.00    -0.228 NA
BRANCH   6   5
ATOM      5  N   UNL     1      -3.218  -2.280  24.741  0.00  0.00    -0.218 NA
BRANCH   5   4
ATOM      4  C   UNL     1      -2.451  -2.344  24.441  0.00  0.00    +0.146 C 
BRANCH   4   3
ATOM      3  C   UNL     1      -1.899  -2.825  24.822  0.00  0.00    +0.166 C 
BRANCH   3   2
ATOM      1  C   UNL     1      -0.538  -2.445  25.034  0.00  0.00    +0.174 C 
ATOM      2  O   UNL     1      -1.111  -2.822  24.576  0.00  0.00    -0.349 OA
ENDBRANCH   3   2
ENDBRANCH   4   3
ENDBRANCH   5   4
ENDBRANCH   6   5
ENDBRANCH  12   9
BRANCH  15  17
ATOM     17  C   UNL     1      -4.924   2.716  25.339  0.00  0.00    +0.138 C 
ATOM     18  C   UNL     1      -5.490   3.119  25.782  0.00  0.00    +0.027 C 
ATOM     19  C   UNL     1      -5.201   3.877  25.937  0.00  0.00    +0.019 C 
ATOM     20  C   UNL     1      -4.455   3.940  25.590  0.00  0.00    +0.073 C 
ATOM     21  N   UNL     1      -4.284   3.223  25.220  0.00  0.00    -0.263 NA
BRANCH  21  22
ATOM     22  C   UNL     1      -3.594   3.044  24.805  0.00  0.00    +0.100 C 
BRANCH  22  23
ATOM     23  C   UNL     1      -2.889   3.432  24.990  0.00  0.00    -0.003 A 
ATOM     24  C   UNL     1      -2.368   3.102  25.538  0.00  0.00    +0.000 A 
ATOM     25  C   UNL     1      -1.664   3.490  25.723  0.00  0.00    +0.040 A 
ATOM     26  C   UNL     1      -1.480   4.208  25.360  0.00  0.00    +0.176 A 
ATOM     27  O   UNL     1      -0.832   4.713  25.430  0.00  0.00    -0.435 OA
ATOM     28  C   UNL     1      -0.952   5.354  24.926  0.00  0.00    +0.429 C 
ATOM     29  O   UNL     1      -1.675   5.246  24.544  0.00  0.00    -0.435 OA
ATOM     30  C   UNL     1      -2.001   4.537  24.811  0.00  0.00    +0.176 A 
ATOM     31  C   UNL     1      -2.706   4.150  24.626  0.00  0.00    +0.037 A 
ENDBRANCH  22  23
ENDBRANCH  21  22
ENDBRANCH  15  17
TORSDOF 8
ENDMDL
MODEL 9
REMARK VINA RESULT:      -7.4      2.374      5.160
REMARK  Name = 
REMARK  8 active torsions:
REMARK  status: ('A' for Active; 'I' for Inactive)
REMARK    1  A    between atoms: O_2  and  C_3
REMARK    2  A    between atoms: C_3  and  C_4
REMARK    3  A    between atoms: C_4  and  N_5
REMARK    4  A    between atoms: N_5  and  C_6
REMARK    5  A    between atoms: C_9  and  C_12
REMARK    6  A    between atoms: C_15  and  C_17
REMARK    7  A    between atoms: N_21  and  C_22
REMARK    8  A    between atoms: C_22  and  C_23
REMARK                            x       y       z     vdW  Elec       q    Type
REMARK                         _______ _______ _______ _____ _____    ______ ____
ROOT
ATOM     12  C   UNL     1      -4.260   1.303  24.825  0.00  0.00    +0.205 A 
ATOM     13  N   UNL     1      -4.996   1.042  25.090  0.00  0.00    -0.056 NA
ATOM     14  O   UNL     1      -5.033   0.226  24.973  0.00  0.00    -0.336 OA
ATOM     15  C   UNL     1      -4.321  -0.016  24.636  0.00  0.00    +0.251 A 
ATOM     16  N   UNL     1      -3.842   0.650  24.544  0.00  0.00    -0.190 NA
ENDROOT
BRANCH  12   9
ATOM      6  C   UNL     1      -3.445   3.641  24.863  0.00  0.00    +0.148 A 
ATOM      7  C   UNL     1      -3.554   3.253  24.143  0.00  0.00    +0.036 A 
ATOM      8  C   UNL     1      -3.825   2.475  24.130  0.00  0.00    +0.008 A 
ATOM      9  C   UNL     1      -3.988   2.083  24.838  0.00  0.00    +0.058 A 
ATOM     10  C   UNL     1      -3.879   2.469  25.558  0.00  0.00    +0.103 A 
ATOM     11  N   UNL     1      -3.607   3.249  25.571  0.00  0.00    -0.228 NA
BRANCH   6   5
ATOM      5  N   UNL     1      -3.173   4.419  24.876  0.00  0.00    -0.218 NA
BRANCH   5   4
ATOM      4  C   UNL     1      -2.398   4.582  25.107  0.00  0.00    +0.146 C 
BRANCH   4   3
ATOM      3  C   UNL     1      -2.075   5.328  24.969  0.00  0.00    +0.166 C 
BRANCH   3   2
ATOM      1  C   UNL     1      -0.662   5.366  24.755  0.00  0.00    +0.174 C 
ATOM      2  O   UNL     1      -1.315   5.505  25.240  0.00  0.00    -0.349 OA
ENDBRANCH   3   2
ENDBRANCH   4   3
ENDBRANCH   5   4
ENDBRANCH   6   5
ENDBRANCH  12   9
BRANCH  15  17
ATOM     17  C   UNL     1      -4.122  -0.789  24.427  0.00  0.00    +0.138 C 
ATOM     18  C   UNL     1      -4.553  -1.283  23.927  0.00  0.00    +0.027 C 
ATOM     19  C   UNL     1      -4.154  -2.003  23.873  0.00  0.00    +0.019 C 
ATOM     20  C   UNL     1      -3.475  -1.954  24.340  0.00  0.00    +0.073 C 
ATOM     21  N   UNL     1      -3.455  -1.204  24.682  0.00  0.00    -0.263 NA
BRANCH  21  22
ATOM     22  C   UNL     1      -2.872  -0.918  25.191  0.00  0.00    +0.100 C 
BRANCH  22  23
ATOM     23  C   UNL     1      -2.077  -1.080  25.038  0.00  0.00    -0.003 A 
ATOM     24  C   UNL     1      -1.723  -1.752  25.361  0.00  0.00    +0.000 A 
ATOM     25  C   UNL     1      -0.929  -1.913  25.208  0.00  0.00    +0.040 A 
ATOM     26  C   UNL     1      -0.488  -1.403  24.733  0.00  0.00    +0.176 A 
ATOM     27  O   UNL     1       0.299  -1.418  24.488  0.00  0.00    -0.435 OA
ATOM     28  C   UNL     1       0.432  -0.757  24.015  0.00  0.00    +0.429 C 
ATOM     29  O   UNL     1      -0.273  -0.332  23.967  0.00  0.00    -0.435 OA
ATOM     30  C   UNL     1      -0.841  -0.731  24.411  0.00  0.00    +0.176 A 
ATOM     31  C   UNL     1      -1.637  -0.569  24.563  0.00  0.00    +0.037 A 
ENDBRANCH  22  23
ENDBRANCH  21  22
ENDBRANCH  15  17
TORSDOF 8
ENDMDL
