MODEL 1
REMARK VINA RESULT:     -11.6      0.000      0.000
REMARK  Name = 
REMARK  9 active torsions:
REMARK  status: ('A' for Active; 'I' for Inactive)
REMARK    1  A    between atoms: N_2  and  C_4
REMARK    2  A    between atoms: C_4  and  C_5
REMARK    3  A    between atoms: C_5  and  N_6
REMARK    4  A    between atoms: C_7  and  C_9
REMARK    5  A    between atoms: C_9  and  C_10
REMARK    6  A    between atoms: C_15  and  C_17
REMARK    7  A    between atoms: C_28  and  O_30
REMARK    8  A    between atoms: O_30  and  C_31
REMARK    9  A    between atoms: C_31  and  C_32
REMARK                            x       y       z     vdW  Elec       q    Type
REMARK                         _______ _______ _______ _____ _____    ______ ____
ROOT
ATOM     10  C   UNL     1      -3.300  -0.107  24.305  0.00  0.00    +0.050 C 
ATOM     11  C   UNL     1      -2.580   0.247  24.499  0.00  0.00    +0.063 A 
ATOM     12  C   UNL     1      -1.929  -0.222  24.691  0.00  0.00    +0.023 A 
ATOM     13  C   UNL     1      -1.997  -1.043  24.689  0.00  0.00    +0.034 C 
ATOM     14  C   UNL     1      -2.717  -1.397  24.495  0.00  0.00    +0.010 C 
ATOM     15  C   UNL     1      -2.785  -2.219  24.493  0.00  0.00    +0.059 C 
ATOM     16  C   UNL     1      -1.994  -2.142  24.713  0.00  0.00    +0.005 C 
ATOM     19  C   UNL     1      -3.505  -2.572  24.299  0.00  0.00    +0.154 C 
ATOM     20  O   UNL     1      -3.574  -3.395  24.296  0.00  0.00    -0.223 OA
ATOM     21  C   UNL     1      -4.156  -2.104  24.107  0.00  0.00    +0.033 C 
ATOM     22  C   UNL     1      -4.088  -1.282  24.109  0.00  0.00    +0.003 C 
ATOM     23  C   UNL     1      -3.368  -0.928  24.303  0.00  0.00    +0.006 C 
ATOM     24  C   UNL     1      -4.019  -0.460  24.111  0.00  0.00    +0.000 C 
ATOM     25  S   UNL     1      -1.295   0.280  24.858  0.00  0.00    -0.054 S 
ATOM     26  C   UNL     1      -1.554   1.057  24.770  0.00  0.00    +0.188 A 
ATOM     27  N   UNL     1      -1.099   1.737  24.883  0.00  0.00    -0.117 NA
ATOM     28  C   UNL     1      -1.435   2.481  24.773  0.00  0.00    +0.427 C 
ATOM     29  O   UNL     1      -2.227   2.548  24.550  0.00  0.00    -0.224 OA
ATOM     34  N   UNL     1      -2.349   1.038  24.548  0.00  0.00    -0.227 NA
ENDROOT
BRANCH  15  17
ATOM     17  C   UNL     1      -2.579  -3.014  24.567  0.00  0.00    +0.184 C 
ATOM     18  O   UNL     1      -1.785  -3.229  24.642  0.00  0.00    -0.220 OA
ENDBRANCH  15  17
BRANCH  10   9
ATOM      9  C   UNL     1      -3.951   0.362  24.113  0.00  0.00    +0.093 C 
BRANCH   9   7
ATOM      6  N   UNL     1      -4.807   1.415  24.560  0.00  0.00    -0.204 NA
ATOM      7  C   UNL     1      -4.393   0.718  24.713  0.00  0.00    +0.242 C 
ATOM      8  O   UNL     1      -4.420   0.378  25.462  0.00  0.00    -0.273 OA
BRANCH   6   5
ATOM      5  C   UNL     1      -5.250   1.771  25.159  0.00  0.00    +0.132 C 
BRANCH   5   4
ATOM      4  C   UNL     1      -5.628   2.491  25.020  0.00  0.00    +0.096 C 
BRANCH   4   2
ATOM      1  C   UNL     1      -5.391   3.779  25.591  0.00  0.00    +0.090 C 
ATOM      2  N   UNL     1      -5.731   3.029  25.638  0.00  0.00    -0.269 NA
ATOM      3  C   UNL     1      -6.173   2.817  26.300  0.00  0.00    +0.090 C 
ENDBRANCH   4   2
ENDBRANCH   5   4
ENDBRANCH   6   5
ENDBRANCH   9   7
ENDBRANCH  10   9
BRANCH  28  30
ATOM     30  O   UNL     1      -0.981   3.161  24.887  0.00  0.00    -0.428 OA
BRANCH  30  31
ATOM     31  C   UNL     1      -1.348   3.890  24.997  0.00  0.00    +0.237 C 
BRANCH  31  32
ATOM     32  C   UNL     1      -0.896   4.579  25.039  0.00  0.00    +0.021 C 
ATOM     33  C   UNL     1      -1.266   5.315  25.052  0.00  0.00    -0.001 C 
ENDBRANCH  31  32
ENDBRANCH  30  31
ENDBRANCH  28  30
TORSDOF 9
ENDMDL
MODEL 2
REMARK VINA RESULT:     -10.6      1.888      4.491
REMARK  Name = 
REMARK  9 active torsions:
REMARK  status: ('A' for Active; 'I' for Inactive)
REMARK    1  A    between atoms: N_2  and  C_4
REMARK    2  A    between atoms: C_4  and  C_5
REMARK    3  A    between atoms: C_5  and  N_6
REMARK    4  A    between atoms: C_7  and  C_9
REMARK    5  A    between atoms: C_9  and  C_10
REMARK    6  A    between atoms: C_15  and  C_17
REMARK    7  A    between atoms: C_28  and  O_30
REMARK    8  A    between atoms: O_30  and  C_31
REMARK    9  A    between atoms: C_31  and  C_32
REMARK                            x       y       z     vdW  Elec       q    Type
REMARK                         _______ _______ _______ _____ _____    ______ ____
ROOT
ATOM     10  C   UNL     1      -3.616   1.530  24.466  0.00  0.00    +0.050 C 
ATOM     11  C   UNL     1      -2.822   1.752  24.514  0.00  0.00    +0.063 A 
ATOM     12  C   UNL     1      -2.615   2.466  24.870  0.00  0.00    +0.023 A 
ATOM     13  C   UNL     1      -3.199   2.958  25.178  0.00  0.00    +0.034 C 
ATOM     14  C   UNL     1      -3.992   2.737  25.131  0.00  0.00    +0.010 C 
ATOM     15  C   UNL     1      -4.578   3.229  25.439  0.00  0.00    +0.059 C 
ATOM     16  C   UNL     1      -3.908   3.676  25.616  0.00  0.00    +0.005 C 
ATOM     19  C   UNL     1      -5.371   3.007  25.391  0.00  0.00    +0.154 C 
ATOM     20  O   UNL     1      -5.957   3.500  25.700  0.00  0.00    -0.223 OA
ATOM     21  C   UNL     1      -5.579   2.293  25.035  0.00  0.00    +0.033 C 
ATOM     22  C   UNL     1      -4.993   1.800  24.727  0.00  0.00    +0.003 C 
ATOM     23  C   UNL     1      -4.200   2.022  24.774  0.00  0.00    +0.006 C 
ATOM     24  C   UNL     1      -4.408   1.308  24.418  0.00  0.00    +0.000 C 
ATOM     25  S   UNL     1      -1.793   2.537  24.837  0.00  0.00    -0.054 S 
ATOM     26  C   UNL     1      -1.493   1.868  24.460  0.00  0.00    +0.188 A 
ATOM     27  N   UNL     1      -0.697   1.711  24.309  0.00  0.00    -0.117 NA
ATOM     28  C   UNL     1      -0.479   1.015  23.926  0.00  0.00    +0.427 C 
ATOM     29  O   UNL     1      -1.057   0.474  23.692  0.00  0.00    -0.224 OA
ATOM     34  N   UNL     1      -2.129   1.382  24.260  0.00  0.00    -0.227 NA
ENDROOT
BRANCH  15  17
ATOM     17  C   UNL     1      -4.930   3.877  25.809  0.00  0.00    +0.184 C 
ATOM     18  O   UNL     1      -4.460   4.454  26.166  0.00  0.00    -0.220 OA
ENDBRANCH  15  17
BRANCH  10   9
ATOM      9  C   UNL     1      -3.823   0.815  24.110  0.00  0.00    +0.093 C 
BRANCH   9   7
ATOM      6  N   UNL     1      -3.683  -0.607  24.120  0.00  0.00    -0.204 NA
ATOM      7  C   UNL     1      -3.743   0.108  24.528  0.00  0.00    +0.242 C 
ATOM      8  O   UNL     1      -3.723   0.116  25.352  0.00  0.00    -0.273 OA
BRANCH   6   5
ATOM      5  C   UNL     1      -3.603  -1.315  24.539  0.00  0.00    +0.132 C 
BRANCH   5   4
ATOM      4  C   UNL     1      -3.518  -2.026  24.131  0.00  0.00    +0.096 C 
BRANCH   4   2
ATOM      1  C   UNL     1      -2.303  -2.721  24.420  0.00  0.00    +0.090 C 
ATOM      2  N   UNL     1      -3.123  -2.659  24.485  0.00  0.00    -0.269 NA
ATOM      3  C   UNL     1      -3.547  -3.229  24.903  0.00  0.00    +0.090 C 
ENDBRANCH   4   2
ENDBRANCH   5   4
ENDBRANCH   6   5
ENDBRANCH   9   7
ENDBRANCH  10   9
BRANCH  28  30
ATOM     30  O   UNL     1       0.317   0.858  23.775  0.00  0.00    -0.428 OA
BRANCH  30  31
ATOM     31  C   UNL     1       0.527   0.278  23.228  0.00  0.00    +0.237 C 
BRANCH  31  32
ATOM     32  C   UNL     1       1.322   0.101  23.098  0.00  0.00    +0.021 C 
ATOM     33  C   UNL     1       1.560  -0.227  22.380  0.00  0.00    -0.001 C 
ENDBRANCH  31  32
ENDBRANCH  30  31
ENDBRANCH  28  30
TORSDOF 9
ENDMDL
MODEL 3
REMARK VINA RESULT:     -10.2      1.827      3.739
REMARK  Name = 
REMARK  9 active torsions:
REMARK  status: ('A' for Active; 'I' for Inactive)
REMARK    1  A    between atoms: N_2  and  C_4
REMARK    2  A    between atoms: C_4  and  C_5
REMARK    3  A    between atoms: C_5  and  N_6
REMARK    4  A    between atoms: C_7  and  C_9
REMARK    5  A    between atoms: C_9  and  C_10
REMARK    6  A    between atoms: C_15  and  C_17
REMARK    7  A    between atoms: C_28  and  O_30
REMARK    8  A    between atoms: O_30  and  C_31
REMARK    9  A    between atoms: C_31  and  C_32
REMARK                            x       y       z     vdW  Elec       q    Type
REMARK                         _______ _______ _______ _____ _____    ______ ____
ROOT
ATOM     10  C   UNL     1      -1.914  -0.335  24.690  0.00  0.00    +0.050 C 
ATOM     11  C   UNL     1      -2.372   0.349  24.745  0.00  0.00    +0.063 A 
ATOM     12  C   UNL     1      -3.194   0.300  24.692  0.00  0.00    +0.023 A 
ATOM     13  C   UNL     1      -3.557  -0.431  24.584  0.00  0.00    +0.034 C 
ATOM     14  C   UNL     1      -3.100  -1.116  24.529  0.00  0.00    +0.010 C 
ATOM     15  C   UNL     1      -3.464  -1.848  24.420  0.00  0.00    +0.059 C 
ATOM     16  C   UNL     1      -4.128  -1.360  24.440  0.00  0.00    +0.005 C 
ATOM     19  C   UNL     1      -3.005  -2.532  24.365  0.00  0.00    +0.154 C 
ATOM     20  O   UNL     1      -3.370  -3.265  24.257  0.00  0.00    -0.223 OA
ATOM     21  C   UNL     1      -2.184  -2.484  24.418  0.00  0.00    +0.033 C 
ATOM     22  C   UNL     1      -1.820  -1.751  24.527  0.00  0.00    +0.003 C 
ATOM     23  C   UNL     1      -2.278  -1.067  24.582  0.00  0.00    +0.006 C 
ATOM     24  C   UNL     1      -1.456  -1.019  24.635  0.00  0.00    +0.000 C 
ATOM     25  S   UNL     1      -3.499   1.064  24.765  0.00  0.00    -0.054 S 
ATOM     26  C   UNL     1      -2.867   1.583  24.863  0.00  0.00    +0.188 A 
ATOM     27  N   UNL     1      -2.920   2.401  24.958  0.00  0.00    -0.117 NA
ATOM     28  C   UNL     1      -2.236   2.852  25.051  0.00  0.00    +0.427 C 
ATOM     29  O   UNL     1      -1.497   2.485  25.050  0.00  0.00    -0.224 OA
ATOM     34  N   UNL     1      -2.169   1.142  24.851  0.00  0.00    -0.227 NA
ENDROOT
BRANCH  15  17
ATOM     17  C   UNL     1      -4.059  -2.411  24.319  0.00  0.00    +0.184 C 
ATOM     18  O   UNL     1      -4.734  -2.223  23.883  0.00  0.00    -0.220 OA
ENDBRANCH  15  17
BRANCH  10   9
ATOM      9  C   UNL     1      -1.092  -0.286  24.743  0.00  0.00    +0.093 C 
BRANCH   9   7
ATOM      6  N   UNL     1       0.176  -0.154  24.098  0.00  0.00    -0.204 NA
ATOM      7  C   UNL     1      -0.647  -0.097  24.074  0.00  0.00    +0.242 C 
ATOM      8  O   UNL     1      -1.024   0.147  23.383  0.00  0.00    -0.273 OA
BRANCH   6   5
ATOM      5  C   UNL     1       0.622   0.035  23.429  0.00  0.00    +0.132 C 
BRANCH   5   4
ATOM      4  C   UNL     1       1.411  -0.199  23.381  0.00  0.00    +0.096 C 
BRANCH   4   2
ATOM      1  C   UNL     1       1.661  -0.282  21.976  0.00  0.00    +0.090 C 
ATOM      2  N   UNL     1       1.863   0.008  22.721  0.00  0.00    -0.269 NA
ATOM      3  C   UNL     1       2.515   0.505  22.808  0.00  0.00    +0.090 C 
ENDBRANCH   4   2
ENDBRANCH   5   4
ENDBRANCH   6   5
ENDBRANCH   9   7
ENDBRANCH  10   9
BRANCH  28  30
ATOM     30  O   UNL     1      -2.290   3.670  25.145  0.00  0.00    -0.428 OA
BRANCH  30  31
ATOM     31  C   UNL     1      -1.607   4.132  25.144  0.00  0.00    +0.237 C 
BRANCH  31  32
ATOM     32  C   UNL     1      -1.654   4.941  25.299  0.00  0.00    +0.021 C 
ATOM     33  C   UNL     1      -1.145   5.465  24.918  0.00  0.00    -0.001 C 
ENDBRANCH  31  32
ENDBRANCH  30  31
ENDBRANCH  28  30
TORSDOF 9
ENDMDL
MODEL 4
REMARK VINA RESULT:      -9.9      1.901      5.909
REMARK  Name = 
REMARK  9 active torsions:
REMARK  status: ('A' for Active; 'I' for Inactive)
REMARK    1  A    between atoms: N_2  and  C_4
REMARK    2  A    between atoms: C_4  and  C_5
REMARK    3  A    between atoms: C_5  and  N_6
REMARK    4  A    between atoms: C_7  and  C_9
REMARK    5  A    between atoms: C_9  and  C_10
REMARK    6  A    between atoms: C_15  and  C_17
REMARK    7  A    between atoms: C_28  and  O_30
REMARK    8  A    between atoms: O_30  and  C_31
REMARK    9  A    between atoms: C_31  and  C_32
REMARK                            x       y       z     vdW  Elec       q    Type
REMARK                         _______ _______ _______ _____ _____    ______ ____
ROOT
ATOM     10  C   UNL     1      -1.416   2.030  24.876  0.00  0.00    +0.050 C 
ATOM     11  C   UNL     1      -2.179   1.720  24.822  0.00  0.00    +0.063 A 
ATOM     12  C   UNL     1      -2.832   2.222  24.870  0.00  0.00    +0.023 A 
ATOM     13  C   UNL     1      -2.722   3.032  24.972  0.00  0.00    +0.034 C 
ATOM     14  C   UNL     1      -1.960   3.342  25.027  0.00  0.00    +0.010 C 
ATOM     15  C   UNL     1      -1.851   4.154  25.130  0.00  0.00    +0.059 C 
ATOM     16  C   UNL     1      -2.674   4.122  25.108  0.00  0.00    +0.005 C 
ATOM     19  C   UNL     1      -1.088   4.463  25.185  0.00  0.00    +0.154 C 
ATOM     20  O   UNL     1      -0.978   5.275  25.288  0.00  0.00    -0.223 OA
ATOM     21  C   UNL     1      -0.435   3.962  25.137  0.00  0.00    +0.033 C 
ATOM     22  C   UNL     1      -0.544   3.150  25.034  0.00  0.00    +0.003 C 
ATOM     23  C   UNL     1      -1.306   2.840  24.979  0.00  0.00    +0.006 C 
ATOM     24  C   UNL     1      -0.654   2.339  24.931  0.00  0.00    +0.000 C 
ATOM     25  S   UNL     1      -3.513   1.760  24.798  0.00  0.00    -0.054 S 
ATOM     26  C   UNL     1      -3.280   0.975  24.706  0.00  0.00    +0.188 A 
ATOM     27  N   UNL     1      -3.784   0.327  24.615  0.00  0.00    -0.117 NA
ATOM     28  C   UNL     1      -3.470  -0.430  24.528  0.00  0.00    +0.427 C 
ATOM     29  O   UNL     1      -2.652  -0.541  24.531  0.00  0.00    -0.224 OA
ATOM     34  N   UNL     1      -2.455   0.949  24.720  0.00  0.00    -0.227 NA
ENDROOT
BRANCH  15  17
ATOM     17  C   UNL     1      -2.027   4.953  25.225  0.00  0.00    +0.184 C 
ATOM     18  O   UNL     1      -2.717   5.179  25.618  0.00  0.00    -0.220 OA
ENDBRANCH  15  17
BRANCH  10   9
ATOM      9  C   UNL     1      -0.763   1.528  24.828  0.00  0.00    +0.093 C 
BRANCH   9   7
ATOM      6  N   UNL     1       0.124   0.730  24.042  0.00  0.00    -0.204 NA
ATOM      7  C   UNL     1      -0.478   1.292  24.090  0.00  0.00    +0.242 C 
ATOM      8  O   UNL     1      -0.796   1.617  23.403  0.00  0.00    -0.273 OA
BRANCH   6   5
ATOM      5  C   UNL     1       0.408   0.493  23.304  0.00  0.00    +0.132 C 
BRANCH   5   4
ATOM      4  C   UNL     1       0.960  -0.118  23.251  0.00  0.00    +0.096 C 
BRANCH   4   2
ATOM      1  C   UNL     1       2.260   0.144  22.719  0.00  0.00    +0.090 C 
ATOM      2  N   UNL     1       1.492  -0.140  22.620  0.00  0.00    -0.269 NA
ATOM      3  C   UNL     1       1.255  -0.446  21.892  0.00  0.00    +0.090 C 
ENDBRANCH   4   2
ENDBRANCH   5   4
ENDBRANCH   6   5
ENDBRANCH   9   7
ENDBRANCH  10   9
BRANCH  28  30
ATOM     30  O   UNL     1      -3.973  -1.078  24.437  0.00  0.00    -0.428 OA
BRANCH  30  31
ATOM     31  C   UNL     1      -3.662  -1.821  24.262  0.00  0.00    +0.237 C 
BRANCH  31  32
ATOM     32  C   UNL     1      -4.165  -2.442  24.058  0.00  0.00    +0.021 C 
ATOM     33  C   UNL     1      -3.895  -3.220  24.089  0.00  0.00    -0.001 C 
ENDBRANCH  31  32
ENDBRANCH  30  31
ENDBRANCH  28  30
TORSDOF 9
ENDMDL
MODEL 5
REMARK VINA RESULT:      -9.8      1.142      3.193
REMARK  Name = 
REMARK  9 active torsions:
REMARK  status: ('A' for Active; 'I' for Inactive)
REMARK    1  A    between atoms: N_2  and  C_4
REMARK    2  A    between atoms: C_4  and  C_5
REMARK    3  A    between atoms: C_5  and  N_6
REMARK    4  A    between atoms: C_7  and  C_9
REMARK    5  A    between atoms: C_9  and  C_10
REMARK    6  A    between atoms: C_15  and  C_17
REMARK    7  A    between atoms: C_28  and  O_30
REMARK    8  A    between atoms: O_30  and  C_31
REMARK    9  A    between atoms: C_31  and  C_32
REMARK                            x       y       z     vdW  Elec       q    Type
REMARK                         _______ _______ _______ _____ _____    ______ ____
ROOT
ATOM     10  C   UNL     1      -2.787  -0.017  25.131  0.00  0.00    +0.050 C 
ATOM     11  C   UNL     1      -3.554   0.259  25.000  0.00  0.00    +0.063 A 
ATOM     12  C   UNL     1      -4.123  -0.245  24.680  0.00  0.00    +0.023 A 
ATOM     13  C   UNL     1      -3.927  -1.023  24.491  0.00  0.00    +0.034 C 
ATOM     14  C   UNL     1      -3.160  -1.298  24.621  0.00  0.00    +0.010 C 
ATOM     15  C   UNL     1      -2.964  -2.077  24.432  0.00  0.00    +0.059 C 
ATOM     16  C   UNL     1      -3.757  -2.071  24.209  0.00  0.00    +0.005 C 
ATOM     19  C   UNL     1      -2.197  -2.351  24.563  0.00  0.00    +0.154 C 
ATOM     20  O   UNL     1      -1.999  -3.131  24.373  0.00  0.00    -0.223 OA
ATOM     21  C   UNL     1      -1.627  -1.848  24.883  0.00  0.00    +0.033 C 
ATOM     22  C   UNL     1      -1.824  -1.070  25.072  0.00  0.00    +0.003 C 
ATOM     23  C   UNL     1      -2.590  -0.794  24.942  0.00  0.00    +0.006 C 
ATOM     24  C   UNL     1      -2.021  -0.291  25.261  0.00  0.00    +0.000 C 
ATOM     25  S   UNL     1      -4.829   0.179  24.614  0.00  0.00    -0.054 S 
ATOM     26  C   UNL     1      -4.695   0.943  24.892  0.00  0.00    +0.188 A 
ATOM     27  N   UNL     1      -5.251   1.552  24.927  0.00  0.00    -0.117 NA
ATOM     28  C   UNL     1      -5.036   2.291  25.220  0.00  0.00    +0.427 C 
ATOM     29  O   UNL     1      -4.264   2.423  25.480  0.00  0.00    -0.224 OA
ATOM     34  N   UNL     1      -3.907   0.993  25.132  0.00  0.00    -0.227 NA
ENDROOT
BRANCH  15  17
ATOM     17  C   UNL     1      -3.043  -2.853  24.165  0.00  0.00    +0.184 C 
ATOM     18  O   UNL     1      -3.793  -3.189  24.090  0.00  0.00    -0.220 OA
ENDBRANCH  15  17
BRANCH  10   9
ATOM      9  C   UNL     1      -2.217   0.487  25.451  0.00  0.00    +0.093 C 
BRANCH   9   7
ATOM      6  N   UNL     1      -1.520   1.728  25.321  0.00  0.00    -0.204 NA
ATOM      7  C   UNL     1      -1.861   1.061  24.976  0.00  0.00    +0.242 C 
ATOM      8  O   UNL     1      -1.846   0.967  24.157  0.00  0.00    -0.273 OA
BRANCH   6   5
ATOM      5  C   UNL     1      -1.163   2.301  24.846  0.00  0.00    +0.132 C 
BRANCH   5   4
ATOM      4  C   UNL     1      -0.754   2.927  25.194  0.00  0.00    +0.096 C 
BRANCH   4   2
ATOM      1  C   UNL     1      -1.174   4.290  25.107  0.00  0.00    +0.090 C 
ATOM      2  N   UNL     1      -0.726   3.661  24.817  0.00  0.00    -0.269 NA
ATOM      3  C   UNL     1      -0.251   3.765  24.152  0.00  0.00    +0.090 C 
ENDBRANCH   4   2
ENDBRANCH   5   4
ENDBRANCH   6   5
ENDBRANCH   9   7
ENDBRANCH  10   9
BRANCH  28  30
ATOM     30  O   UNL     1      -5.592   2.900  25.255  0.00  0.00    -0.428 OA
BRANCH  30  31
ATOM     31  C   UNL     1      -5.358   3.662  25.467  0.00  0.00    +0.237 C 
BRANCH  31  32
ATOM     32  C   UNL     1      -5.919   4.210  25.722  0.00  0.00    +0.021 C 
ATOM     33  C   UNL     1      -5.887   4.989  25.454  0.00  0.00    -0.001 C 
ENDBRANCH  31  32
ENDBRANCH  30  31
ENDBRANCH  28  30
TORSDOF 9
ENDMDL
MODEL 6
REMARK VINA RESULT:      -9.4      2.368      3.455
REMARK  Name = 
REMARK  9 active torsions:
REMARK  status: ('A' for Active; 'I' for Inactive)
REMARK    1  A    between atoms: N_2  and  C_4
REMARK    2  A    between atoms: C_4  and  C_5
REMARK    3  A    between atoms: C_5  and  N_6
REMARK    4  A    between atoms: C_7  and  C_9
REMARK    5  A    between atoms: C_9  and  C_10
REMARK    6  A    between atoms: C_15  and  C_17
REMARK    7  A    between atoms: C_28  and  O_30
REMARK    8  A    between atoms: O_30  and  C_31
REMARK    9  A    between atoms: C_31  and  C_32
REMARK                            x       y       z     vdW  Elec       q    Type
REMARK                         _______ _______ _______ _____ _____    ______ ____
ROOT
ATOM     10  C   UNL     1      -1.168  -0.105  25.028  0.00  0.00    +0.050 C 
ATOM     11  C   UNL     1      -0.657  -0.320  24.417  0.00  0.00    +0.063 A 
ATOM     12  C   UNL     1      -0.795  -1.012  23.989  0.00  0.00    +0.023 A 
ATOM     13  C   UNL     1      -1.442  -1.488  24.172  0.00  0.00    +0.034 C 
ATOM     14  C   UNL     1      -1.953  -1.273  24.783  0.00  0.00    +0.010 C 
ATOM     15  C   UNL     1      -2.601  -1.750  24.966  0.00  0.00    +0.059 C 
ATOM     16  C   UNL     1      -2.276  -2.183  24.344  0.00  0.00    +0.005 C 
ATOM     19  C   UNL     1      -3.111  -1.535  25.578  0.00  0.00    +0.154 C 
ATOM     20  O   UNL     1      -3.760  -2.012  25.761  0.00  0.00    -0.223 OA
ATOM     21  C   UNL     1      -2.974  -0.844  26.006  0.00  0.00    +0.033 C 
ATOM     22  C   UNL     1      -2.326  -0.367  25.822  0.00  0.00    +0.003 C 
ATOM     23  C   UNL     1      -1.815  -0.581  25.211  0.00  0.00    +0.006 C 
ATOM     24  C   UNL     1      -1.678   0.110  25.639  0.00  0.00    +0.000 C 
ATOM     25  S   UNL     1      -0.200  -1.081  23.420  0.00  0.00    -0.054 S 
ATOM     26  C   UNL     1       0.303  -0.433  23.497  0.00  0.00    +0.188 A 
ATOM     27  N   UNL     1       0.973  -0.282  23.038  0.00  0.00    -0.117 NA
ATOM     28  C   UNL     1       1.426   0.392  23.179  0.00  0.00    +0.427 C 
ATOM     29  O   UNL     1       1.210   0.916  23.780  0.00  0.00    -0.224 OA
ATOM     34  N   UNL     1       0.021   0.038  24.113  0.00  0.00    -0.227 NA
ENDROOT
BRANCH  15  17
ATOM     17  C   UNL     1      -3.136  -2.377  24.933  0.00  0.00    +0.184 C 
ATOM     18  O   UNL     1      -3.138  -2.883  24.281  0.00  0.00    -0.220 OA
ENDBRANCH  15  17
BRANCH  10   9
ATOM      9  C   UNL     1      -1.030   0.587  25.456  0.00  0.00    +0.093 C 
BRANCH   9   7
ATOM      6  N   UNL     1      -1.047   2.014  25.523  0.00  0.00    -0.204 NA
ATOM      7  C   UNL     1      -1.283   1.314  25.157  0.00  0.00    +0.242 C 
ATOM      8  O   UNL     1      -1.771   1.339  24.493  0.00  0.00    -0.273 OA
BRANCH   6   5
ATOM      5  C   UNL     1      -1.300   2.741  25.224  0.00  0.00    +0.132 C 
BRANCH   5   4
ATOM      4  C   UNL     1      -1.100   3.439  25.615  0.00  0.00    +0.096 C 
BRANCH   4   2
ATOM      1  C   UNL     1      -2.128   4.423  25.486  0.00  0.00    +0.090 C 
ATOM      2  N   UNL     1      -1.362   4.165  25.322  0.00  0.00    -0.269 NA
ATOM      3  C   UNL     1      -0.859   4.632  24.865  0.00  0.00    +0.090 C 
ENDBRANCH   4   2
ENDBRANCH   5   4
ENDBRANCH   6   5
ENDBRANCH   9   7
ENDBRANCH  10   9
BRANCH  28  30
ATOM     30  O   UNL     1       2.095   0.544  22.721  0.00  0.00    -0.428 OA
BRANCH  30  31
ATOM     31  C   UNL     1       2.822   0.681  23.084  0.00  0.00    +0.237 C 
BRANCH  31  32
ATOM     32  C   UNL     1       3.488   0.846  22.626  0.00  0.00    +0.021 C 
ATOM     33  C   UNL     1       4.241   0.671  22.914  0.00  0.00    -0.001 C 
ENDBRANCH  31  32
ENDBRANCH  30  31
ENDBRANCH  28  30
TORSDOF 9
ENDMDL
MODEL 7
REMARK VINA RESULT:      -9.1      1.801      5.478
REMARK  Name = 
REMARK  9 active torsions:
REMARK  status: ('A' for Active; 'I' for Inactive)
REMARK    1  A    between atoms: N_2  and  C_4
REMARK    2  A    between atoms: C_4  and  C_5
REMARK    3  A    between atoms: C_5  and  N_6
REMARK    4  A    between atoms: C_7  and  C_9
REMARK    5  A    between atoms: C_9  and  C_10
REMARK    6  A    between atoms: C_15  and  C_17
REMARK    7  A    between atoms: C_28  and  O_30
REMARK    8  A    between atoms: O_30  and  C_31
REMARK    9  A    between atoms: C_31  and  C_32
REMARK                            x       y       z     vdW  Elec       q    Type
REMARK                         _______ _______ _______ _____ _____    ______ ____
ROOT
ATOM     10  C   UNL     1      -3.706   2.041  24.174  0.00  0.00    +0.050 C 
ATOM     11  C   UNL     1      -4.085   1.333  24.368  0.00  0.00    +0.063 A 
ATOM     12  C   UNL     1      -4.750   1.342  24.856  0.00  0.00    +0.023 A 
ATOM     13  C   UNL     1      -5.036   2.057  25.150  0.00  0.00    +0.034 C 
ATOM     14  C   UNL     1      -4.658   2.764  24.957  0.00  0.00    +0.010 C 
ATOM     15  C   UNL     1      -4.945   3.480  25.251  0.00  0.00    +0.059 C 
ATOM     16  C   UNL     1      -5.488   2.959  25.587  0.00  0.00    +0.005 C 
ATOM     19  C   UNL     1      -4.566   4.186  25.057  0.00  0.00    +0.154 C 
ATOM     20  O   UNL     1      -4.853   4.903  25.352  0.00  0.00    -0.223 OA
ATOM     21  C   UNL     1      -3.901   4.178  24.569  0.00  0.00    +0.033 C 
ATOM     22  C   UNL     1      -3.615   3.463  24.275  0.00  0.00    +0.003 C 
ATOM     23  C   UNL     1      -3.993   2.756  24.468  0.00  0.00    +0.006 C 
ATOM     24  C   UNL     1      -3.328   2.747  23.981  0.00  0.00    +0.000 C 
ATOM     25  S   UNL     1      -5.006   0.563  24.951  0.00  0.00    -0.054 S 
ATOM     26  C   UNL     1      -4.499   0.074  24.522  0.00  0.00    +0.188 A 
ATOM     27  N   UNL     1      -4.552  -0.747  24.464  0.00  0.00    -0.117 NA
ATOM     28  C   UNL     1      -4.003  -1.165  24.013  0.00  0.00    +0.427 C 
ATOM     29  O   UNL     1      -3.400  -0.762  23.619  0.00  0.00    -0.224 OA
ATOM     34  N   UNL     1      -3.930   0.550  24.162  0.00  0.00    -0.227 NA
ENDROOT
BRANCH  15  17
ATOM     17  C   UNL     1      -5.420   4.014  25.662  0.00  0.00    +0.184 C 
ATOM     18  O   UNL     1      -6.130   3.760  25.998  0.00  0.00    -0.220 OA
ENDBRANCH  15  17
BRANCH  10   9
ATOM      9  C   UNL     1      -3.041   2.032  23.686  0.00  0.00    +0.093 C 
BRANCH   9   7
ATOM      6  N   UNL     1      -1.718   1.528  23.495  0.00  0.00    -0.204 NA
ATOM      7  C   UNL     1      -2.306   1.817  23.995  0.00  0.00    +0.242 C 
ATOM      8  O   UNL     1      -2.161   1.891  24.803  0.00  0.00    -0.273 OA
BRANCH   6   5
ATOM      5  C   UNL     1      -0.983   1.313  23.804  0.00  0.00    +0.132 C 
BRANCH   5   4
ATOM      4  C   UNL     1      -0.419   0.960  23.316  0.00  0.00    +0.096 C 
BRANCH   4   2
ATOM      1  C   UNL     1       0.247  -0.219  23.772  0.00  0.00    +0.090 C 
ATOM      2  N   UNL     1       0.243   0.596  23.649  0.00  0.00    -0.269 NA
ATOM      3  C   UNL     1       0.900   1.048  23.859  0.00  0.00    +0.090 C 
ENDBRANCH   4   2
ENDBRANCH   5   4
ENDBRANCH   6   5
ENDBRANCH   9   7
ENDBRANCH  10   9
BRANCH  28  30
ATOM     30  O   UNL     1      -4.056  -1.987  23.954  0.00  0.00    -0.428 OA
BRANCH  30  31
ATOM     31  C   UNL     1      -3.438  -2.460  24.225  0.00  0.00    +0.237 C 
BRANCH  31  32
ATOM     32  C   UNL     1      -3.564  -3.263  24.368  0.00  0.00    +0.021 C 
ATOM     33  C   UNL     1      -3.183  -3.635  24.997  0.00  0.00    -0.001 C 
ENDBRANCH  31  32
ENDBRANCH  30  31
ENDBRANCH  28  30
TORSDOF 9
ENDMDL
MODEL 8
REMARK VINA RESULT:      -8.8      1.238      4.907
REMARK  Name = 
REMARK  9 active torsions:
REMARK  status: ('A' for Active; 'I' for Inactive)
REMARK    1  A    between atoms: N_2  and  C_4
REMARK    2  A    between atoms: C_4  and  C_5
REMARK    3  A    between atoms: C_5  and  N_6
REMARK    4  A    between atoms: C_7  and  C_9
REMARK    5  A    between atoms: C_9  and  C_10
REMARK    6  A    between atoms: C_15  and  C_17
REMARK    7  A    between atoms: C_28  and  O_30
REMARK    8  A    between atoms: O_30  and  C_31
REMARK    9  A    between atoms: C_31  and  C_32
REMARK                            x       y       z     vdW  Elec       q    Type
REMARK                         _______ _______ _______ _____ _____    ______ ____
ROOT
ATOM     10  C   UNL     1      -2.250   2.873  25.287  0.00  0.00    +0.050 C 
ATOM     11  C   UNL     1      -1.901   2.181  25.002  0.00  0.00    +0.063 A 
ATOM     12  C   UNL     1      -1.176   2.216  24.611  0.00  0.00    +0.023 A 
ATOM     13  C   UNL     1      -0.800   2.942  24.503  0.00  0.00    +0.034 C 
ATOM     14  C   UNL     1      -1.148   3.634  24.787  0.00  0.00    +0.010 C 
ATOM     15  C   UNL     1      -0.772   4.360  24.680  0.00  0.00    +0.059 C 
ATOM     16  C   UNL     1      -0.227   3.861  24.314  0.00  0.00    +0.005 C 
ATOM     19  C   UNL     1      -1.121   5.051  24.965  0.00  0.00    +0.154 C 
ATOM     20  O   UNL     1      -0.745   5.778  24.857  0.00  0.00    -0.223 OA
ATOM     21  C   UNL     1      -1.846   5.016  25.356  0.00  0.00    +0.033 C 
ATOM     22  C   UNL     1      -2.222   4.290  25.464  0.00  0.00    +0.003 C 
ATOM     23  C   UNL     1      -1.874   3.598  25.180  0.00  0.00    +0.006 C 
ATOM     24  C   UNL     1      -2.599   3.564  25.571  0.00  0.00    +0.000 C 
ATOM     25  S   UNL     1      -0.967   1.448  24.392  0.00  0.00    -0.054 S 
ATOM     26  C   UNL     1      -1.563   0.939  24.649  0.00  0.00    +0.188 A 
ATOM     27  N   UNL     1      -1.579   0.120  24.547  0.00  0.00    -0.117 NA
ATOM     28  C   UNL     1      -2.215  -0.319  24.835  0.00  0.00    +0.427 C 
ATOM     29  O   UNL     1      -2.835   0.060  25.225  0.00  0.00    -0.224 OA
ATOM     34  N   UNL     1      -2.141   1.392  25.026  0.00  0.00    -0.227 NA
ENDROOT
BRANCH  15  17
ATOM     17  C   UNL     1      -0.207   4.912  24.446  0.00  0.00    +0.184 C 
ATOM     18  O   UNL     1       0.194   4.815  23.731  0.00  0.00    -0.220 OA
ENDBRANCH  15  17
BRANCH  10   9
ATOM      9  C   UNL     1      -2.975   2.837  25.678  0.00  0.00    +0.093 C 
BRANCH   9   7
ATOM      6  N   UNL     1      -4.381   2.590  25.622  0.00  0.00    -0.204 NA
ATOM      7  C   UNL     1      -3.676   2.791  25.244  0.00  0.00    +0.242 C 
ATOM      8  O   UNL     1      -3.671   2.945  24.435  0.00  0.00    -0.273 OA
BRANCH   6   5
ATOM      5  C   UNL     1      -5.082   2.543  25.188  0.00  0.00    +0.132 C 
BRANCH   5   4
ATOM      4  C   UNL     1      -5.810   2.582  25.575  0.00  0.00    +0.096 C 
BRANCH   4   2
ATOM      1  C   UNL     1      -6.660   1.754  24.779  0.00  0.00    +0.090 C 
ATOM      2  N   UNL     1      -6.343   1.954  25.514  0.00  0.00    -0.269 NA
ATOM      3  C   UNL     1      -6.558   1.529  26.186  0.00  0.00    +0.090 C 
ENDBRANCH   4   2
ENDBRANCH   5   4
ENDBRANCH   6   5
ENDBRANCH   9   7
ENDBRANCH  10   9
BRANCH  28  30
ATOM     30  O   UNL     1      -2.231  -1.138  24.733  0.00  0.00    -0.428 OA
BRANCH  30  31
ATOM     31  C   UNL     1      -2.951  -1.539  24.727  0.00  0.00    +0.237 C 
BRANCH  31  32
ATOM     32  C   UNL     1      -2.967  -2.359  24.640  0.00  0.00    +0.021 C 
ATOM     33  C   UNL     1      -3.670  -2.740  24.440  0.00  0.00    -0.001 C 
ENDBRANCH  31  32
ENDBRANCH  30  31
ENDBRANCH  28  30
TORSDOF 9
ENDMDL
