REMARK  Name = 
REMARK  5 active torsions:
REMARK  status: ('A' for Active; 'I' for Inactive)
REMARK    1  A    between atoms: C_2  and  C_24
REMARK    2  A    between atoms: N_3  and  C_4
REMARK    3  A    between atoms: C_8  and  N_12
REMARK    4  A    between atoms: C_14  and  C_15
REMARK    5  A    between atoms: C_15  and  C_16
REMARK                            x       y       z     vdW  Elec       q    Type
REMARK                         _______ _______ _______ _____ _____    ______ ____
ROOT
ATOM      4  C   UNL     1       1.270  -0.922   0.000  0.00  0.00    +0.154 C 
ATOM      5  C   UNL     1       0.785  -0.255   0.000  0.00  0.00    +0.166 C 
ATOM      6  O   UNL     1       1.270   0.412   0.000  0.00  0.00    -0.350 OA
ATOM      7  C   UNL     1       2.054   0.158   0.000  0.00  0.00    +0.169 C 
ATOM      8  C   UNL     1       2.839   0.412   0.000  0.00  0.00    +0.166 C 
ATOM      9  C   UNL     1       3.324  -0.255   0.000  0.00  0.00    +0.169 C 
ATOM     10  O   UNL     1       2.839  -0.922   0.000  0.00  0.00    -0.350 OA
ATOM     11  C   UNL     1       2.054  -0.667   0.000  0.00  0.00    +0.167 C 
ENDROOT
BRANCH   8  12
ATOM     12  N   UNL     1       3.094   1.197   0.000  0.00  0.00    -0.227 N 
ATOM     13  C   UNL     1       2.609   1.865   0.000  0.00  0.00    +0.113 A 
ATOM     14  C   UNL     1       3.094   2.532   0.000  0.00  0.00    +0.101 A 
ATOM     22  N   UNL     1       3.878   2.277   0.000  0.00  0.00    -0.133 NA
ATOM     23  N   UNL     1       3.878   1.452   0.000  0.00  0.00    -0.064 NA
BRANCH  14  15
ATOM     15  C   UNL     1       2.839   3.317   0.000  0.00  0.00    +0.049 C 
BRANCH  15  16
ATOM     16  C   UNL     1       3.391   3.930   0.000  0.00  0.00    +0.006 C 
ATOM     17  C   UNL     1       3.136   4.714   0.000  0.00  0.00    +0.000 C 
ATOM     18  C   UNL     1       3.688   5.327   0.000  0.00  0.00    +0.000 C 
ATOM     19  C   UNL     1       4.495   5.156   0.000  0.00  0.00    +0.000 C 
ATOM     20  C   UNL     1       4.750   4.371   0.000  0.00  0.00    +0.000 C 
ATOM     21  C   UNL     1       4.198   3.758   0.000  0.00  0.00    +0.000 C 
ENDBRANCH  15  16
ENDBRANCH  14  15
ENDBRANCH   8  12
BRANCH   4   3
ATOM      1  O   UNL     1       2.374  -2.149   0.000  0.00  0.00    -0.273 OA
ATOM      2  C   UNL     1       1.567  -2.320   0.000  0.00  0.00    +0.241 C 
ATOM      3  N   UNL     1       1.015  -1.707   0.000  0.00  0.00    -0.202 NA
BRANCH   2  24
ATOM     24  C   UNL     1       1.312  -3.105   0.000  0.00  0.00    +0.078 C 
ATOM     25  C   UNL     1       1.864  -3.718   0.000  0.00  0.00    +0.009 C 
ATOM     26  C   UNL     1       1.609  -4.502   0.000  0.00  0.00    +0.000 C 
ATOM     27  C   UNL     1       0.802  -4.674   0.000  0.00  0.00    +0.000 C 
ATOM     28  C   UNL     1       0.250  -4.061   0.000  0.00  0.00    +0.000 C 
ATOM     29  C   UNL     1       0.505  -3.276   0.000  0.00  0.00    +0.009 C 
ENDBRANCH   2  24
ENDBRANCH   4   3
TORSDOF 5
