REMARK  Name = 
REMARK  6 active torsions:
REMARK  status: ('A' for Active; 'I' for Inactive)
REMARK    1  A    between atoms: O_2  and  C_3
REMARK    2  A    between atoms: C_6  and  C_9
REMARK    3  A    between atoms: C_12  and  C_13
REMARK    4  A    between atoms: C_13  and  C_14
REMARK    5  A    between atoms: C_16  and  C_17
REMARK    6  A    between atoms: C_20  and  C_21
REMARK                            x       y       z     vdW  Elec       q    Type
REMARK                         _______ _______ _______ _____ _____    ______ ____
ROOT
ATOM      9  C   UNL     1       2.037  -1.299   0.000  0.00  0.00    +0.250 A 
ATOM     10  N   UNL     1       2.704  -1.784   0.000  0.00  0.00    -0.107 NA
ATOM     11  N   UNL     1       2.449  -2.569   0.000  0.00  0.00    -0.111 NA
ATOM     12  C   UNL     1       1.624  -2.569   0.000  0.00  0.00    +0.227 A 
ATOM     26  O   UNL     1       1.369  -1.784   0.000  0.00  0.00    -0.420 OA
ENDROOT
BRANCH   9   6
ATOM      3  C   UNL     1       2.037   1.176   0.000  0.00  0.00    +0.139 A 
ATOM      4  C   UNL     1       2.751   0.763   0.000  0.00  0.00    +0.037 A 
ATOM      5  C   UNL     1       2.751  -0.062   0.000  0.00  0.00    +0.008 A 
ATOM      6  C   UNL     1       2.037  -0.474   0.000  0.00  0.00    +0.055 A 
ATOM      7  C   UNL     1       1.322  -0.062   0.000  0.00  0.00    +0.008 A 
ATOM      8  C   UNL     1       1.322   0.763   0.000  0.00  0.00    +0.037 A 
BRANCH   3   2
ATOM      1  C   UNL     1       1.322   2.413   0.000  0.00  0.00    +0.252 C 
ATOM      2  O   UNL     1       2.037   2.001   0.000  0.00  0.00    -0.471 OA
ENDBRANCH   3   2
ENDBRANCH   9   6
BRANCH  12  13
ATOM     13  C   UNL     1       1.139  -3.236   0.000  0.00  0.00    +0.091 C 
BRANCH  13  14
ATOM     14  C   UNL     1       0.319  -3.150   0.000  0.00  0.00    +0.027 C 
ATOM     15  C   UNL     1      -0.166  -3.817   0.000  0.00  0.00    +0.005 C 
ATOM     16  C   UNL     1      -0.987  -3.731   0.000  0.00  0.00    +0.007 C 
ATOM     20  C   UNL     1      -1.322  -2.977   0.000  0.00  0.00    +0.054 C 
ATOM     23  C   UNL     1      -0.837  -2.310   0.000  0.00  0.00    -0.032 C 
ATOM     24  C   UNL     1      -0.017  -2.396   0.000  0.00  0.00    -0.048 C 
ATOM     25  C   UNL     1       0.468  -1.729   0.000  0.00  0.00    +0.026 C 
BRANCH  16  17
ATOM     17  C   UNL     1      -1.472  -4.399   0.000  0.00  0.00    +0.000 C 
ATOM     18  C   UNL     1      -2.292  -4.312   0.000  0.00  0.00    +0.000 C 
ATOM     19  C   UNL     1      -1.136  -5.152   0.000  0.00  0.00    +0.000 C 
ENDBRANCH  16  17
BRANCH  20  21
ATOM     21  C   UNL     1      -2.143  -2.891   0.000  0.00  0.00    +0.186 C 
ATOM     22  O   UNL     1      -2.628  -3.559   0.000  0.00  0.00    -0.220 OA
ENDBRANCH  20  21
ENDBRANCH  13  14
ENDBRANCH  12  13
TORSDOF 6
