REMARK  Name = 
REMARK  6 active torsions:
REMARK  status: ('A' for Active; 'I' for Inactive)
REMARK    1  A    between atoms: C_2  and  C_26
REMARK    2  A    between atoms: N_3  and  C_4
REMARK    3  A    between atoms: C_4  and  C_5
REMARK    4  A    between atoms: C_12  and  C_13
REMARK    5  A    between atoms: C_13  and  N_14
REMARK    6  A    between atoms: N_17  and  C_20
REMARK                            x       y       z     vdW  Elec       q    Type
REMARK                         _______ _______ _______ _____ _____    ______ ____
ROOT
ATOM      5  C   UNL     1       2.143  -2.888   0.000  0.00  0.00    +0.079 C 
ATOM      6  C   UNL     1       2.568  -3.539   0.000  0.00  0.00    +0.018 C 
ATOM      7  C   UNL     1       3.377  -3.574   0.000  0.00  0.00    +0.005 C 
ATOM      8  C   UNL     1       3.675  -4.420   0.000  0.00  0.00    +0.017 C 
ATOM      9  C   UNL     1       3.223  -3.948   0.000  0.00  0.00    +0.072 C 
ATOM     10  N   UNL     1       2.967  -2.932   0.000  0.00  0.00    -0.272 NA
ATOM     11  C   UNL     1       3.613  -2.287   0.000  0.00  0.00    +0.073 C 
ATOM     12  C   UNL     1       3.993  -2.949   0.000  0.00  0.00    +0.032 C 
ENDROOT
BRANCH   5   4
ATOM      4  C   UNL     1       1.429  -2.475   0.000  0.00  0.00    +0.131 C 
BRANCH   4   3
ATOM      1  O   UNL     1       0.000  -1.650   0.000  0.00  0.00    -0.268 OA
ATOM      2  C   UNL     1       0.715  -1.238   0.000  0.00  0.00    +0.265 C 
ATOM      3  N   UNL     1       1.429  -1.650   0.000  0.00  0.00    -0.200 NA
BRANCH   2  26
ATOM     26  C   UNL     1       0.715  -0.412   0.000  0.00  0.00    +0.058 A 
ATOM     27  C   UNL     1       0.000   0.000   0.000  0.00  0.00    +0.008 A 
ATOM     28  C   UNL     1       0.000   0.825   0.000  0.00  0.00    +0.040 A 
ATOM     29  C   UNL     1       0.715   1.238   0.000  0.00  0.00    +0.176 A 
ATOM     30  O   UNL     1       0.886   2.045   0.000  0.00  0.00    -0.435 OA
ATOM     31  C   UNL     1       1.706   2.131   0.000  0.00  0.00    +0.429 C 
ATOM     32  O   UNL     1       2.042   1.377   0.000  0.00  0.00    -0.435 OA
ATOM     33  C   UNL     1       1.429   0.825   0.000  0.00  0.00    +0.177 A 
ATOM     34  C   UNL     1       1.429   0.000   0.000  0.00  0.00    +0.045 A 
ENDBRANCH   2  26
ENDBRANCH   4   3
ENDBRANCH   5   4
BRANCH  12  13
ATOM     13  C   UNL     1       4.811  -3.055   0.000  0.00  0.00    +0.074 C 
BRANCH  13  14
ATOM     14  N   UNL     1       5.312  -2.399   0.000  0.00  0.00    -0.270 NA
ATOM     15  C   UNL     1       4.995  -1.637   0.000  0.00  0.00    +0.094 C 
ATOM     16  C   UNL     1       5.495  -0.982   0.000  0.00  0.00    +0.108 C 
ATOM     17  N   UNL     1       6.313  -1.087   0.000  0.00  0.00    -0.305 N 
ATOM     18  C   UNL     1       6.631  -1.849   0.000  0.00  0.00    +0.108 C 
ATOM     19  C   UNL     1       6.130  -2.505   0.000  0.00  0.00    +0.094 C 
BRANCH  17  20
ATOM     20  C   UNL     1       6.814  -0.432   0.000  0.00  0.00    +0.048 A 
ATOM     21  C   UNL     1       6.497   0.330   0.000  0.00  0.00    +0.015 A 
ATOM     22  C   UNL     1       6.997   0.985   0.000  0.00  0.00    +0.001 A 
ATOM     23  C   UNL     1       7.815   0.880   0.000  0.00  0.00    +0.000 A 
ATOM     24  C   UNL     1       8.133   0.118   0.000  0.00  0.00    +0.001 A 
ATOM     25  C   UNL     1       7.632  -0.537   0.000  0.00  0.00    +0.015 A 
ENDBRANCH  17  20
ENDBRANCH  13  14
ENDBRANCH  12  13
TORSDOF 6
