MODEL 1
REMARK VINA RESULT:      -9.7      0.000      0.000
REMARK  Name = 
REMARK  8 active torsions:
REMARK  status: ('A' for Active; 'I' for Inactive)
REMARK    1  A    between atoms: O_2  and  C_3
REMARK    2  A    between atoms: C_6  and  C_11
REMARK    3  A    between atoms: C_8  and  O_9
REMARK    4  A    between atoms: C_15  and  C_17
REMARK    5  A    between atoms: C_24  and  C_25
REMARK    6  A    between atoms: C_25  and  N_26
REMARK    7  A    between atoms: N_26  and  C_27
REMARK    8  A    between atoms: C_27  and  C_28
REMARK                            x       y       z     vdW  Elec       q    Type
REMARK                         _______ _______ _______ _____ _____    ______ ____
ROOT
ATOM     17  C   UNL     1      -0.394   0.917  23.960  0.00  0.00    +0.056 C 
ATOM     18  C   UNL     1       0.062   1.426  23.589  0.00  0.00    +0.078 C 
ATOM     19  N   UNL     1       0.142   0.605  23.583  0.00  0.00    -0.272 NA
ATOM     20  C   UNL     1      -0.627   0.214  24.179  0.00  0.00    +0.072 C 
ATOM     21  C   UNL     1      -0.937  -0.297  24.442  0.00  0.00    +0.018 C 
ATOM     22  C   UNL     1      -0.309   0.112  23.950  0.00  0.00    +0.010 C 
ATOM     23  C   UNL     1       0.272  -0.413  23.553  0.00  0.00    +0.018 C 
ATOM     24  C   UNL     1       0.743   0.053  23.173  0.00  0.00    +0.075 C 
ENDROOT
BRANCH  17  15
ATOM     11  C   UNL     1      -2.243   1.596  24.786  0.00  0.00    +0.102 A 
ATOM     12  N   UNL     1      -1.717   1.797  25.388  0.00  0.00    -0.170 NA
ATOM     13  N   UNL     1      -0.960   1.567  25.152  0.00  0.00    -0.253 N 
ATOM     14  C   UNL     1      -0.266   1.662  25.588  0.00  0.00    +0.153 C 
ATOM     15  C   UNL     1      -1.020   1.224  24.404  0.00  0.00    +0.058 A 
ATOM     16  C   UNL     1      -1.812   1.243  24.177  0.00  0.00    +0.035 A 
BRANCH  11   6
ATOM      3  C   UNL     1      -4.687   1.989  24.799  0.00  0.00    +0.172 A 
ATOM      4  C   UNL     1      -4.388   1.240  24.974  0.00  0.00    +0.040 A 
ATOM      5  C   UNL     1      -3.574   1.110  24.969  0.00  0.00    +0.005 A 
ATOM      6  C   UNL     1      -3.057   1.727  24.790  0.00  0.00    +0.023 A 
ATOM      7  C   UNL     1      -3.356   2.476  24.616  0.00  0.00    +0.042 A 
ATOM      8  C   UNL     1      -4.171   2.607  24.620  0.00  0.00    +0.172 A 
BRANCH   3   2
ATOM      1  C   UNL     1      -6.014   1.517  25.036  0.00  0.00    +0.253 C 
ATOM      2  O   UNL     1      -5.501   2.120  24.804  0.00  0.00    -0.468 OA
ENDBRANCH   3   2
BRANCH   8   9
ATOM      9  O   UNL     1      -4.470   3.357  24.446  0.00  0.00    -0.468 OA
ATOM     10  C   UNL     1      -3.953   3.989  24.331  0.00  0.00    +0.253 C 
ENDBRANCH   8   9
ENDBRANCH  11   6
ENDBRANCH  17  15
BRANCH  24  25
ATOM     25  C   UNL     1       1.405   0.055  22.682  0.00  0.00    +0.105 C 
BRANCH  25  26
ATOM     26  N   UNL     1       2.162   0.039  23.009  0.00  0.00    -0.210 NA
BRANCH  26  27
ATOM     27  C   UNL     1       2.824   0.055  22.517  0.00  0.00    +0.134 C 
BRANCH  27  28
ATOM     28  C   UNL     1       3.580   0.094  22.844  0.00  0.00    +0.077 A 
ATOM     29  N   UNL     1       3.904  -0.568  23.216  0.00  0.00    -0.247 NA
ATOM     30  C   UNL     1       4.660  -0.528  23.544  0.00  0.00    +0.098 A 
ATOM     31  C   UNL     1       5.092   0.173  23.499  0.00  0.00    +0.021 A 
ATOM     32  C   UNL     1       4.769   0.835  23.128  0.00  0.00    +0.003 A 
ATOM     33  C   UNL     1       4.013   0.795  22.801  0.00  0.00    +0.016 A 
ENDBRANCH  27  28
ENDBRANCH  26  27
ENDBRANCH  25  26
ENDBRANCH  24  25
TORSDOF 8
ENDMDL
