REMARK  Name = 
REMARK  6 active torsions:
REMARK  status: ('A' for Active; 'I' for Inactive)
REMARK    1  A    between atoms: N_8  and  C_9
REMARK    2  A    between atoms: C_9  and  C_10
REMARK    3  A    between atoms: C_10  and  C_11
REMARK    4  A    between atoms: C_16  and  C_17
REMARK    5  A    between atoms: C_17  and  C_18
REMARK    6  A    between atoms: C_21  and  C_23
REMARK                            x       y       z     vdW  Elec       q    Type
REMARK                         _______ _______ _______ _____ _____    ______ ____
ROOT
ATOM     11  C   UNL     1       1.611   9.765   0.000  0.00  0.00    +0.022 C 
ATOM     12  C   UNL     1       2.326   9.353   0.000  0.00  0.00    +0.093 C 
ATOM     13  N   UNL     1       2.326   8.528   0.000  0.00  0.00    -0.280 N 
ATOM     14  C   UNL     1       1.611   8.115   0.000  0.00  0.00    +0.093 C 
ATOM     15  C   UNL     1       0.897   8.528   0.000  0.00  0.00    +0.022 C 
ATOM     16  C   UNL     1       0.897   9.353   0.000  0.00  0.00    +0.015 C 
ATOM     21  C   UNL     1       3.040   8.115   0.000  0.00  0.00    +0.225 C 
ATOM     22  O   UNL     1       3.755   8.528   0.000  0.00  0.00    -0.275 OA
ENDROOT
BRANCH  21  23
ATOM     23  C   UNL     1       3.040   7.290   0.000  0.00  0.00    +0.077 C 
ATOM     24  C   UNL     1       3.708   6.805   0.000  0.00  0.00    +0.009 C 
ATOM     25  C   UNL     1       3.453   6.021   0.000  0.00  0.00    +0.001 C 
ATOM     26  C   UNL     1       2.628   6.021   0.000  0.00  0.00    +0.001 C 
ATOM     27  C   UNL     1       2.373   6.805   0.000  0.00  0.00    +0.009 C 
ENDBRANCH  21  23
BRANCH  11  10
ATOM     10  C   UNL     1       1.611  10.590   0.000  0.00  0.00    +0.019 C 
BRANCH  10   9
ATOM      9  C   UNL     1       0.897  11.003   0.000  0.00  0.00    +0.072 C 
BRANCH   9   8
ATOM      1  C   UNL     1       0.591  15.060   0.000  0.00  0.00    +0.095 C 
ATOM      2  C   UNL     1       0.126  14.378   0.000  0.00  0.00    +0.226 C 
ATOM      3  O   UNL     1      -0.696  14.440   0.000  0.00  0.00    -0.275 OA
ATOM      4  N   UNL     1       0.484  13.635   0.000  0.00  0.00    -0.278 N 
ATOM      5  C   UNL     1       1.309  13.635   0.000  0.00  0.00    +0.095 C 
ATOM      6  C   UNL     1       1.824  12.990   0.000  0.00  0.00    +0.039 C 
ATOM      7  C   UNL     1       1.640  12.186   0.000  0.00  0.00    +0.074 C 
ATOM      8  N   UNL     1       0.897  11.828   0.000  0.00  0.00    -0.271 NA
ATOM     28  C   UNL     1       0.153  12.186   0.000  0.00  0.00    +0.094 C 
ATOM     29  C   UNL     1      -0.030  12.990   0.000  0.00  0.00    +0.111 C 
ENDBRANCH   9   8
ENDBRANCH  10   9
ENDBRANCH  11  10
BRANCH  16  17
ATOM     17  C   UNL     1       0.182   9.765   0.000  0.00  0.00    +0.114 C 
BRANCH  17  18
ATOM     18  C   UNL     1      -0.532   9.353   0.000  0.00  0.00    +0.365 C 
ATOM     19  O   UNL     1      -0.532   8.528   0.000  0.00  0.00    -0.246 OA
ATOM     20  O   UNL     1      -1.247   9.765   0.000  0.00  0.00    -0.246 OA
ENDBRANCH  17  18
ENDBRANCH  16  17
TORSDOF 6
