REMARK  Name = 
REMARK  5 active torsions:
REMARK  status: ('A' for Active; 'I' for Inactive)
REMARK    1  A    between atoms: N_3  and  C_4
REMARK    2  A    between atoms: C_4  and  C_5
REMARK    3  A    between atoms: N_11  and  C_12
REMARK    4  A    between atoms: C_16  and  N_20
REMARK    5  A    between atoms: C_22  and  C_25
REMARK                            x       y       z     vdW  Elec       q    Type
REMARK                         _______ _______ _______ _____ _____    ______ ____
ROOT
ATOM     12  C   UNL     1       1.270  -0.922   0.000  0.00  0.00    +0.156 C 
ATOM     13  C   UNL     1       0.785  -0.255   0.000  0.00  0.00    +0.166 C 
ATOM     14  O   UNL     1       1.270   0.412   0.000  0.00  0.00    -0.350 OA
ATOM     15  C   UNL     1       2.054   0.158   0.000  0.00  0.00    +0.169 C 
ATOM     16  C   UNL     1       2.839   0.412   0.000  0.00  0.00    +0.166 C 
ATOM     17  C   UNL     1       3.324  -0.255   0.000  0.00  0.00    +0.169 C 
ATOM     18  O   UNL     1       2.839  -0.922   0.000  0.00  0.00    -0.350 OA
ATOM     19  C   UNL     1       2.054  -0.667   0.000  0.00  0.00    +0.167 C 
ENDROOT
BRANCH  16  20
ATOM     20  N   UNL     1       3.094   1.197   0.000  0.00  0.00    -0.227 N 
ATOM     21  C   UNL     1       2.609   1.865   0.000  0.00  0.00    +0.119 A 
ATOM     22  C   UNL     1       3.094   2.532   0.000  0.00  0.00    +0.141 A 
ATOM     23  N   UNL     1       3.878   2.277   0.000  0.00  0.00    -0.127 NA
ATOM     24  N   UNL     1       3.878   1.452   0.000  0.00  0.00    -0.064 NA
BRANCH  22  25
ATOM     25  C   UNL     1       2.839   3.317   0.000  0.00  0.00    +0.102 A 
ATOM     26  N   UNL     1       2.032   3.488   0.000  0.00  0.00    -0.242 NA
ATOM     27  C   UNL     1       1.777   4.273   0.000  0.00  0.00    +0.099 A 
ATOM     28  C   UNL     1       2.329   4.886   0.000  0.00  0.00    +0.021 A 
ATOM     29  C   UNL     1       3.136   4.714   0.000  0.00  0.00    +0.003 A 
ATOM     30  C   UNL     1       3.391   3.930   0.000  0.00  0.00    +0.021 A 
ENDBRANCH  22  25
ENDBRANCH  16  20
BRANCH  12  11
ATOM      1  O   UNL     1      -0.344  -1.265   0.000  0.00  0.00    -0.249 OA
ATOM      2  C   UNL     1       0.208  -1.879   0.000  0.00  0.00    +0.340 C 
ATOM      3  N   UNL     1      -0.047  -2.663   0.000  0.00  0.00    -0.182 NA
ATOM     11  N   UNL     1       1.015  -1.707   0.000  0.00  0.00    -0.184 NA
BRANCH   3   4
ATOM      4  C   UNL     1      -0.854  -2.835   0.000  0.00  0.00    +0.143 C 
BRANCH   4   5
ATOM      5  C   UNL     1      -1.109  -3.619   0.000  0.00  0.00    -0.001 A 
ATOM      6  C   UNL     1      -0.557  -4.232   0.000  0.00  0.00    -0.003 A 
ATOM      7  C   UNL     1      -0.812  -5.017   0.000  0.00  0.00    -0.000 A 
ATOM      8  C   UNL     1      -1.619  -5.189   0.000  0.00  0.00    -0.000 A 
ATOM      9  C   UNL     1      -2.171  -4.575   0.000  0.00  0.00    -0.000 A 
ATOM     10  C   UNL     1      -1.916  -3.791   0.000  0.00  0.00    -0.003 A 
ENDBRANCH   4   5
ENDBRANCH   3   4
ENDBRANCH  12  11
TORSDOF 5
