MODEL 1
REMARK VINA RESULT:     -10.9      0.000      0.000
REMARK  Name = 
REMARK  6 active torsions:
REMARK  status: ('A' for Active; 'I' for Inactive)
REMARK    1  A    between atoms: C_4  and  C_7
REMARK    2  A    between atoms: N_9  and  C_10
REMARK    3  A    between atoms: C_10  and  C_11
REMARK    4  A    between atoms: C_13  and  C_14
REMARK    5  A    between atoms: C_18  and  N_19
REMARK    6  A    between atoms: N_22  and  C_25
REMARK                            x       y       z     vdW  Elec       q    Type
REMARK                         _______ _______ _______ _____ _____    ______ ____
ROOT
ATOM     11  C   UNL     1      -3.980   2.360  25.184  0.00  0.00    +0.154 C 
ATOM     12  O   UNL     1      -4.405   3.056  25.311  0.00  0.00    -0.350 OA
ATOM     13  C   UNL     1      -5.209   2.876  25.270  0.00  0.00    +0.180 C 
ATOM     16  C   UNL     1      -5.282   2.068  25.117  0.00  0.00    +0.198 C 
ATOM     17  O   UNL     1      -5.989   1.654  25.033  0.00  0.00    -0.219 OA
ATOM     18  C   UNL     1      -4.523   1.750  25.064  0.00  0.00    +0.120 C 
ENDROOT
BRANCH  18  19
ATOM     19  N   UNL     1      -4.339   0.959  24.917  0.00  0.00    -0.267 NA
ATOM     20  C   UNL     1      -4.345   0.412  25.535  0.00  0.00    +0.094 C 
ATOM     21  C   UNL     1      -4.161  -0.379  25.387  0.00  0.00    +0.108 C 
ATOM     22  N   UNL     1      -3.971  -0.622  24.622  0.00  0.00    -0.305 N 
ATOM     23  C   UNL     1      -3.965  -0.075  24.004  0.00  0.00    +0.108 C 
ATOM     24  C   UNL     1      -4.149   0.716  24.152  0.00  0.00    +0.094 C 
BRANCH  22  25
ATOM     25  C   UNL     1      -3.787  -1.413  24.474  0.00  0.00    +0.048 A 
ATOM     26  C   UNL     1      -4.272  -1.863  23.981  0.00  0.00    +0.015 A 
ATOM     27  C   UNL     1      -4.089  -2.654  23.832  0.00  0.00    +0.001 A 
ATOM     28  C   UNL     1      -3.420  -2.994  24.177  0.00  0.00    +0.000 A 
ATOM     29  C   UNL     1      -2.936  -2.544  24.670  0.00  0.00    +0.001 A 
ATOM     30  C   UNL     1      -3.119  -1.753  24.819  0.00  0.00    +0.015 A 
ENDBRANCH  22  25
ENDBRANCH  18  19
BRANCH  13  14
ATOM     14  C   UNL     1      -5.831   3.410  25.365  0.00  0.00    +0.214 C 
ATOM     15  O   UNL     1      -5.704   4.125  25.757  0.00  0.00    -0.218 OA
ENDBRANCH  13  14
BRANCH  11  10
ATOM     10  C   UNL     1      -3.159   2.286  25.178  0.00  0.00    +0.146 C 
BRANCH  10   9
ATOM      7  C   UNL     1      -1.880   2.925  25.190  0.00  0.00    +0.268 C 
ATOM      8  O   UNL     1      -1.546   2.248  25.521  0.00  0.00    -0.268 OA
ATOM      9  N   UNL     1      -2.688   2.944  25.018  0.00  0.00    -0.199 NA
BRANCH   7   4
ATOM      1  C   UNL     1      -0.950   5.667  24.963  0.00  0.00    +0.154 C 
ATOM      2  N   UNL     1      -0.981   4.843  24.926  0.00  0.00    -0.247 N 
ATOM      3  C   UNL     1      -1.613   4.370  25.165  0.00  0.00    +0.101 A 
ATOM      4  C   UNL     1      -1.409   3.582  25.030  0.00  0.00    +0.095 A 
ATOM      5  C   UNL     1      -0.650   3.568  24.707  0.00  0.00    +0.126 A 
ATOM      6  N   UNL     1      -0.385   4.347  24.643  0.00  0.00    -0.167 NA
ENDBRANCH   7   4
ENDBRANCH  10   9
ENDBRANCH  11  10
TORSDOF 6
ENDMDL
MODEL 2
REMARK VINA RESULT:     -10.7      1.038      5.049
REMARK  Name = 
REMARK  6 active torsions:
REMARK  status: ('A' for Active; 'I' for Inactive)
REMARK    1  A    between atoms: C_4  and  C_7
REMARK    2  A    between atoms: N_9  and  C_10
REMARK    3  A    between atoms: C_10  and  C_11
REMARK    4  A    between atoms: C_13  and  C_14
REMARK    5  A    between atoms: C_18  and  N_19
REMARK    6  A    between atoms: N_22  and  C_25
REMARK                            x       y       z     vdW  Elec       q    Type
REMARK                         _______ _______ _______ _____ _____    ______ ____
ROOT
ATOM     11  C   UNL     1      -4.553   1.529  25.026  0.00  0.00    +0.154 C 
ATOM     12  O   UNL     1      -5.341   1.293  25.093  0.00  0.00    -0.350 OA
ATOM     13  C   UNL     1      -5.802   1.968  25.204  0.00  0.00    +0.180 C 
ATOM     16  C   UNL     1      -5.298   2.623  25.206  0.00  0.00    +0.198 C 
ATOM     17  O   UNL     1      -5.527   3.409  25.301  0.00  0.00    -0.219 OA
ATOM     18  C   UNL     1      -4.527   2.351  25.096  0.00  0.00    +0.120 C 
ENDROOT
BRANCH  18  19
ATOM     19  N   UNL     1      -3.849   2.820  25.062  0.00  0.00    -0.267 NA
ATOM     20  C   UNL     1      -3.575   3.098  24.336  0.00  0.00    +0.094 C 
ATOM     21  C   UNL     1      -2.897   3.566  24.303  0.00  0.00    +0.108 C 
ATOM     22  N   UNL     1      -2.493   3.757  24.996  0.00  0.00    -0.305 N 
ATOM     23  C   UNL     1      -2.767   3.479  25.723  0.00  0.00    +0.108 C 
ATOM     24  C   UNL     1      -3.445   3.010  25.756  0.00  0.00    +0.094 C 
BRANCH  22  25
ATOM     25  C   UNL     1      -1.815   4.226  24.963  0.00  0.00    +0.048 A 
ATOM     26  C   UNL     1      -1.874   5.043  25.053  0.00  0.00    +0.015 A 
ATOM     27  C   UNL     1      -1.197   5.513  25.020  0.00  0.00    +0.001 A 
ATOM     28  C   UNL     1      -0.459   5.164  24.897  0.00  0.00    +0.000 A 
ATOM     29  C   UNL     1      -0.399   4.346  24.807  0.00  0.00    +0.001 A 
ATOM     30  C   UNL     1      -1.077   3.877  24.840  0.00  0.00    +0.015 A 
ENDBRANCH  22  25
ENDBRANCH  18  19
BRANCH  13  14
ATOM     14  C   UNL     1      -6.621   1.986  25.296  0.00  0.00    +0.214 C 
ATOM     15  O   UNL     1      -7.106   1.597  24.755  0.00  0.00    -0.218 OA
ENDBRANCH  13  14
BRANCH  11  10
ATOM     10  C   UNL     1      -3.905   1.033  24.911  0.00  0.00    +0.146 C 
BRANCH  10   9
ATOM      7  C   UNL     1      -3.355  -0.285  24.834  0.00  0.00    +0.268 C 
ATOM      8  O   UNL     1      -2.602   0.037  24.732  0.00  0.00    -0.268 OA
ATOM      9  N   UNL     1      -4.007   0.213  24.923  0.00  0.00    -0.199 NA
BRANCH   7   4
ATOM      1  C   UNL     1      -3.927  -3.010  24.009  0.00  0.00    +0.154 C 
ATOM      2  N   UNL     1      -3.719  -2.356  24.467  0.00  0.00    -0.247 N 
ATOM      3  C   UNL     1      -3.689  -1.573  24.210  0.00  0.00    +0.101 A 
ATOM      4  C   UNL     1      -3.456  -1.103  24.847  0.00  0.00    +0.095 A 
ATOM      5  C   UNL     1      -3.341  -1.596  25.499  0.00  0.00    +0.126 A 
ATOM      6  N   UNL     1      -3.504  -2.371  25.264  0.00  0.00    -0.167 NA
ENDBRANCH   7   4
ENDBRANCH  10   9
ENDBRANCH  11  10
TORSDOF 6
ENDMDL
MODEL 3
REMARK VINA RESULT:      -9.8      2.351      6.069
REMARK  Name = 
REMARK  6 active torsions:
REMARK  status: ('A' for Active; 'I' for Inactive)
REMARK    1  A    between atoms: C_4  and  C_7
REMARK    2  A    between atoms: N_9  and  C_10
REMARK    3  A    between atoms: C_10  and  C_11
REMARK    4  A    between atoms: C_13  and  C_14
REMARK    5  A    between atoms: C_18  and  N_19
REMARK    6  A    between atoms: N_22  and  C_25
REMARK                            x       y       z     vdW  Elec       q    Type
REMARK                         _______ _______ _______ _____ _____    ______ ____
ROOT
ATOM     11  C   UNL     1      -0.624   0.159  24.271  0.00  0.00    +0.154 C 
ATOM     12  O   UNL     1      -0.127  -0.404  23.929  0.00  0.00    -0.350 OA
ATOM     13  C   UNL     1       0.513  -0.009  23.591  0.00  0.00    +0.180 C 
ATOM     16  C   UNL     1       0.413   0.799  23.724  0.00  0.00    +0.198 C 
ATOM     17  O   UNL     1       0.924   1.397  23.480  0.00  0.00    -0.219 OA
ATOM     18  C   UNL     1      -0.290   0.903  24.145  0.00  0.00    +0.120 C 
ENDROOT
BRANCH  18  19
ATOM     19  N   UNL     1      -0.603   1.624  24.394  0.00  0.00    -0.267 NA
ATOM     20  C   UNL     1      -0.397   1.930  25.132  0.00  0.00    +0.094 C 
ATOM     21  C   UNL     1      -0.711   2.651  25.381  0.00  0.00    +0.108 C 
ATOM     22  N   UNL     1      -1.229   3.067  24.893  0.00  0.00    -0.305 N 
ATOM     23  C   UNL     1      -1.435   2.761  24.154  0.00  0.00    +0.108 C 
ATOM     24  C   UNL     1      -1.121   2.040  23.905  0.00  0.00    +0.094 C 
BRANCH  22  25
ATOM     25  C   UNL     1      -1.542   3.788  25.142  0.00  0.00    +0.048 A 
ATOM     26  C   UNL     1      -2.241   3.805  25.581  0.00  0.00    +0.015 A 
ATOM     27  C   UNL     1      -2.555   4.526  25.830  0.00  0.00    +0.001 A 
ATOM     28  C   UNL     1      -2.170   5.231  25.640  0.00  0.00    +0.000 A 
ATOM     29  C   UNL     1      -1.472   5.214  25.201  0.00  0.00    +0.001 A 
ATOM     30  C   UNL     1      -1.158   4.493  24.952  0.00  0.00    +0.015 A 
ENDBRANCH  22  25
ENDBRANCH  18  19
BRANCH  13  14
ATOM     14  C   UNL     1       1.143  -0.360  23.190  0.00  0.00    +0.214 C 
ATOM     15  O   UNL     1       1.035  -0.647  22.425  0.00  0.00    -0.218 OA
ENDBRANCH  13  14
BRANCH  11  10
ATOM     10  C   UNL     1      -1.329   0.007  24.670  0.00  0.00    +0.146 C 
BRANCH  10   9
ATOM      7  C   UNL     1      -2.421  -0.877  24.937  0.00  0.00    +0.268 C 
ATOM      8  O   UNL     1      -2.592  -0.456  25.625  0.00  0.00    -0.268 OA
ATOM      9  N   UNL     1      -1.789  -0.645  24.459  0.00  0.00    -0.199 NA
BRANCH   7   4
ATOM      1  C   UNL     1      -4.479  -2.527  23.722  0.00  0.00    +0.154 C 
ATOM      2  N   UNL     1      -3.827  -2.286  24.167  0.00  0.00    -0.247 N 
ATOM      3  C   UNL     1      -3.536  -1.517  24.224  0.00  0.00    +0.101 A 
ATOM      4  C   UNL     1      -2.881  -1.528  24.726  0.00  0.00    +0.095 A 
ATOM      5  C   UNL     1      -2.768  -2.305  24.980  0.00  0.00    +0.126 A 
ATOM      6  N   UNL     1      -3.353  -2.774  24.635  0.00  0.00    -0.167 NA
ENDBRANCH   7   4
ENDBRANCH  10   9
ENDBRANCH  11  10
TORSDOF 6
ENDMDL
MODEL 4
REMARK VINA RESULT:      -9.5      3.123      4.241
REMARK  Name = 
REMARK  6 active torsions:
REMARK  status: ('A' for Active; 'I' for Inactive)
REMARK    1  A    between atoms: C_4  and  C_7
REMARK    2  A    between atoms: N_9  and  C_10
REMARK    3  A    between atoms: C_10  and  C_11
REMARK    4  A    between atoms: C_13  and  C_14
REMARK    5  A    between atoms: C_18  and  N_19
REMARK    6  A    between atoms: N_22  and  C_25
REMARK                            x       y       z     vdW  Elec       q    Type
REMARK                         _______ _______ _______ _____ _____    ______ ____
ROOT
ATOM     11  C   UNL     1      -0.144   1.044  24.483  0.00  0.00    +0.154 C 
ATOM     12  O   UNL     1       0.246   1.707  24.781  0.00  0.00    -0.350 OA
ATOM     13  C   UNL     1      -0.229   2.043  25.365  0.00  0.00    +0.180 C 
ATOM     16  C   UNL     1      -0.914   1.587  25.429  0.00  0.00    +0.198 C 
ATOM     17  O   UNL     1      -1.541   1.725  25.947  0.00  0.00    -0.219 OA
ATOM     18  C   UNL     1      -0.862   0.970  24.884  0.00  0.00    +0.120 C 
ENDROOT
BRANCH  18  19
ATOM     19  N   UNL     1      -1.428   0.383  24.762  0.00  0.00    -0.267 NA
ATOM     20  C   UNL     1      -1.378  -0.331  25.173  0.00  0.00    +0.094 C 
ATOM     21  C   UNL     1      -1.944  -0.918  25.050  0.00  0.00    +0.108 C 
ATOM     22  N   UNL     1      -2.560  -0.792  24.517  0.00  0.00    -0.305 N 
ATOM     23  C   UNL     1      -2.611  -0.078  24.105  0.00  0.00    +0.108 C 
ATOM     24  C   UNL     1      -2.044   0.509  24.228  0.00  0.00    +0.094 C 
BRANCH  22  25
ATOM     25  C   UNL     1      -3.127  -1.379  24.394  0.00  0.00    +0.048 A 
ATOM     26  C   UNL     1      -2.987  -2.148  24.657  0.00  0.00    +0.015 A 
ATOM     27  C   UNL     1      -3.553  -2.736  24.535  0.00  0.00    +0.001 A 
ATOM     28  C   UNL     1      -4.259  -2.554  24.149  0.00  0.00    +0.000 A 
ATOM     29  C   UNL     1      -4.399  -1.785  23.885  0.00  0.00    +0.001 A 
ATOM     30  C   UNL     1      -3.833  -1.197  24.008  0.00  0.00    +0.015 A 
ENDBRANCH  22  25
ENDBRANCH  18  19
BRANCH  13  14
ATOM     14  C   UNL     1      -0.051   2.716  25.808  0.00  0.00    +0.214 C 
ATOM     15  O   UNL     1       0.625   2.731  26.280  0.00  0.00    -0.218 OA
ENDBRANCH  13  14
BRANCH  11  10
ATOM     10  C   UNL     1       0.132   0.543  23.890  0.00  0.00    +0.146 C 
BRANCH  10   9
ATOM      7  C   UNL     1       1.200   0.099  23.049  0.00  0.00    +0.268 C 
ATOM      8  O   UNL     1       0.749  -0.553  22.821  0.00  0.00    -0.268 OA
ATOM      9  N   UNL     1       0.892   0.647  23.584  0.00  0.00    -0.199 NA
BRANCH   7   4
ATOM      1  C   UNL     1       4.002   0.819  22.799  0.00  0.00    +0.154 C 
ATOM      2  N   UNL     1       3.247   0.533  22.628  0.00  0.00    -0.247 N 
ATOM      3  C   UNL     1       2.599   0.541  23.138  0.00  0.00    +0.101 A 
ATOM      4  C   UNL     1       1.959   0.202  22.743  0.00  0.00    +0.095 A 
ATOM      5  C   UNL     1       2.211  -0.014  21.988  0.00  0.00    +0.126 A 
ATOM      6  N   UNL     1       3.008   0.190  21.917  0.00  0.00    -0.167 NA
ENDBRANCH   7   4
ENDBRANCH  10   9
ENDBRANCH  11  10
TORSDOF 6
ENDMDL
MODEL 5
REMARK VINA RESULT:      -9.2      1.674      3.264
REMARK  Name = 
REMARK  6 active torsions:
REMARK  status: ('A' for Active; 'I' for Inactive)
REMARK    1  A    between atoms: C_4  and  C_7
REMARK    2  A    between atoms: N_9  and  C_10
REMARK    3  A    between atoms: C_10  and  C_11
REMARK    4  A    between atoms: C_13  and  C_14
REMARK    5  A    between atoms: C_18  and  N_19
REMARK    6  A    between atoms: N_22  and  C_25
REMARK                            x       y       z     vdW  Elec       q    Type
REMARK                         _______ _______ _______ _____ _____    ______ ____
ROOT
ATOM     11  C   UNL     1      -2.161   1.947  24.972  0.00  0.00    +0.154 C 
ATOM     12  O   UNL     1      -1.634   2.531  25.217  0.00  0.00    -0.350 OA
ATOM     13  C   UNL     1      -0.964   2.160  25.523  0.00  0.00    +0.180 C 
ATOM     16  C   UNL     1      -1.077   1.344  25.467  0.00  0.00    +0.198 C 
ATOM     17  O   UNL     1      -0.544   0.763  25.708  0.00  0.00    -0.219 OA
ATOM     18  C   UNL     1      -1.817   1.213  25.126  0.00  0.00    +0.120 C 
ENDROOT
BRANCH  18  19
ATOM     19  N   UNL     1      -2.153   0.476  24.968  0.00  0.00    -0.267 NA
ATOM     20  C   UNL     1      -2.077   0.140  24.218  0.00  0.00    +0.094 C 
ATOM     21  C   UNL     1      -2.413  -0.597  24.061  0.00  0.00    +0.108 C 
ATOM     22  N   UNL     1      -2.825  -0.997  24.652  0.00  0.00    -0.305 N 
ATOM     23  C   UNL     1      -2.902  -0.661  25.402  0.00  0.00    +0.108 C 
ATOM     24  C   UNL     1      -2.566   0.076  25.560  0.00  0.00    +0.094 C 
BRANCH  22  25
ATOM     25  C   UNL     1      -3.162  -1.734  24.494  0.00  0.00    +0.048 A 
ATOM     26  C   UNL     1      -3.862  -1.783  24.062  0.00  0.00    +0.015 A 
ATOM     27  C   UNL     1      -4.199  -2.519  23.904  0.00  0.00    +0.001 A 
ATOM     28  C   UNL     1      -3.835  -3.207  24.179  0.00  0.00    +0.000 A 
ATOM     29  C   UNL     1      -3.135  -3.158  24.611  0.00  0.00    +0.001 A 
ATOM     30  C   UNL     1      -2.798  -2.421  24.769  0.00  0.00    +0.015 A 
ENDBRANCH  22  25
ENDBRANCH  18  19
BRANCH  13  14
ATOM     14  C   UNL     1      -0.298   2.537  25.831  0.00  0.00    +0.214 C 
ATOM     15  O   UNL     1      -0.248   3.360  25.819  0.00  0.00    -0.218 OA
ENDBRANCH  13  14
BRANCH  11  10
ATOM     10  C   UNL     1      -2.902   2.072  24.632  0.00  0.00    +0.146 C 
BRANCH  10   9
ATOM      7  C   UNL     1      -4.192   2.687  24.680  0.00  0.00    +0.268 C 
ATOM      8  O   UNL     1      -4.321   2.475  23.894  0.00  0.00    -0.268 OA
ATOM      9  N   UNL     1      -3.482   2.485  25.050  0.00  0.00    -0.199 NA
BRANCH   7   4
ATOM      1  C   UNL     1      -5.890   4.829  25.661  0.00  0.00    +0.154 C 
ATOM      2  N   UNL     1      -5.552   4.085  25.548  0.00  0.00    -0.247 N 
ATOM      3  C   UNL     1      -4.932   3.907  25.034  0.00  0.00    +0.101 A 
ATOM      4  C   UNL     1      -4.771   3.100  25.097  0.00  0.00    +0.095 A 
ATOM      5  C   UNL     1      -5.293   2.779  25.650  0.00  0.00    +0.126 A 
ATOM      6  N   UNL     1      -5.775   3.388  25.929  0.00  0.00    -0.167 NA
ENDBRANCH   7   4
ENDBRANCH  10   9
ENDBRANCH  11  10
TORSDOF 6
ENDMDL
MODEL 6
REMARK VINA RESULT:      -8.8      3.000      4.792
REMARK  Name = 
REMARK  6 active torsions:
REMARK  status: ('A' for Active; 'I' for Inactive)
REMARK    1  A    between atoms: C_4  and  C_7
REMARK    2  A    between atoms: N_9  and  C_10
REMARK    3  A    between atoms: C_10  and  C_11
REMARK    4  A    between atoms: C_13  and  C_14
REMARK    5  A    between atoms: C_18  and  N_19
REMARK    6  A    between atoms: N_22  and  C_25
REMARK                            x       y       z     vdW  Elec       q    Type
REMARK                         _______ _______ _______ _____ _____    ______ ____
ROOT
ATOM     11  C   UNL     1      -1.449  -0.511  24.343  0.00  0.00    +0.154 C 
ATOM     12  O   UNL     1      -1.293  -1.321  24.357  0.00  0.00    -0.350 OA
ATOM     13  C   UNL     1      -1.985  -1.712  24.575  0.00  0.00    +0.180 C 
ATOM     16  C   UNL     1      -2.571  -1.143  24.696  0.00  0.00    +0.198 C 
ATOM     17  O   UNL     1      -3.350  -1.290  24.921  0.00  0.00    -0.219 OA
ATOM     18  C   UNL     1      -2.239  -0.401  24.553  0.00  0.00    +0.120 C 
ENDROOT
BRANCH  18  19
ATOM     19  N   UNL     1      -2.630   0.323  24.609  0.00  0.00    -0.267 NA
ATOM     20  C   UNL     1      -2.578   0.767  25.303  0.00  0.00    +0.094 C 
ATOM     21  C   UNL     1      -2.970   1.491  25.359  0.00  0.00    +0.108 C 
ATOM     22  N   UNL     1      -3.411   1.772  24.722  0.00  0.00    -0.305 N 
ATOM     23  C   UNL     1      -3.463   1.328  24.027  0.00  0.00    +0.108 C 
ATOM     24  C   UNL     1      -3.072   0.604  23.971  0.00  0.00    +0.094 C 
BRANCH  22  25
ATOM     25  C   UNL     1      -3.803   2.496  24.777  0.00  0.00    +0.048 A 
ATOM     26  C   UNL     1      -4.550   2.535  25.123  0.00  0.00    +0.015 A 
ATOM     27  C   UNL     1      -4.942   3.259  25.179  0.00  0.00    +0.001 A 
ATOM     28  C   UNL     1      -4.585   3.945  24.889  0.00  0.00    +0.000 A 
ATOM     29  C   UNL     1      -3.837   3.906  24.543  0.00  0.00    +0.001 A 
ATOM     30  C   UNL     1      -3.446   3.182  24.487  0.00  0.00    +0.015 A 
ENDBRANCH  22  25
ENDBRANCH  18  19
BRANCH  13  14
ATOM     14  C   UNL     1      -2.077  -2.527  24.657  0.00  0.00    +0.214 C 
ATOM     15  O   UNL     1      -1.696  -3.040  24.136  0.00  0.00    -0.218 OA
ENDBRANCH  13  14
BRANCH  11  10
ATOM     10  C   UNL     1      -0.911   0.084  24.153  0.00  0.00    +0.146 C 
BRANCH  10   9
ATOM      7  C   UNL     1       0.340   0.482  23.587  0.00  0.00    +0.268 C 
ATOM      8  O   UNL     1       0.241   1.239  23.901  0.00  0.00    -0.268 OA
ATOM      9  N   UNL     1      -0.236  -0.095  23.713  0.00  0.00    -0.199 NA
BRANCH   7   4
ATOM      1  C   UNL     1       3.089   0.414  22.651  0.00  0.00    +0.154 C 
ATOM      2  N   UNL     1       2.279   0.272  22.718  0.00  0.00    -0.247 N 
ATOM      3  C   UNL     1       1.775   0.593  23.287  0.00  0.00    +0.101 A 
ATOM      4  C   UNL     1       1.015   0.303  23.148  0.00  0.00    +0.095 A 
ATOM      5  C   UNL     1       1.049  -0.197  22.493  0.00  0.00    +0.126 A 
ATOM      6  N   UNL     1       1.830  -0.216  22.227  0.00  0.00    -0.167 NA
ENDBRANCH   7   4
ENDBRANCH  10   9
ENDBRANCH  11  10
TORSDOF 6
ENDMDL
MODEL 7
REMARK VINA RESULT:      -8.4     15.665     18.962
REMARK  Name = 
REMARK  6 active torsions:
REMARK  status: ('A' for Active; 'I' for Inactive)
REMARK    1  A    between atoms: C_4  and  C_7
REMARK    2  A    between atoms: N_9  and  C_10
REMARK    3  A    between atoms: C_10  and  C_11
REMARK    4  A    between atoms: C_13  and  C_14
REMARK    5  A    between atoms: C_18  and  N_19
REMARK    6  A    between atoms: N_22  and  C_25
REMARK                            x       y       z     vdW  Elec       q    Type
REMARK                         _______ _______ _______ _____ _____    ______ ____
ROOT
ATOM     11  C   UNL     1      12.400   8.377  18.915  0.00  0.00    +0.154 C 
ATOM     12  O   UNL     1      11.749   8.559  18.442  0.00  0.00    -0.350 OA
ATOM     13  C   UNL     1      11.916   8.315  17.671  0.00  0.00    +0.180 C 
ATOM     16  C   UNL     1      12.672   7.982  17.668  0.00  0.00    +0.198 C 
ATOM     17  O   UNL     1      13.059   7.667  17.013  0.00  0.00    -0.219 OA
ATOM     18  C   UNL     1      12.970   8.021  18.437  0.00  0.00    +0.120 C 
ENDROOT
BRANCH  18  19
ATOM     19  N   UNL     1      13.709   7.750  18.683  0.00  0.00    -0.267 NA
ATOM     20  C   UNL     1      14.369   8.241  18.625  0.00  0.00    +0.094 C 
ATOM     21  C   UNL     1      15.108   7.969  18.871  0.00  0.00    +0.108 C 
ATOM     22  N   UNL     1      15.187   7.207  19.176  0.00  0.00    -0.305 N 
ATOM     23  C   UNL     1      14.527   6.715  19.234  0.00  0.00    +0.108 C 
ATOM     24  C   UNL     1      13.788   6.987  18.988  0.00  0.00    +0.094 C 
BRANCH  22  25
ATOM     25  C   UNL     1      15.926   6.935  19.422  0.00  0.00    +0.048 A 
ATOM     26  C   UNL     1      16.292   7.274  20.079  0.00  0.00    +0.015 A 
ATOM     27  C   UNL     1      17.031   7.003  20.326  0.00  0.00    +0.001 A 
ATOM     28  C   UNL     1      17.404   6.392  19.916  0.00  0.00    +0.000 A 
ATOM     29  C   UNL     1      17.038   6.053  19.259  0.00  0.00    +0.001 A 
ATOM     30  C   UNL     1      16.300   6.324  19.012  0.00  0.00    +0.015 A 
ENDBRANCH  22  25
ENDBRANCH  18  19
BRANCH  13  14
ATOM     14  C   UNL     1      11.417   8.391  17.019  0.00  0.00    +0.214 C 
ATOM     15  O   UNL     1      10.599   8.356  17.120  0.00  0.00    -0.218 OA
ENDBRANCH  13  14
BRANCH  11  10
ATOM     10  C   UNL     1      12.469   8.524  19.723  0.00  0.00    +0.146 C 
BRANCH  10   9
ATOM      7  C   UNL     1      11.858   8.604  21.013  0.00  0.00    +0.268 C 
ATOM      8  O   UNL     1      12.500   9.043  21.289  0.00  0.00    -0.268 OA
ATOM      9  N   UNL     1      11.843   8.345  20.230  0.00  0.00    -0.199 NA
BRANCH   7   4
ATOM      1  C   UNL     1       9.821   7.139  22.475  0.00  0.00    +0.154 C 
ATOM      2  N   UNL     1      10.296   7.751  22.192  0.00  0.00    -0.247 N 
ATOM      3  C   UNL     1      10.907   7.677  21.643  0.00  0.00    +0.101 A 
ATOM      4  C   UNL     1      11.232   8.425  21.520  0.00  0.00    +0.095 A 
ATOM      5  C   UNL     1      10.822   8.963  21.992  0.00  0.00    +0.126 A 
ATOM      6  N   UNL     1      10.243   8.546  22.408  0.00  0.00    -0.167 NA
ENDBRANCH   7   4
ENDBRANCH  10   9
ENDBRANCH  11  10
TORSDOF 6
ENDMDL
MODEL 8
REMARK VINA RESULT:      -8.1     16.405     19.263
REMARK  Name = 
REMARK  6 active torsions:
REMARK  status: ('A' for Active; 'I' for Inactive)
REMARK    1  A    between atoms: C_4  and  C_7
REMARK    2  A    between atoms: N_9  and  C_10
REMARK    3  A    between atoms: C_10  and  C_11
REMARK    4  A    between atoms: C_13  and  C_14
REMARK    5  A    between atoms: C_18  and  N_19
REMARK    6  A    between atoms: N_22  and  C_25
REMARK                            x       y       z     vdW  Elec       q    Type
REMARK                         _______ _______ _______ _____ _____    ______ ____
ROOT
ATOM     11  C   UNL     1      14.297   7.105  18.994  0.00  0.00    +0.154 C 
ATOM     12  O   UNL     1      15.038   6.837  18.749  0.00  0.00    -0.350 OA
ATOM     13  C   UNL     1      15.454   6.589  19.417  0.00  0.00    +0.180 C 
ATOM     16  C   UNL     1      14.970   6.705  20.076  0.00  0.00    +0.198 C 
ATOM     17  O   UNL     1      15.167   6.532  20.857  0.00  0.00    -0.219 OA
ATOM     18  C   UNL     1      14.256   7.023  19.814  0.00  0.00    +0.120 C 
ENDROOT
BRANCH  18  19
ATOM     19  N   UNL     1      13.612   7.225  20.289  0.00  0.00    -0.267 NA
ATOM     20  C   UNL     1      13.032   6.664  20.459  0.00  0.00    +0.094 C 
ATOM     21  C   UNL     1      12.389   6.866  20.934  0.00  0.00    +0.108 C 
ATOM     22  N   UNL     1      12.326   7.629  21.241  0.00  0.00    -0.305 N 
ATOM     23  C   UNL     1      12.907   8.191  21.072  0.00  0.00    +0.108 C 
ATOM     24  C   UNL     1      13.550   7.989  20.596  0.00  0.00    +0.094 C 
BRANCH  22  25
ATOM     25  C   UNL     1      11.683   7.831  21.717  0.00  0.00    +0.048 A 
ATOM     26  C   UNL     1      10.986   7.392  21.676  0.00  0.00    +0.015 A 
ATOM     27  C   UNL     1      10.343   7.594  22.152  0.00  0.00    +0.001 A 
ATOM     28  C   UNL     1      10.397   8.236  22.668  0.00  0.00    +0.000 A 
ATOM     29  C   UNL     1      11.094   8.675  22.708  0.00  0.00    +0.001 A 
ATOM     30  C   UNL     1      11.737   8.473  22.233  0.00  0.00    +0.015 A 
ENDBRANCH  22  25
ENDBRANCH  18  19
BRANCH  13  14
ATOM     14  C   UNL     1      16.219   6.281  19.425  0.00  0.00    +0.214 C 
ATOM     15  O   UNL     1      16.494   5.843  18.782  0.00  0.00    -0.218 OA
ENDBRANCH  13  14
BRANCH  11  10
ATOM     10  C   UNL     1      13.703   7.403  18.506  0.00  0.00    +0.146 C 
BRANCH  10   9
ATOM      7  C   UNL     1      13.322   7.964  17.248  0.00  0.00    +0.268 C 
ATOM      8  O   UNL     1      12.544   7.720  17.376  0.00  0.00    -0.268 OA
ATOM      9  N   UNL     1      13.901   7.805  17.813  0.00  0.00    -0.199 NA
BRANCH   7   4
ATOM      1  C   UNL     1      14.844   9.073  15.038  0.00  0.00    +0.154 C 
ATOM      2  N   UNL     1      14.220   8.876  15.539  0.00  0.00    -0.247 N 
ATOM      3  C   UNL     1      14.275   8.426  16.229  0.00  0.00    +0.101 A 
ATOM      4  C   UNL     1      13.519   8.366  16.555  0.00  0.00    +0.095 A 
ATOM      5  C   UNL     1      12.997   8.778  16.067  0.00  0.00    +0.126 A 
ATOM      6  N   UNL     1      13.430   9.093  15.439  0.00  0.00    -0.167 NA
ENDBRANCH   7   4
ENDBRANCH  10   9
ENDBRANCH  11  10
TORSDOF 6
ENDMDL
MODEL 9
REMARK VINA RESULT:      -7.8     16.504     18.746
REMARK  Name = 
REMARK  6 active torsions:
REMARK  status: ('A' for Active; 'I' for Inactive)
REMARK    1  A    between atoms: C_4  and  C_7
REMARK    2  A    between atoms: N_9  and  C_10
REMARK    3  A    between atoms: C_10  and  C_11
REMARK    4  A    between atoms: C_13  and  C_14
REMARK    5  A    between atoms: C_18  and  N_19
REMARK    6  A    between atoms: N_22  and  C_25
REMARK                            x       y       z     vdW  Elec       q    Type
REMARK                         _______ _______ _______ _____ _____    ______ ____
ROOT
ATOM     11  C   UNL     1      12.822   7.076  20.371  0.00  0.00    +0.154 C 
ATOM     12  O   UNL     1      12.679   6.828  21.144  0.00  0.00    -0.350 OA
ATOM     13  C   UNL     1      11.875   6.930  21.301  0.00  0.00    +0.180 C 
ATOM     16  C   UNL     1      11.522   7.242  20.623  0.00  0.00    +0.198 C 
ATOM     17  O   UNL     1      10.724   7.430  20.536  0.00  0.00    -0.219 OA
ATOM     18  C   UNL     1      12.107   7.332  20.049  0.00  0.00    +0.120 C 
ENDROOT
BRANCH  18  19
ATOM     19  N   UNL     1      11.996   7.626  19.286  0.00  0.00    -0.267 NA
ATOM     20  C   UNL     1      11.868   8.432  19.169  0.00  0.00    +0.094 C 
ATOM     21  C   UNL     1      11.756   8.726  18.406  0.00  0.00    +0.108 C 
ATOM     22  N   UNL     1      11.774   8.213  17.760  0.00  0.00    -0.305 N 
ATOM     23  C   UNL     1      11.902   7.406  17.877  0.00  0.00    +0.108 C 
ATOM     24  C   UNL     1      12.013   7.113  18.640  0.00  0.00    +0.094 C 
BRANCH  22  25
ATOM     25  C   UNL     1      11.662   8.507  16.997  0.00  0.00    +0.048 A 
ATOM     26  C   UNL     1      10.909   8.506  16.661  0.00  0.00    +0.015 A 
ATOM     27  C   UNL     1      10.797   8.799  15.898  0.00  0.00    +0.001 A 
ATOM     28  C   UNL     1      11.439   9.093  15.471  0.00  0.00    +0.000 A 
ATOM     29  C   UNL     1      12.193   9.094  15.807  0.00  0.00    +0.001 A 
ATOM     30  C   UNL     1      12.305   8.801  16.570  0.00  0.00    +0.015 A 
ENDBRANCH  22  25
ENDBRANCH  18  19
BRANCH  13  14
ATOM     14  C   UNL     1      11.493   6.753  22.010  0.00  0.00    +0.214 C 
ATOM     15  O   UNL     1      11.290   5.973  22.184  0.00  0.00    -0.218 OA
ENDBRANCH  13  14
BRANCH  11  10
ATOM     10  C   UNL     1      13.552   7.070  19.986  0.00  0.00    +0.146 C 
BRANCH  10   9
ATOM      7  C   UNL     1      14.980   7.074  20.043  0.00  0.00    +0.268 C 
ATOM      8  O   UNL     1      15.012   7.072  19.219  0.00  0.00    -0.268 OA
ATOM      9  N   UNL     1      14.250   7.073  20.427  0.00  0.00    -0.199 NA
BRANCH   7   4
ATOM      1  C   UNL     1      17.403   7.966  21.373  0.00  0.00    +0.154 C 
ATOM      2  N   UNL     1      16.792   7.487  21.094  0.00  0.00    -0.247 N 
ATOM      3  C   UNL     1      16.153   7.735  20.635  0.00  0.00    +0.101 A 
ATOM      4  C   UNL     1      15.678   7.077  20.483  0.00  0.00    +0.095 A 
ATOM      5  C   UNL     1      16.024   6.423  20.848  0.00  0.00    +0.126 A 
ATOM      6  N   UNL     1      16.713   6.676  21.226  0.00  0.00    -0.167 NA
ENDBRANCH   7   4
ENDBRANCH  10   9
ENDBRANCH  11  10
TORSDOF 6
ENDMDL
MODEL 10
REMARK VINA RESULT:      -7.5     16.409     19.397
REMARK  Name = 
REMARK  6 active torsions:
REMARK  status: ('A' for Active; 'I' for Inactive)
REMARK    1  A    between atoms: C_4  and  C_7
REMARK    2  A    between atoms: N_9  and  C_10
REMARK    3  A    between atoms: C_10  and  C_11
REMARK    4  A    between atoms: C_13  and  C_14
REMARK    5  A    between atoms: C_18  and  N_19
REMARK    6  A    between atoms: N_22  and  C_25
REMARK                            x       y       z     vdW  Elec       q    Type
REMARK                         _______ _______ _______ _____ _____    ______ ____
ROOT
ATOM     11  C   UNL     1      14.053   8.250  18.371  0.00  0.00    +0.154 C 
ATOM     12  O   UNL     1      14.307   8.345  17.592  0.00  0.00    -0.350 OA
ATOM     13  C   UNL     1      13.643   8.473  17.120  0.00  0.00    +0.180 C 
ATOM     16  C   UNL     1      12.977   8.458  17.608  0.00  0.00    +0.198 C 
ATOM     17  O   UNL     1      12.196   8.562  17.365  0.00  0.00    -0.219 OA
ATOM     18  C   UNL     1      13.231   8.319  18.380  0.00  0.00    +0.120 C 
ENDROOT
BRANCH  18  19
ATOM     19  N   UNL     1      12.747   8.261  19.046  0.00  0.00    -0.267 NA
ATOM     20  C   UNL     1      12.414   7.535  19.252  0.00  0.00    +0.094 C 
ATOM     21  C   UNL     1      11.929   7.478  19.917  0.00  0.00    +0.108 C 
ATOM     22  N   UNL     1      11.778   8.146  20.377  0.00  0.00    -0.305 N 
ATOM     23  C   UNL     1      12.111   8.872  20.171  0.00  0.00    +0.108 C 
ATOM     24  C   UNL     1      12.596   8.930  19.505  0.00  0.00    +0.094 C 
BRANCH  22  25
ATOM     25  C   UNL     1      11.294   8.088  21.042  0.00  0.00    +0.048 A 
ATOM     26  C   UNL     1      11.016   7.351  21.287  0.00  0.00    +0.015 A 
ATOM     27  C   UNL     1      10.532   7.293  21.953  0.00  0.00    +0.001 A 
ATOM     28  C   UNL     1      10.326   7.973  22.373  0.00  0.00    +0.000 A 
ATOM     29  C   UNL     1      10.604   8.710  22.128  0.00  0.00    +0.001 A 
ATOM     30  C   UNL     1      11.088   8.768  21.463  0.00  0.00    +0.015 A 
ENDBRANCH  22  25
ENDBRANCH  18  19
BRANCH  13  14
ATOM     14  C   UNL     1      13.644   8.596  16.304  0.00  0.00    +0.214 C 
ATOM     15  O   UNL     1      14.326   8.446  15.866  0.00  0.00    -0.218 OA
ENDBRANCH  13  14
BRANCH  11  10
ATOM     10  C   UNL     1      14.534   8.109  19.025  0.00  0.00    +0.146 C 
BRANCH  10   9
ATOM      7  C   UNL     1      15.706   7.499  19.573  0.00  0.00    +0.268 C 
ATOM      8  O   UNL     1      15.689   8.033  20.202  0.00  0.00    -0.268 OA
ATOM      9  N   UNL     1      15.128   7.537  18.985  0.00  0.00    -0.199 NA
BRANCH   7   4
ATOM      1  C   UNL     1      17.405   5.345  18.622  0.00  0.00    +0.154 C 
ATOM      2  N   UNL     1      17.081   5.938  19.095  0.00  0.00    -0.247 N 
ATOM      3  C   UNL     1      16.434   6.413  18.903  0.00  0.00    +0.101 A 
ATOM      4  C   UNL     1      16.299   6.928  19.533  0.00  0.00    +0.095 A 
ATOM      5  C   UNL     1      16.863   6.772  20.115  0.00  0.00    +0.126 A 
ATOM      6  N   UNL     1      17.346   6.160  19.845  0.00  0.00    -0.167 NA
ENDBRANCH   7   4
ENDBRANCH  10   9
ENDBRANCH  11  10
TORSDOF 6
ENDMDL
