MODEL 1
REMARK VINA RESULT:     -19.8      0.000      0.000
REMARK  Name = 
REMARK  2 active torsions:
REMARK  status: ('A' for Active; 'I' for Inactive)
REMARK    1  A    between atoms: C_2  and  C_27
REMARK    2  A    between atoms: C_12  and  C_13
REMARK                            x       y       z     vdW  Elec       q    Type
REMARK                         _______ _______ _______ _____ _____    ______ ____
ROOT
ATOM      1  O   UNL     1      -1.210  -0.500  25.109  0.00  0.00    -0.270 OA
ATOM      2  C   UNL     1      -2.042  -0.662  24.889  0.00  0.00    +0.249 C 
ATOM      3  N   UNL     1      -2.255  -1.485  24.732  0.00  0.00    -0.276 N 
ATOM      4  C   UNL     1      -2.054  -2.294  24.675  0.00  0.00    +0.096 C 
ATOM      5  C   UNL     1      -2.933  -2.665  24.416  0.00  0.00    +0.043 C 
ATOM      6  C   UNL     1      -3.575  -3.120  24.204  0.00  0.00    +0.011 C 
ATOM      7  C   UNL     1      -3.436  -2.442  24.325  0.00  0.00    +0.058 C 
ATOM      8  C   UNL     1      -2.580  -2.099  24.574  0.00  0.00    +0.099 C 
ATOM      9  C   UNL     1      -3.837  -1.616  24.337  0.00  0.00    +0.041 A 
ATOM     10  C   UNL     1      -4.568  -1.256  24.209  0.00  0.00    +0.013 A 
ATOM     11  C   UNL     1      -4.647  -0.440  24.296  0.00  0.00    +0.006 A 
ATOM     12  C   UNL     1      -3.887  -0.023  24.531  0.00  0.00    +0.056 A 
ATOM     23  C   UNL     1      -3.264  -0.342  24.639  0.00  0.00    +0.261 A 
ATOM     24  O   UNL     1      -2.390   0.147  24.911  0.00  0.00    -0.267 OA
ATOM     25  N   UNL     1      -3.185  -1.158  24.552  0.00  0.00    -0.299 N 
ATOM     26  C   UNL     1      -3.343  -1.797  24.431  0.00  0.00    +0.110 C 
ENDROOT
BRANCH  12  13
ATOM     13  C   UNL     1      -3.752   0.715  24.660  0.00  0.00    +0.005 A 
ATOM     14  C   UNL     1      -3.639   1.370  24.775  0.00  0.00    +0.000 A 
ATOM     15  C   UNL     1      -3.502   2.107  24.903  0.00  0.00    +0.000 A 
ATOM     16  C   UNL     1      -4.246   2.415  25.080  0.00  0.00    +0.000 A 
ATOM     17  C   UNL     1      -4.330   3.218  25.255  0.00  0.00    +0.000 A 
ATOM     18  C   UNL     1      -5.075   3.526  25.432  0.00  0.00    +0.000 A 
ATOM     19  C   UNL     1      -5.735   3.033  25.434  0.00  0.00    +0.000 A 
ATOM     20  C   UNL     1      -5.652   2.231  25.259  0.00  0.00    +0.000 A 
ATOM     21  C   UNL     1      -4.908   1.923  25.082  0.00  0.00    +0.000 A 
ATOM     22  C   UNL     1      -4.825   1.120  24.907  0.00  0.00    +0.000 A 
ENDBRANCH  12  13
BRANCH   2  27
ATOM     27  C   UNL     1      -2.802  -0.165  24.772  0.00  0.00    +0.054 A 
ATOM     28  C   UNL     1      -2.863   0.199  24.035  0.00  0.00    +0.005 A 
ATOM     29  C   UNL     1      -3.523   0.663  23.858  0.00  0.00    +0.000 A 
ATOM     30  C   UNL     1      -4.120   0.763  24.418  0.00  0.00    +0.000 A 
ATOM     31  C   UNL     1      -4.058   0.398  25.156  0.00  0.00    +0.000 A 
ATOM     32  C   UNL     1      -3.399  -0.066  25.333  0.00  0.00    +0.005 A 
ENDBRANCH   2  27
TORSDOF 2
ENDMDL
MODEL 2
REMARK VINA RESULT:     -19.6      1.470      4.162
REMARK  Name = 
REMARK  2 active torsions:
REMARK  status: ('A' for Active; 'I' for Inactive)
REMARK    1  A    between atoms: C_2  and  C_27
REMARK    2  A    between atoms: C_12  and  C_13
REMARK                            x       y       z     vdW  Elec       q    Type
REMARK                         _______ _______ _______ _____ _____    ______ ____
ROOT
ATOM      1  O   UNL     1      -5.653   2.367  24.662  0.00  0.00    -0.270 OA
ATOM      2  C   UNL     1      -4.797   2.203  24.746  0.00  0.00    +0.249 C 
ATOM      3  N   UNL     1      -4.290   2.864  24.979  0.00  0.00    -0.276 N 
ATOM      4  C   UNL     1      -4.186   3.667  25.188  0.00  0.00    +0.096 C 
ATOM      5  C   UNL     1      -3.208   3.674  25.331  0.00  0.00    +0.043 C 
ATOM      6  C   UNL     1      -2.426   3.845  25.485  0.00  0.00    +0.011 C 
ATOM      7  C   UNL     1      -2.808   3.287  25.295  0.00  0.00    +0.058 C 
ATOM      8  C   UNL     1      -3.753   3.296  25.161  0.00  0.00    +0.099 C 
ATOM      9  C   UNL     1      -2.728   2.395  25.091  0.00  0.00    +0.041 A 
ATOM     10  C   UNL     1      -2.160   1.800  25.029  0.00  0.00    +0.013 A 
ATOM     11  C   UNL     1      -2.384   1.036  24.812  0.00  0.00    +0.006 A 
ATOM     12  C   UNL     1      -3.265   0.943  24.663  0.00  0.00    +0.056 A 
ATOM     23  C   UNL     1      -3.745   1.462  24.719  0.00  0.00    +0.261 A 
ATOM     24  O   UNL     1      -4.761   1.347  24.544  0.00  0.00    -0.267 OA
ATOM     25  N   UNL     1      -3.521   2.225  24.936  0.00  0.00    -0.299 N 
ATOM     26  C   UNL     1      -3.134   2.741  25.116  0.00  0.00    +0.110 C 
ENDROOT
BRANCH  12  13
ATOM     13  C   UNL     1      -3.666   0.330  24.457  0.00  0.00    +0.005 A 
ATOM     14  C   UNL     1      -4.016  -0.217  24.276  0.00  0.00    +0.000 A 
ATOM     15  C   UNL     1      -4.417  -0.830  24.070  0.00  0.00    +0.000 A 
ATOM     16  C   UNL     1      -3.916  -1.460  24.248  0.00  0.00    +0.000 A 
ATOM     17  C   UNL     1      -4.160  -2.235  24.100  0.00  0.00    +0.000 A 
ATOM     18  C   UNL     1      -3.658  -2.866  24.278  0.00  0.00    +0.000 A 
ATOM     19  C   UNL     1      -2.915  -2.723  24.604  0.00  0.00    +0.000 A 
ATOM     20  C   UNL     1      -2.671  -1.949  24.751  0.00  0.00    +0.000 A 
ATOM     21  C   UNL     1      -3.172  -1.318  24.574  0.00  0.00    +0.000 A 
ATOM     22  C   UNL     1      -2.928  -0.543  24.722  0.00  0.00    +0.000 A 
ENDBRANCH  12  13
BRANCH   2  27
ATOM     27  C   UNL     1      -4.252   1.474  24.649  0.00  0.00    +0.054 A 
ATOM     28  C   UNL     1      -3.990   1.343  23.878  0.00  0.00    +0.005 A 
ATOM     29  C   UNL     1      -3.494   0.703  23.714  0.00  0.00    +0.000 A 
ATOM     30  C   UNL     1      -3.261   0.196  24.321  0.00  0.00    +0.000 A 
ATOM     31  C   UNL     1      -3.524   0.328  25.092  0.00  0.00    +0.000 A 
ATOM     32  C   UNL     1      -4.019   0.967  25.256  0.00  0.00    +0.005 A 
ENDBRANCH   2  27
TORSDOF 2
ENDMDL
