MODEL 1
REMARK VINA RESULT:     -13.6      0.000      0.000
REMARK  Name = 
REMARK  6 active torsions:
REMARK  status: ('A' for Active; 'I' for Inactive)
REMARK    1  A    between atoms: C_2  and  C_5
REMARK    2  A    between atoms: C_8  and  C_11
REMARK    3  A    between atoms: N_13  and  C_14
REMARK    4  A    between atoms: C_14  and  C_15
REMARK    5  A    between atoms: C_22  and  C_23
REMARK    6  A    between atoms: C_23  and  N_24
REMARK                            x       y       z     vdW  Elec       q    Type
REMARK                         _______ _______ _______ _____ _____    ______ ____
ROOT
ATOM     15  C   UNL     1      -4.660   2.532  25.526  0.00  0.00    +0.079 C 
ATOM     16  C   UNL     1      -5.269   2.168  25.208  0.00  0.00    +0.018 C 
ATOM     17  C   UNL     1      -5.281   1.395  24.964  0.00  0.00    +0.006 C 
ATOM     18  C   UNL     1      -6.078   1.166  24.624  0.00  0.00    +0.017 C 
ATOM     19  C   UNL     1      -5.640   1.567  24.896  0.00  0.00    +0.072 C 
ATOM     20  N   UNL     1      -4.680   1.746  25.277  0.00  0.00    -0.272 NA
ATOM     21  C   UNL     1      -4.051   1.085  25.286  0.00  0.00    +0.074 C 
ATOM     22  C   UNL     1      -4.670   0.765  24.977  0.00  0.00    +0.036 C 
ENDROOT
BRANCH  15  14
ATOM     14  C   UNL     1      -4.286   3.189  25.856  0.00  0.00    +0.131 C 
BRANCH  14  13
ATOM     11  C   UNL     1      -3.112   4.000  25.942  0.00  0.00    +0.265 C 
ATOM     12  O   UNL     1      -3.319   4.217  26.711  0.00  0.00    -0.268 OA
ATOM     13  N   UNL     1      -3.596   3.485  25.515  0.00  0.00    -0.200 NA
BRANCH  11   8
ATOM      5  C   UNL     1      -1.041   4.889  24.920  0.00  0.00    +0.071 A 
ATOM      6  C   UNL     1      -1.067   4.109  25.189  0.00  0.00    +0.004 A 
ATOM      7  C   UNL     1      -1.757   3.813  25.529  0.00  0.00    +0.005 A 
ATOM      8  C   UNL     1      -2.422   4.296  25.602  0.00  0.00    +0.055 A 
ATOM      9  C   UNL     1      -2.396   5.076  25.334  0.00  0.00    +0.005 A 
ATOM     10  C   UNL     1      -1.705   5.372  24.993  0.00  0.00    +0.004 A 
BRANCH   5   2
ATOM      1  F   UNL     1       0.340   5.482  24.239  0.00  0.00    -0.166 F 
ATOM      2  C   UNL     1      -0.350   5.185  24.580  0.00  0.00    +0.419 C 
ATOM      3  F   UNL     1      -0.462   5.900  24.976  0.00  0.00    -0.166 F 
ATOM      4  F   UNL     1      -0.239   4.471  24.183  0.00  0.00    -0.166 F 
ENDBRANCH   5   2
ENDBRANCH  11   8
ENDBRANCH  14  13
ENDBRANCH  15  14
BRANCH  22  23
ATOM     23  C   UNL     1      -4.749  -0.012  24.710  0.00  0.00    +0.092 C 
BRANCH  23  24
ATOM     24  N   UNL     1      -4.233  -0.596  24.980  0.00  0.00    -0.307 N 
ATOM     25  C   UNL     1      -3.769  -0.556  25.661  0.00  0.00    +0.095 C 
ATOM     26  C   UNL     1      -3.339  -1.257  25.719  0.00  0.00    +0.049 C 
ATOM     27  C   UNL     1      -3.537  -1.731  25.072  0.00  0.00    -0.007 A 
ATOM     28  C   UNL     1      -3.285  -2.482  24.841  0.00  0.00    -0.003 A 
ATOM     29  C   UNL     1      -3.586  -2.823  24.152  0.00  0.00    -0.000 A 
ATOM     30  C   UNL     1      -4.139  -2.414  23.695  0.00  0.00    +0.001 A 
ATOM     31  C   UNL     1      -4.390  -1.664  23.928  0.00  0.00    +0.014 A 
ATOM     32  C   UNL     1      -4.089  -1.322  24.616  0.00  0.00    +0.044 A 
ENDBRANCH  23  24
ENDBRANCH  22  23
TORSDOF 6
ENDMDL
MODEL 2
REMARK VINA RESULT:     -13.2      5.004      5.741
REMARK  Name = 
REMARK  6 active torsions:
REMARK  status: ('A' for Active; 'I' for Inactive)
REMARK    1  A    between atoms: C_2  and  C_5
REMARK    2  A    between atoms: C_8  and  C_11
REMARK    3  A    between atoms: N_13  and  C_14
REMARK    4  A    between atoms: C_14  and  C_15
REMARK    5  A    between atoms: C_22  and  C_23
REMARK    6  A    between atoms: C_23  and  N_24
REMARK                            x       y       z     vdW  Elec       q    Type
REMARK                         _______ _______ _______ _____ _____    ______ ____
ROOT
ATOM     15  C   UNL     1       0.454   0.239  23.436  0.00  0.00    +0.079 C 
ATOM     16  C   UNL     1       0.070   0.641  23.979  0.00  0.00    +0.018 C 
ATOM     17  C   UNL     1      -0.590   0.387  24.375  0.00  0.00    +0.006 C 
ATOM     18  C   UNL     1      -0.882   0.999  24.962  0.00  0.00    +0.017 C 
ATOM     19  C   UNL     1      -0.487   0.758  24.502  0.00  0.00    +0.072 C 
ATOM     20  N   UNL     1      -0.218  -0.013  23.843  0.00  0.00    -0.272 NA
ATOM     21  C   UNL     1      -0.704  -0.784  23.803  0.00  0.00    +0.074 C 
ATOM     22  C   UNL     1      -1.052  -0.357  24.331  0.00  0.00    +0.036 C 
ENDROOT
BRANCH  15  14
ATOM     14  C   UNL     1       1.059   0.140  22.884  0.00  0.00    +0.131 C 
BRANCH  14  13
ATOM     11  C   UNL     1       2.453   0.097  22.569  0.00  0.00    +0.265 C 
ATOM     12  O   UNL     1       2.269  -0.027  21.774  0.00  0.00    -0.268 OA
ATOM     13  N   UNL     1       1.847   0.180  23.124  0.00  0.00    -0.200 NA
BRANCH  11   8
ATOM      5  C   UNL     1       4.817   0.217  23.288  0.00  0.00    +0.071 A 
ATOM      6  C   UNL     1       4.380  -0.471  23.419  0.00  0.00    +0.004 A 
ATOM      7  C   UNL     1       3.593  -0.511  23.180  0.00  0.00    +0.005 A 
ATOM      8  C   UNL     1       3.241   0.137  22.809  0.00  0.00    +0.055 A 
ATOM      9  C   UNL     1       3.677   0.824  22.677  0.00  0.00    +0.005 A 
ATOM     10  C   UNL     1       4.466   0.864  22.917  0.00  0.00    +0.004 A 
BRANCH   5   2
ATOM      1  F   UNL     1       6.394   0.296  23.768  0.00  0.00    -0.166 F 
ATOM      2  C   UNL     1       5.606   0.256  23.528  0.00  0.00    +0.419 C 
ATOM      3  F   UNL     1       5.377   0.652  24.214  0.00  0.00    -0.166 F 
ATOM      4  F   UNL     1       5.835  -0.139  22.842  0.00  0.00    -0.166 F 
ENDBRANCH   5   2
ENDBRANCH  11   8
ENDBRANCH  14  13
ENDBRANCH  15  14
BRANCH  22  23
ATOM     23  C   UNL     1      -1.723  -0.554  24.768  0.00  0.00    +0.092 C 
BRANCH  23  24
ATOM     24  N   UNL     1      -2.086  -1.287  24.660  0.00  0.00    -0.307 N 
ATOM     25  C   UNL     1      -1.717  -2.024  24.710  0.00  0.00    +0.095 C 
ATOM     26  C   UNL     1      -2.284  -2.604  24.563  0.00  0.00    +0.049 C 
ATOM     27  C   UNL     1      -3.005  -2.225  24.422  0.00  0.00    -0.007 A 
ATOM     28  C   UNL     1      -3.756  -2.518  24.246  0.00  0.00    -0.003 A 
ATOM     29  C   UNL     1      -4.385  -1.996  24.131  0.00  0.00    -0.000 A 
ATOM     30  C   UNL     1      -4.262  -1.182  24.190  0.00  0.00    +0.001 A 
ATOM     31  C   UNL     1      -3.510  -0.891  24.366  0.00  0.00    +0.014 A 
ATOM     32  C   UNL     1      -2.882  -1.412  24.481  0.00  0.00    +0.044 A 
ENDBRANCH  23  24
ENDBRANCH  22  23
TORSDOF 6
ENDMDL
MODEL 3
REMARK VINA RESULT:     -13.1      2.641      5.743
REMARK  Name = 
REMARK  6 active torsions:
REMARK  status: ('A' for Active; 'I' for Inactive)
REMARK    1  A    between atoms: C_2  and  C_5
REMARK    2  A    between atoms: C_8  and  C_11
REMARK    3  A    between atoms: N_13  and  C_14
REMARK    4  A    between atoms: C_14  and  C_15
REMARK    5  A    between atoms: C_22  and  C_23
REMARK    6  A    between atoms: C_23  and  N_24
REMARK                            x       y       z     vdW  Elec       q    Type
REMARK                         _______ _______ _______ _____ _____    ______ ____
ROOT
ATOM     15  C   UNL     1      -4.890   1.863  25.051  0.00  0.00    +0.079 C 
ATOM     16  C   UNL     1      -5.068   2.563  25.340  0.00  0.00    +0.018 C 
ATOM     17  C   UNL     1      -4.539   3.158  25.492  0.00  0.00    +0.006 C 
ATOM     18  C   UNL     1      -4.944   3.886  25.824  0.00  0.00    +0.017 C 
ATOM     19  C   UNL     1      -4.914   3.277  25.589  0.00  0.00    +0.072 C 
ATOM     20  N   UNL     1      -4.358   2.474  25.208  0.00  0.00    -0.272 NA
ATOM     21  C   UNL     1      -3.454   2.538  25.106  0.00  0.00    +0.074 C 
ATOM     22  C   UNL     1      -3.669   3.212  25.391  0.00  0.00    +0.036 C 
ENDROOT
BRANCH  15  14
ATOM     14  C   UNL     1      -5.082   1.105  24.790  0.00  0.00    +0.131 C 
BRANCH  14  13
ATOM     11  C   UNL     1      -4.714  -0.260  24.573  0.00  0.00    +0.265 C 
ATOM     12  O   UNL     1      -5.477  -0.421  24.302  0.00  0.00    -0.268 OA
ATOM     13  N   UNL     1      -4.518   0.504  24.817  0.00  0.00    -0.200 NA
BRANCH  11   8
ATOM      5  C   UNL     1      -3.021  -2.062  24.653  0.00  0.00    +0.071 A 
ATOM      6  C   UNL     1      -3.165  -1.601  25.323  0.00  0.00    +0.004 A 
ATOM      7  C   UNL     1      -3.729  -1.001  25.295  0.00  0.00    +0.005 A 
ATOM      8  C   UNL     1      -4.150  -0.860  24.599  0.00  0.00    +0.055 A 
ATOM      9  C   UNL     1      -4.006  -1.321  23.930  0.00  0.00    +0.005 A 
ATOM     10  C   UNL     1      -3.441  -1.922  23.958  0.00  0.00    +0.004 A 
BRANCH   5   2
ATOM      1  F   UNL     1      -1.891  -3.263  24.707  0.00  0.00    -0.166 F 
ATOM      2  C   UNL     1      -2.456  -2.663  24.680  0.00  0.00    +0.419 C 
ATOM      3  F   UNL     1      -1.916  -2.172  24.297  0.00  0.00    -0.166 F 
ATOM      4  F   UNL     1      -2.996  -3.154  25.064  0.00  0.00    -0.166 F 
ENDBRANCH   5   2
ENDBRANCH  11   8
ENDBRANCH  14  13
ENDBRANCH  15  14
BRANCH  22  23
ATOM     23  C   UNL     1      -3.186   3.856  25.568  0.00  0.00    +0.092 C 
BRANCH  23  24
ATOM     24  N   UNL     1      -2.367   3.792  25.490  0.00  0.00    -0.307 N 
ATOM     25  C   UNL     1      -1.917   3.116  25.638  0.00  0.00    +0.095 C 
ATOM     26  C   UNL     1      -1.127   3.298  25.490  0.00  0.00    +0.049 C 
ATOM     27  C   UNL     1      -1.088   4.087  25.249  0.00  0.00    -0.007 A 
ATOM     28  C   UNL     1      -0.453   4.566  25.030  0.00  0.00    -0.003 A 
ATOM     29  C   UNL     1      -0.585   5.351  24.812  0.00  0.00    -0.000 A 
ATOM     30  C   UNL     1      -1.352   5.656  24.812  0.00  0.00    +0.001 A 
ATOM     31  C   UNL     1      -1.986   5.176  25.031  0.00  0.00    +0.014 A 
ATOM     32  C   UNL     1      -1.854   4.392  25.249  0.00  0.00    +0.044 A 
ENDBRANCH  23  24
ENDBRANCH  22  23
TORSDOF 6
ENDMDL
MODEL 4
REMARK VINA RESULT:     -12.9      3.456      6.659
REMARK  Name = 
REMARK  6 active torsions:
REMARK  status: ('A' for Active; 'I' for Inactive)
REMARK    1  A    between atoms: C_2  and  C_5
REMARK    2  A    between atoms: C_8  and  C_11
REMARK    3  A    between atoms: N_13  and  C_14
REMARK    4  A    between atoms: C_14  and  C_15
REMARK    5  A    between atoms: C_22  and  C_23
REMARK    6  A    between atoms: C_23  and  N_24
REMARK                            x       y       z     vdW  Elec       q    Type
REMARK                         _______ _______ _______ _____ _____    ______ ____
ROOT
ATOM     15  C   UNL     1      -0.304   0.358  24.874  0.00  0.00    +0.079 C 
ATOM     16  C   UNL     1       0.111   0.878  24.471  0.00  0.00    +0.018 C 
ATOM     17  C   UNL     1       0.078   1.683  24.565  0.00  0.00    +0.006 C 
ATOM     18  C   UNL     1       0.636   2.106  24.005  0.00  0.00    +0.017 C 
ATOM     19  C   UNL     1       0.345   1.588  24.276  0.00  0.00    +0.072 C 
ATOM     20  N   UNL     1      -0.332   1.178  24.963  0.00  0.00    -0.272 NA
ATOM     21  C   UNL     1      -0.818   1.717  25.517  0.00  0.00    +0.074 C 
ATOM     22  C   UNL     1      -0.393   2.193  25.101  0.00  0.00    +0.036 C 
ENDROOT
BRANCH  15  14
ATOM     14  C   UNL     1      -0.536  -0.410  25.064  0.00  0.00    +0.131 C 
BRANCH  14  13
ATOM     11  C   UNL     1      -1.518  -1.448  25.029  0.00  0.00    +0.265 C 
ATOM     12  O   UNL     1      -1.068  -1.891  25.560  0.00  0.00    -0.268 OA
ATOM     13  N   UNL     1      -1.252  -0.707  24.781  0.00  0.00    -0.200 NA
BRANCH  11   8
ATOM      5  C   UNL     1      -3.665  -2.339  24.180  0.00  0.00    +0.071 A 
ATOM      6  C   UNL     1      -3.647  -1.616  24.577  0.00  0.00    +0.004 A 
ATOM      7  C   UNL     1      -2.931  -1.319  24.860  0.00  0.00    +0.005 A 
ATOM      8  C   UNL     1      -2.234  -1.745  24.746  0.00  0.00    +0.055 A 
ATOM      9  C   UNL     1      -2.252  -2.468  24.349  0.00  0.00    +0.005 A 
ATOM     10  C   UNL     1      -2.968  -2.765  24.067  0.00  0.00    +0.004 A 
BRANCH   5   2
ATOM      1  F   UNL     1      -5.097  -2.932  23.615  0.00  0.00    -0.166 F 
ATOM      2  C   UNL     1      -4.381  -2.636  23.897  0.00  0.00    +0.419 C 
ATOM      3  F   UNL     1      -4.533  -1.915  23.528  0.00  0.00    -0.166 F 
ATOM      4  F   UNL     1      -4.229  -3.358  24.267  0.00  0.00    -0.166 F 
ENDBRANCH   5   2
ENDBRANCH  11   8
ENDBRANCH  14  13
ENDBRANCH  15  14
BRANCH  22  23
ATOM     23  C   UNL     1      -0.378   3.017  25.145  0.00  0.00    +0.092 C 
BRANCH  23  24
ATOM     24  N   UNL     1      -1.056   3.431  25.366  0.00  0.00    -0.307 N 
ATOM     25  C   UNL     1      -1.701   3.120  25.777  0.00  0.00    +0.095 C 
ATOM     26  C   UNL     1      -2.252   3.724  25.881  0.00  0.00    +0.049 C 
ATOM     27  C   UNL     1      -1.947   4.409  25.535  0.00  0.00    -0.007 A 
ATOM     28  C   UNL     1      -2.249   5.175  25.468  0.00  0.00    -0.003 A 
ATOM     29  C   UNL     1      -1.810   5.758  25.084  0.00  0.00    -0.000 A 
ATOM     30  C   UNL     1      -1.071   5.576  24.766  0.00  0.00    +0.001 A 
ATOM     31  C   UNL     1      -0.770   4.811  24.832  0.00  0.00    +0.014 A 
ATOM     32  C   UNL     1      -1.209   4.227  25.217  0.00  0.00    +0.044 A 
ENDBRANCH  23  24
ENDBRANCH  22  23
TORSDOF 6
ENDMDL
MODEL 5
REMARK VINA RESULT:     -12.8      4.919      5.908
REMARK  Name = 
REMARK  6 active torsions:
REMARK  status: ('A' for Active; 'I' for Inactive)
REMARK    1  A    between atoms: C_2  and  C_5
REMARK    2  A    between atoms: C_8  and  C_11
REMARK    3  A    between atoms: N_13  and  C_14
REMARK    4  A    between atoms: C_14  and  C_15
REMARK    5  A    between atoms: C_22  and  C_23
REMARK    6  A    between atoms: C_23  and  N_24
REMARK                            x       y       z     vdW  Elec       q    Type
REMARK                         _______ _______ _______ _____ _____    ______ ____
ROOT
ATOM     15  C   UNL     1       0.296  -0.143  23.520  0.00  0.00    +0.079 C 
ATOM     16  C   UNL     1      -0.005  -0.544  24.115  0.00  0.00    +0.018 C 
ATOM     17  C   UNL     1      -0.699  -0.372  24.496  0.00  0.00    +0.006 C 
ATOM     18  C   UNL     1      -0.870  -0.954  25.156  0.00  0.00    +0.017 C 
ATOM     19  C   UNL     1      -0.529  -0.699  24.661  0.00  0.00    +0.072 C 
ATOM     20  N   UNL     1      -0.410   0.025  23.913  0.00  0.00    -0.272 NA
ATOM     21  C   UNL     1      -1.032   0.683  23.797  0.00  0.00    +0.074 C 
ATOM     22  C   UNL     1      -1.292   0.264  24.378  0.00  0.00    +0.036 C 
ENDROOT
BRANCH  15  14
ATOM     14  C   UNL     1       0.870   0.001  22.946  0.00  0.00    +0.131 C 
BRANCH  14  13
ATOM     11  C   UNL     1       2.251   0.059  22.581  0.00  0.00    +0.265 C 
ATOM     12  O   UNL     1       2.043  -0.002  21.785  0.00  0.00    -0.268 OA
ATOM     13  N   UNL     1       1.664   0.060  23.162  0.00  0.00    -0.200 NA
BRANCH  11   8
ATOM      5  C   UNL     1       4.633   0.236  23.228  0.00  0.00    +0.071 A 
ATOM      6  C   UNL     1       4.225  -0.472  23.346  0.00  0.00    +0.004 A 
ATOM      7  C   UNL     1       3.432  -0.531  23.130  0.00  0.00    +0.005 A 
ATOM      8  C   UNL     1       3.045   0.118  22.797  0.00  0.00    +0.055 A 
ATOM      9  C   UNL     1       3.453   0.825  22.680  0.00  0.00    +0.005 A 
ATOM     10  C   UNL     1       4.247   0.884  22.896  0.00  0.00    +0.004 A 
BRANCH   5   2
ATOM      1  F   UNL     1       6.222   0.353  23.660  0.00  0.00    -0.166 F 
ATOM      2  C   UNL     1       5.427   0.295  23.444  0.00  0.00    +0.419 C 
ATOM      3  F   UNL     1       5.648  -0.025  22.717  0.00  0.00    -0.166 F 
ATOM      4  F   UNL     1       5.207   0.614  24.172  0.00  0.00    -0.166 F 
ENDBRANCH   5   2
ENDBRANCH  11   8
ENDBRANCH  14  13
ENDBRANCH  15  14
BRANCH  22  23
ATOM     23  C   UNL     1      -1.987   0.383  24.807  0.00  0.00    +0.092 C 
BRANCH  23  24
ATOM     24  N   UNL     1      -2.454   1.048  24.661  0.00  0.00    -0.307 N 
ATOM     25  C   UNL     1      -2.179   1.795  24.444  0.00  0.00    +0.095 C 
ATOM     26  C   UNL     1      -2.831   2.291  24.355  0.00  0.00    +0.049 C 
ATOM     27  C   UNL     1      -3.510   1.850  24.516  0.00  0.00    -0.007 A 
ATOM     28  C   UNL     1      -4.311   2.050  24.515  0.00  0.00    -0.003 A 
ATOM     29  C   UNL     1      -4.878   1.481  24.704  0.00  0.00    -0.000 A 
ATOM     30  C   UNL     1      -4.644   0.711  24.892  0.00  0.00    +0.001 A 
ATOM     31  C   UNL     1      -3.844   0.513  24.893  0.00  0.00    +0.014 A 
ATOM     32  C   UNL     1      -3.277   1.082  24.705  0.00  0.00    +0.044 A 
ENDBRANCH  23  24
ENDBRANCH  22  23
TORSDOF 6
ENDMDL
MODEL 6
REMARK VINA RESULT:     -12.3      3.364      6.115
REMARK  Name = 
REMARK  6 active torsions:
REMARK  status: ('A' for Active; 'I' for Inactive)
REMARK    1  A    between atoms: C_2  and  C_5
REMARK    2  A    between atoms: C_8  and  C_11
REMARK    3  A    between atoms: N_13  and  C_14
REMARK    4  A    between atoms: C_14  and  C_15
REMARK    5  A    between atoms: C_22  and  C_23
REMARK    6  A    between atoms: C_23  and  N_24
REMARK                            x       y       z     vdW  Elec       q    Type
REMARK                         _______ _______ _______ _____ _____    ______ ____
ROOT
ATOM     15  C   UNL     1      -0.684   1.047  25.384  0.00  0.00    +0.079 C 
ATOM     16  C   UNL     1      -0.452   1.765  25.572  0.00  0.00    +0.018 C 
ATOM     17  C   UNL     1      -0.895   2.439  25.493  0.00  0.00    +0.006 C 
ATOM     18  C   UNL     1      -0.446   3.166  25.766  0.00  0.00    +0.017 C 
ATOM     19  C   UNL     1      -0.531   2.529  25.646  0.00  0.00    +0.072 C 
ATOM     20  N   UNL     1      -1.129   1.738  25.307  0.00  0.00    -0.272 NA
ATOM     21  C   UNL     1      -1.975   1.890  25.001  0.00  0.00    +0.074 C 
ATOM     22  C   UNL     1      -1.709   2.577  25.197  0.00  0.00    +0.036 C 
ENDROOT
BRANCH  15  14
ATOM     14  C   UNL     1      -0.574   0.233  25.315  0.00  0.00    +0.131 C 
BRANCH  14  13
ATOM     11  C   UNL     1      -1.131  -1.076  25.172  0.00  0.00    +0.265 C 
ATOM     12  O   UNL     1      -0.411  -1.407  25.403  0.00  0.00    -0.268 OA
ATOM     13  N   UNL     1      -1.212  -0.256  25.128  0.00  0.00    -0.200 NA
BRANCH  11   8
ATOM      5  C   UNL     1      -3.044  -2.542  24.611  0.00  0.00    +0.071 A 
ATOM      6  C   UNL     1      -3.139  -1.929  25.156  0.00  0.00    +0.004 A 
ATOM      7  C   UNL     1      -2.502  -1.441  25.342  0.00  0.00    +0.005 A 
ATOM      8  C   UNL     1      -1.768  -1.565  24.985  0.00  0.00    +0.055 A 
ATOM      9  C   UNL     1      -1.673  -2.177  24.440  0.00  0.00    +0.005 A 
ATOM     10  C   UNL     1      -2.311  -2.666  24.253  0.00  0.00    +0.004 A 
BRANCH   5   2
ATOM      1  F   UNL     1      -4.321  -3.518  24.237  0.00  0.00    -0.166 F 
ATOM      2  C   UNL     1      -3.682  -3.030  24.424  0.00  0.00    +0.419 C 
ATOM      3  F   UNL     1      -3.803  -2.605  23.728  0.00  0.00    -0.166 F 
ATOM      4  F   UNL     1      -3.561  -3.456  25.120  0.00  0.00    -0.166 F 
ENDBRANCH   5   2
ENDBRANCH  11   8
ENDBRANCH  14  13
ENDBRANCH  15  14
BRANCH  22  23
ATOM     23  C   UNL     1      -2.104   3.298  25.143  0.00  0.00    +0.092 C 
BRANCH  23  24
ATOM     24  N   UNL     1      -2.847   3.337  24.786  0.00  0.00    -0.307 N 
ATOM     25  C   UNL     1      -3.014   3.166  23.995  0.00  0.00    +0.095 C 
ATOM     26  C   UNL     1      -3.822   3.276  23.876  0.00  0.00    +0.049 C 
ATOM     27  C   UNL     1      -4.155   3.515  24.593  0.00  0.00    -0.007 A 
ATOM     28  C   UNL     1      -4.930   3.703  24.805  0.00  0.00    -0.003 A 
ATOM     29  C   UNL     1      -5.102   3.929  25.579  0.00  0.00    -0.000 A 
ATOM     30  C   UNL     1      -4.499   3.966  26.142  0.00  0.00    +0.001 A 
ATOM     31  C   UNL     1      -3.724   3.778  25.929  0.00  0.00    +0.014 A 
ATOM     32  C   UNL     1      -3.553   3.553  25.154  0.00  0.00    +0.044 A 
ENDBRANCH  23  24
ENDBRANCH  22  23
TORSDOF 6
ENDMDL
MODEL 7
REMARK VINA RESULT:     -12.2      2.113      3.233
REMARK  Name = 
REMARK  6 active torsions:
REMARK  status: ('A' for Active; 'I' for Inactive)
REMARK    1  A    between atoms: C_2  and  C_5
REMARK    2  A    between atoms: C_8  and  C_11
REMARK    3  A    between atoms: N_13  and  C_14
REMARK    4  A    between atoms: C_14  and  C_15
REMARK    5  A    between atoms: C_22  and  C_23
REMARK    6  A    between atoms: C_23  and  N_24
REMARK                            x       y       z     vdW  Elec       q    Type
REMARK                         _______ _______ _______ _____ _____    ______ ____
ROOT
ATOM     15  C   UNL     1      -0.298   0.229  24.612  0.00  0.00    +0.079 C 
ATOM     16  C   UNL     1      -0.249  -0.486  24.915  0.00  0.00    +0.018 C 
ATOM     17  C   UNL     1      -0.873  -0.987  25.043  0.00  0.00    +0.006 C 
ATOM     18  C   UNL     1      -0.607  -1.765  25.400  0.00  0.00    +0.017 C 
ATOM     19  C   UNL     1      -0.528  -1.163  25.160  0.00  0.00    +0.072 C 
ATOM     20  N   UNL     1      -0.928  -0.287  24.745  0.00  0.00    -0.272 NA
ATOM     21  C   UNL     1      -1.825  -0.208  24.596  0.00  0.00    +0.074 C 
ATOM     22  C   UNL     1      -1.734  -0.903  24.897  0.00  0.00    +0.036 C 
ENDROOT
BRANCH  15  14
ATOM     14  C   UNL     1       0.026   0.943  24.357  0.00  0.00    +0.131 C 
BRANCH  14  13
ATOM     11  C   UNL     1       0.062   2.368  24.469  0.00  0.00    +0.265 C 
ATOM     12  O   UNL     1       0.845   2.368  24.208  0.00  0.00    -0.268 OA
ATOM     13  N   UNL     1      -0.347   1.655  24.543  0.00  0.00    -0.200 NA
BRANCH  11   8
ATOM      5  C   UNL     1      -1.055   4.503  25.028  0.00  0.00    +0.071 A 
ATOM      6  C   UNL     1      -0.771   4.374  24.264  0.00  0.00    +0.004 A 
ATOM      7  C   UNL     1      -0.399   3.663  24.078  0.00  0.00    +0.005 A 
ATOM      8  C   UNL     1      -0.310   3.080  24.655  0.00  0.00    +0.055 A 
ATOM      9  C   UNL     1      -0.594   3.208  25.419  0.00  0.00    +0.005 A 
ATOM     10  C   UNL     1      -0.967   3.921  25.605  0.00  0.00    +0.004 A 
BRANCH   5   2
ATOM      1  F   UNL     1      -1.800   5.928  25.400  0.00  0.00    -0.166 F 
ATOM      2  C   UNL     1      -1.428   5.216  25.214  0.00  0.00    +0.419 C 
ATOM      3  F   UNL     1      -0.757   5.629  24.971  0.00  0.00    -0.166 F 
ATOM      4  F   UNL     1      -2.099   4.802  25.457  0.00  0.00    -0.166 F 
ENDBRANCH   5   2
ENDBRANCH  11   8
ENDBRANCH  14  13
ENDBRANCH  15  14
BRANCH  22  23
ATOM     23  C   UNL     1      -2.322  -1.460  25.052  0.00  0.00    +0.092 C 
BRANCH  23  24
ATOM     24  N   UNL     1      -3.070  -1.375  24.715  0.00  0.00    -0.307 N 
ATOM     25  C   UNL     1      -3.504  -0.675  24.667  0.00  0.00    +0.095 C 
ATOM     26  C   UNL     1      -4.218  -0.842  24.289  0.00  0.00    +0.049 C 
ATOM     27  C   UNL     1      -4.224  -1.647  24.103  0.00  0.00    -0.007 A 
ATOM     28  C   UNL     1      -4.786  -2.121  23.727  0.00  0.00    -0.003 A 
ATOM     29  C   UNL     1      -4.637  -2.924  23.615  0.00  0.00    -0.000 A 
ATOM     30  C   UNL     1      -3.928  -3.254  23.878  0.00  0.00    +0.001 A 
ATOM     31  C   UNL     1      -3.367  -2.779  24.254  0.00  0.00    +0.014 A 
ATOM     32  C   UNL     1      -3.516  -1.975  24.366  0.00  0.00    +0.044 A 
ENDBRANCH  23  24
ENDBRANCH  22  23
TORSDOF 6
ENDMDL
