MODEL 1
REMARK VINA RESULT:     -13.3      0.000      0.000
REMARK  Name = 
REMARK  5 active torsions:
REMARK  status: ('A' for Active; 'I' for Inactive)
REMARK    1  A    between atoms: N_4  and  C_21
REMARK    2  A    between atoms: C_7  and  C_8
REMARK    3  A    between atoms: C_10  and  N_11
REMARK    4  A    between atoms: N_11  and  C_12
REMARK    5  A    between atoms: C_12  and  C_13
REMARK                            x       y       z     vdW  Elec       q    Type
REMARK                         _______ _______ _______ _____ _____    ______ ____
ROOT
ATOM      1  C   UNL     1      -5.454   1.328  25.457  0.00  0.00    +0.054 C 
ATOM      2  C   UNL     1      -4.903   0.824  25.105  0.00  0.00    +0.077 A 
ATOM      3  N   UNL     1      -4.892   0.002  25.163  0.00  0.00    -0.170 NA
ATOM      4  N   UNL     1      -4.248  -0.276  24.728  0.00  0.00    -0.234 N 
ATOM      5  C   UNL     1      -3.862   0.375  24.401  0.00  0.00    +0.058 A 
ATOM      6  C   UNL     1      -3.189   0.350  23.924  0.00  0.00    +0.052 C 
ATOM      7  C   UNL     1      -4.266   1.056  24.634  0.00  0.00    +0.010 A 
ENDROOT
BRANCH   4  21
ATOM     21  C   UNL     1      -4.030  -1.067  24.636  0.00  0.00    +0.082 A 
ATOM     22  C   UNL     1      -4.288  -1.491  23.978  0.00  0.00    +0.019 A 
ATOM     23  C   UNL     1      -4.070  -2.282  23.886  0.00  0.00    +0.002 A 
ATOM     24  C   UNL     1      -3.593  -2.646  24.450  0.00  0.00    +0.000 A 
ATOM     25  C   UNL     1      -3.334  -2.221  25.109  0.00  0.00    +0.002 A 
ATOM     26  C   UNL     1      -3.553  -1.431  25.201  0.00  0.00    +0.019 A 
ENDBRANCH   4  21
BRANCH   7   8
ATOM      8  C   UNL     1      -4.068   1.830  24.431  0.00  0.00    +0.048 C 
ATOM      9  C   UNL     1      -3.550   2.322  24.841  0.00  0.00    +0.031 C 
ATOM     10  C   UNL     1      -3.516   3.044  24.445  0.00  0.00    +0.095 C 
ATOM     19  C   UNL     1      -4.014   2.999  23.788  0.00  0.00    -0.013 C 
ATOM     20  C   UNL     1      -4.355   2.249  23.780  0.00  0.00    -0.025 C 
BRANCH  10  11
ATOM     11  N   UNL     1      -3.063   3.698  24.665  0.00  0.00    -0.210 NA
BRANCH  11  12
ATOM     12  C   UNL     1      -2.357   3.593  25.078  0.00  0.00    +0.115 C 
BRANCH  12  13
ATOM     13  C   UNL     1      -1.759   4.159  25.024  0.00  0.00    -0.005 A 
ATOM     14  C   UNL     1      -1.931   4.954  25.157  0.00  0.00    -0.003 A 
ATOM     15  C   UNL     1      -1.333   5.520  25.104  0.00  0.00    -0.000 A 
ATOM     16  C   UNL     1      -0.563   5.290  24.917  0.00  0.00    -0.000 A 
ATOM     17  C   UNL     1      -0.392   4.494  24.784  0.00  0.00    -0.000 A 
ATOM     18  C   UNL     1      -0.989   3.928  24.838  0.00  0.00    -0.003 A 
ENDBRANCH  12  13
ENDBRANCH  11  12
ENDBRANCH  10  11
ENDBRANCH   7   8
TORSDOF 5
ENDMDL
MODEL 2
REMARK VINA RESULT:     -13.1      0.742      5.337
REMARK  Name = 
REMARK  5 active torsions:
REMARK  status: ('A' for Active; 'I' for Inactive)
REMARK    1  A    between atoms: N_4  and  C_21
REMARK    2  A    between atoms: C_7  and  C_8
REMARK    3  A    between atoms: C_10  and  N_11
REMARK    4  A    between atoms: N_11  and  C_12
REMARK    5  A    between atoms: C_12  and  C_13
REMARK                            x       y       z     vdW  Elec       q    Type
REMARK                         _______ _______ _______ _____ _____    ______ ____
ROOT
ATOM      1  C   UNL     1      -4.718   3.353  26.097  0.00  0.00    +0.054 C 
ATOM      2  C   UNL     1      -3.990   3.370  25.707  0.00  0.00    +0.077 A 
ATOM      3  N   UNL     1      -3.415   3.956  25.780  0.00  0.00    -0.170 NA
ATOM      4  N   UNL     1      -2.781   3.753  25.293  0.00  0.00    -0.234 N 
ATOM      5  C   UNL     1      -2.964   3.041  24.919  0.00  0.00    +0.058 A 
ATOM      6  C   UNL     1      -2.484   2.637  24.383  0.00  0.00    +0.052 C 
ATOM      7  C   UNL     1      -3.713   2.804  25.175  0.00  0.00    +0.010 A 
ENDROOT
BRANCH   4  21
ATOM     21  C   UNL     1      -2.084   4.186  25.197  0.00  0.00    +0.082 A 
ATOM     22  C   UNL     1      -2.121   4.989  25.012  0.00  0.00    +0.019 A 
ATOM     23  C   UNL     1      -1.425   5.421  24.916  0.00  0.00    +0.002 A 
ATOM     24  C   UNL     1      -0.694   5.052  25.005  0.00  0.00    +0.000 A 
ATOM     25  C   UNL     1      -0.657   4.248  25.191  0.00  0.00    +0.002 A 
ATOM     26  C   UNL     1      -1.353   3.815  25.287  0.00  0.00    +0.019 A 
ENDBRANCH   4  21
BRANCH   7   8
ATOM      8  C   UNL     1      -4.111   2.121  24.939  0.00  0.00    +0.048 C 
ATOM      9  C   UNL     1      -3.886   1.346  25.104  0.00  0.00    +0.031 C 
ATOM     10  C   UNL     1      -4.440   0.841  24.763  0.00  0.00    +0.095 C 
ATOM     19  C   UNL     1      -5.010   1.304  24.387  0.00  0.00    -0.013 C 
ATOM     20  C   UNL     1      -4.807   2.096  24.495  0.00  0.00    -0.025 C 
BRANCH  10  11
ATOM     11  N   UNL     1      -4.430   0.016  24.793  0.00  0.00    -0.210 NA
BRANCH  11  12
ATOM     12  C   UNL     1      -3.949  -0.409  24.275  0.00  0.00    +0.115 C 
BRANCH  12  13
ATOM     13  C   UNL     1      -3.879  -1.228  24.356  0.00  0.00    -0.005 A 
ATOM     14  C   UNL     1      -3.423  -1.544  24.966  0.00  0.00    -0.003 A 
ATOM     15  C   UNL     1      -3.353  -2.363  25.047  0.00  0.00    -0.000 A 
ATOM     16  C   UNL     1      -3.739  -2.864  24.517  0.00  0.00    -0.000 A 
ATOM     17  C   UNL     1      -4.194  -2.546  23.906  0.00  0.00    -0.000 A 
ATOM     18  C   UNL     1      -4.264  -1.729  23.826  0.00  0.00    -0.003 A 
ENDBRANCH  12  13
ENDBRANCH  11  12
ENDBRANCH  10  11
ENDBRANCH   7   8
TORSDOF 5
ENDMDL
MODEL 3
REMARK VINA RESULT:     -12.3      1.782      2.585
REMARK  Name = 
REMARK  5 active torsions:
REMARK  status: ('A' for Active; 'I' for Inactive)
REMARK    1  A    between atoms: N_4  and  C_21
REMARK    2  A    between atoms: C_7  and  C_8
REMARK    3  A    between atoms: C_10  and  N_11
REMARK    4  A    between atoms: N_11  and  C_12
REMARK    5  A    between atoms: C_12  and  C_13
REMARK                            x       y       z     vdW  Elec       q    Type
REMARK                         _______ _______ _______ _____ _____    ______ ____
ROOT
ATOM      1  C   UNL     1      -0.190  -0.781  24.271  0.00  0.00    +0.054 C 
ATOM      2  C   UNL     1      -0.999  -0.839  24.422  0.00  0.00    +0.077 A 
ATOM      3  N   UNL     1      -1.483  -1.477  24.226  0.00  0.00    -0.170 NA
ATOM      4  N   UNL     1      -2.249  -1.302  24.479  0.00  0.00    -0.234 N 
ATOM      5  C   UNL     1      -2.238  -0.556  24.831  0.00  0.00    +0.058 A 
ATOM      6  C   UNL     1      -2.886  -0.165  25.161  0.00  0.00    +0.052 C 
ATOM      7  C   UNL     1      -1.464  -0.270  24.796  0.00  0.00    +0.010 A 
ENDROOT
BRANCH   4  21
ATOM     21  C   UNL     1      -2.911  -1.788  24.395  0.00  0.00    +0.082 A 
ATOM     22  C   UNL     1      -2.936  -2.520  24.776  0.00  0.00    +0.019 A 
ATOM     23  C   UNL     1      -3.598  -3.006  24.691  0.00  0.00    +0.002 A 
ATOM     24  C   UNL     1      -4.233  -2.761  24.227  0.00  0.00    +0.000 A 
ATOM     25  C   UNL     1      -4.208  -2.029  23.846  0.00  0.00    +0.002 A 
ATOM     26  C   UNL     1      -3.547  -1.542  23.930  0.00  0.00    +0.019 A 
ENDBRANCH   4  21
BRANCH   7   8
ATOM      8  C   UNL     1      -1.204   0.458  25.084  0.00  0.00    +0.048 C 
ATOM      9  C   UNL     1      -1.291   1.188  24.711  0.00  0.00    +0.031 C 
ATOM     10  C   UNL     1      -0.952   1.764  25.193  0.00  0.00    +0.095 C 
ATOM     19  C   UNL     1      -0.655   1.389  25.866  0.00  0.00    -0.013 C 
ATOM     20  C   UNL     1      -0.810   0.583  25.799  0.00  0.00    -0.025 C 
BRANCH  10  11
ATOM     11  N   UNL     1      -0.916   2.572  25.033  0.00  0.00    -0.210 NA
BRANCH  11  12
ATOM     12  C   UNL     1      -1.121   3.119  25.615  0.00  0.00    +0.115 C 
BRANCH  12  13
ATOM     13  C   UNL     1      -1.264   3.905  25.411  0.00  0.00    -0.005 A 
ATOM     14  C   UNL     1      -2.005   4.239  25.553  0.00  0.00    -0.003 A 
ATOM     15  C   UNL     1      -2.149   5.026  25.349  0.00  0.00    -0.000 A 
ATOM     16  C   UNL     1      -1.552   5.478  25.002  0.00  0.00    -0.000 A 
ATOM     17  C   UNL     1      -0.811   5.143  24.860  0.00  0.00    -0.000 A 
ATOM     18  C   UNL     1      -0.668   4.357  25.064  0.00  0.00    -0.003 A 
ENDBRANCH  12  13
ENDBRANCH  11  12
ENDBRANCH  10  11
ENDBRANCH   7   8
TORSDOF 5
ENDMDL
MODEL 4
REMARK VINA RESULT:     -12.3      1.791      5.821
REMARK  Name = 
REMARK  5 active torsions:
REMARK  status: ('A' for Active; 'I' for Inactive)
REMARK    1  A    between atoms: N_4  and  C_21
REMARK    2  A    between atoms: C_7  and  C_8
REMARK    3  A    between atoms: C_10  and  N_11
REMARK    4  A    between atoms: N_11  and  C_12
REMARK    5  A    between atoms: C_12  and  C_13
REMARK                            x       y       z     vdW  Elec       q    Type
REMARK                         _______ _______ _______ _____ _____    ______ ____
ROOT
ATOM      1  C   UNL     1      -0.172   1.565  26.459  0.00  0.00    +0.054 C 
ATOM      2  C   UNL     1      -0.545   2.086  25.939  0.00  0.00    +0.077 A 
ATOM      3  N   UNL     1      -0.634   2.898  26.049  0.00  0.00    -0.170 NA
ATOM      4  N   UNL     1      -1.038   3.201  25.396  0.00  0.00    -0.234 N 
ATOM      5  C   UNL     1      -1.198   2.575  24.883  0.00  0.00    +0.058 A 
ATOM      6  C   UNL     1      -1.594   2.629  24.160  0.00  0.00    +0.052 C 
ATOM      7  C   UNL     1      -0.893   1.885  25.219  0.00  0.00    +0.010 A 
ENDROOT
BRANCH   4  21
ATOM     21  C   UNL     1      -1.246   3.991  25.277  0.00  0.00    +0.082 A 
ATOM     22  C   UNL     1      -1.986   4.262  25.520  0.00  0.00    +0.019 A 
ATOM     23  C   UNL     1      -2.194   5.052  25.401  0.00  0.00    +0.002 A 
ATOM     24  C   UNL     1      -1.663   5.569  25.039  0.00  0.00    +0.000 A 
ATOM     25  C   UNL     1      -0.922   5.296  24.796  0.00  0.00    +0.002 A 
ATOM     26  C   UNL     1      -0.715   4.507  24.915  0.00  0.00    +0.019 A 
ENDBRANCH   4  21
BRANCH   7   8
ATOM      8  C   UNL     1      -0.930   1.129  24.890  0.00  0.00    +0.048 C 
ATOM      9  C   UNL     1      -1.544   0.588  24.986  0.00  0.00    +0.031 C 
ATOM     10  C   UNL     1      -1.353  -0.093  24.564  0.00  0.00    +0.095 C 
ATOM     19  C   UNL     1      -0.619   0.027  24.206  0.00  0.00    -0.013 C 
ATOM     20  C   UNL     1      -0.358   0.782  24.407  0.00  0.00    -0.025 C 
BRANCH  10  11
ATOM     11  N   UNL     1      -1.812  -0.776  24.507  0.00  0.00    -0.210 NA
BRANCH  11  12
ATOM     12  C   UNL     1      -2.596  -0.768  24.764  0.00  0.00    +0.115 C 
BRANCH  12  13
ATOM     13  C   UNL     1      -3.104  -1.387  24.560  0.00  0.00    -0.005 A 
ATOM     14  C   UNL     1      -2.961  -2.148  24.843  0.00  0.00    -0.003 A 
ATOM     15  C   UNL     1      -3.468  -2.766  24.638  0.00  0.00    -0.000 A 
ATOM     16  C   UNL     1      -4.117  -2.622  24.151  0.00  0.00    -0.000 A 
ATOM     17  C   UNL     1      -4.260  -1.860  23.868  0.00  0.00    -0.000 A 
ATOM     18  C   UNL     1      -3.753  -1.243  24.072  0.00  0.00    -0.003 A 
ENDBRANCH  12  13
ENDBRANCH  11  12
ENDBRANCH  10  11
ENDBRANCH   7   8
TORSDOF 5
ENDMDL
