REMARK  Name = 
REMARK  5 active torsions:
REMARK  status: ('A' for Active; 'I' for Inactive)
REMARK    1  A    between atoms: C_2  and  C_3
REMARK    2  A    between atoms: C_5  and  C_6
REMARK    3  A    between atoms: C_6  and  N_7
REMARK    4  A    between atoms: C_8  and  C_10
REMARK    5  A    between atoms: C_16  and  N_19
REMARK                            x       y       z     vdW  Elec       q    Type
REMARK                         _______ _______ _______ _____ _____    ______ ____
ROOT
ATOM      3  C   UNL     1       0.715  -1.238   0.000  0.00  0.00    +0.180 C 
ATOM      4  O   UNL     1       1.382  -1.722   0.000  0.00  0.00    -0.350 OA
ATOM      5  C   UNL     1       1.127  -2.507   0.000  0.00  0.00    +0.154 C 
ATOM     16  C   UNL     1       0.302  -2.507   0.000  0.00  0.00    +0.120 C 
ATOM     17  C   UNL     1       0.047  -1.722   0.000  0.00  0.00    +0.198 C 
ATOM     18  O   UNL     1      -0.738  -1.468   0.000  0.00  0.00    -0.219 OA
ENDROOT
BRANCH  16  19
ATOM     19  N   UNL     1      -0.183  -3.175   0.000  0.00  0.00    -0.270 NA
ATOM     20  C   UNL     1       0.153  -3.928   0.000  0.00  0.00    +0.072 C 
ATOM     21  C   UNL     1      -0.332  -4.596   0.000  0.00  0.00    +0.017 C 
ATOM     22  C   UNL     1      -1.153  -4.509   0.000  0.00  0.00    +0.003 C 
ATOM     23  C   UNL     1      -1.488  -3.756   0.000  0.00  0.00    +0.017 C 
ATOM     24  C   UNL     1      -1.003  -3.088   0.000  0.00  0.00    +0.072 C 
ENDBRANCH  16  19
BRANCH   3   2
ATOM      1  O   UNL     1       0.000   0.000   0.000  0.00  0.00    -0.218 OA
ATOM      2  C   UNL     1       0.715  -0.412   0.000  0.00  0.00    +0.214 C 
ENDBRANCH   3   2
BRANCH   5   6
ATOM      6  C   UNL     1       1.612  -3.175   0.000  0.00  0.00    +0.146 C 
BRANCH   6   7
ATOM      7  N   UNL     1       2.432  -3.088   0.000  0.00  0.00    -0.199 NA
ATOM      8  C   UNL     1       2.917  -3.756   0.000  0.00  0.00    +0.265 C 
ATOM      9  O   UNL     1       2.582  -4.509   0.000  0.00  0.00    -0.268 OA
BRANCH   8  10
ATOM     10  C   UNL     1       3.738  -3.670   0.000  0.00  0.00    +0.055 A 
ATOM     11  C   UNL     1       4.073  -2.916   0.000  0.00  0.00    +0.005 A 
ATOM     12  C   UNL     1       4.894  -2.829   0.000  0.00  0.00    +0.000 A 
ATOM     13  C   UNL     1       5.379  -3.497   0.000  0.00  0.00    +0.000 A 
ATOM     14  C   UNL     1       5.043  -4.251   0.000  0.00  0.00    +0.000 A 
ATOM     15  C   UNL     1       4.223  -4.337   0.000  0.00  0.00    +0.005 A 
ENDBRANCH   8  10
ENDBRANCH   6   7
ENDBRANCH   5   6
TORSDOF 5
