REMARK  Name = 
REMARK  8 active torsions:
REMARK  status: ('A' for Active; 'I' for Inactive)
REMARK    1  A    between atoms: O_2  and  C_3
REMARK    2  A    between atoms: C_3  and  C_4
REMARK    3  A    between atoms: C_4  and  N_5
REMARK    4  A    between atoms: C_6  and  C_8
REMARK    5  A    between atoms: C_15  and  C_16
REMARK    6  A    between atoms: C_16  and  N_17
REMARK    7  A    between atoms: C_19  and  C_20
REMARK    8  A    between atoms: C_20  and  O_21
REMARK                            x       y       z     vdW  Elec       q    Type
REMARK                         _______ _______ _______ _____ _____    ______ ____
ROOT
ATOM      8  C   UNL     1       1.661  -1.343   0.000  0.00  0.00    +0.094 C 
ATOM      9  C   UNL     1       1.814  -2.106   0.000  0.00  0.00    +0.081 C 
ATOM     10  N   UNL     1       1.065  -1.759   0.000  0.00  0.00    -0.272 NA
ATOM     11  C   UNL     1       1.205  -0.720   0.000  0.00  0.00    +0.072 C 
ATOM     12  C   UNL     1       0.961  -0.114   0.000  0.00  0.00    +0.018 C 
ATOM     13  C   UNL     1       0.923  -1.010   0.000  0.00  0.00    +0.013 C 
ATOM     14  C   UNL     1       0.119  -1.362   0.000  0.00  0.00    +0.019 C 
ATOM     15  C   UNL     1       0.226  -2.118   0.000  0.00  0.00    +0.082 C 
ENDROOT
BRANCH   8   6
ATOM      5  N   UNL     1       2.184  -0.013   0.000  0.00  0.00    -0.203 NA
ATOM      6  C   UNL     1       2.307  -0.828   0.000  0.00  0.00    +0.242 C 
ATOM      7  O   UNL     1       3.075  -1.130   0.000  0.00  0.00    -0.273 OA
BRANCH   5   4
ATOM      4  C   UNL     1       2.829   0.501   0.000  0.00  0.00    +0.147 C 
BRANCH   4   3
ATOM      3  C   UNL     1       2.707   1.317   0.000  0.00  0.00    +0.166 C 
BRANCH   3   2
ATOM      1  C   UNL     1       3.229   2.647   0.000  0.00  0.00    +0.174 C 
ATOM      2  O   UNL     1       3.352   1.831   0.000  0.00  0.00    -0.349 OA
ENDBRANCH   3   2
ENDBRANCH   4   3
ENDBRANCH   5   4
ENDBRANCH   8   6
BRANCH  15  16
ATOM     16  C   UNL     1      -0.179  -2.836   0.000  0.00  0.00    +0.145 C 
BRANCH  16  17
ATOM     17  N   UNL     1      -1.004  -2.845   0.000  0.00  0.00    -0.229 N 
ATOM     18  C   UNL     1      -1.481  -3.518   0.000  0.00  0.00    +0.116 A 
ATOM     19  C   UNL     1      -2.269  -3.271   0.000  0.00  0.00    +0.131 A 
ATOM     23  N   UNL     1      -2.277  -2.446   0.000  0.00  0.00    -0.131 NA
ATOM     24  N   UNL     1      -1.496  -2.183   0.000  0.00  0.00    -0.064 NA
BRANCH  19  20
ATOM     20  C   UNL     1      -2.931  -3.763   0.000  0.00  0.00    +0.191 C 
BRANCH  20  21
ATOM     21  O   UNL     1      -3.688  -3.436   0.000  0.00  0.00    -0.345 OA
ATOM     22  C   UNL     1      -4.350  -3.928   0.000  0.00  0.00    +0.175 C 
ENDBRANCH  20  21
ENDBRANCH  19  20
ENDBRANCH  16  17
ENDBRANCH  15  16
TORSDOF 8
