MODEL 1
REMARK VINA RESULT:     -12.9      0.000      0.000
REMARK  Name = 
REMARK  4 active torsions:
REMARK  status: ('A' for Active; 'I' for Inactive)
REMARK    1  A    between atoms: C_2  and  C_3
REMARK    2  A    between atoms: C_2  and  C_27
REMARK    3  A    between atoms: C_10  and  N_11
REMARK    4  A    between atoms: N_14  and  C_15
REMARK                            x       y       z     vdW  Elec       q    Type
REMARK                         _______ _______ _______ _____ _____    ______ ____
ROOT
ATOM      3  C   UNL     1      -3.887   3.385  24.966  0.00  0.00    +0.039 C 
ATOM      4  C   UNL     1      -4.504   3.388  25.514  0.00  0.00    +0.003 C 
ATOM      5  C   UNL     1      -4.962   2.711  25.623  0.00  0.00    +0.000 C 
ATOM      6  C   UNL     1      -4.803   2.031  25.185  0.00  0.00    +0.002 C 
ATOM      7  C   UNL     1      -5.419   2.034  25.732  0.00  0.00    +0.000 C 
ATOM      8  C   UNL     1      -5.261   1.353  25.294  0.00  0.00    +0.002 C 
ATOM      9  C   UNL     1      -5.102   0.673  24.855  0.00  0.00    +0.022 C 
ATOM     10  C   UNL     1      -4.484   0.670  24.307  0.00  0.00    +0.097 C 
ATOM     22  C   UNL     1      -4.027   1.347  24.198  0.00  0.00    +0.023 C 
ATOM     23  C   UNL     1      -3.410   1.344  23.650  0.00  0.00    +0.002 C 
ATOM     24  C   UNL     1      -4.185   2.028  24.636  0.00  0.00    +0.032 C 
ATOM     25  C   UNL     1      -3.728   2.705  24.527  0.00  0.00    +0.152 C 
ATOM     26  O   UNL     1      -3.111   2.702  23.980  0.00  0.00    -0.223 OA
ENDROOT
BRANCH  10  11
ATOM     11  N   UNL     1      -4.326  -0.011  23.868  0.00  0.00    -0.189 NA
ATOM     12  C   UNL     1      -3.984  -0.666  24.233  0.00  0.00    +0.343 C 
ATOM     13  O   UNL     1      -3.799  -0.641  25.037  0.00  0.00    -0.249 OA
ATOM     14  N   UNL     1      -3.825  -1.347  23.794  0.00  0.00    -0.161 NA
BRANCH  14  15
ATOM     15  C   UNL     1      -3.483  -2.002  24.159  0.00  0.00    +0.077 A 
ATOM     16  C   UNL     1      -3.957  -2.630  24.411  0.00  0.00    +0.017 A 
ATOM     17  C   UNL     1      -3.614  -3.285  24.775  0.00  0.00    +0.004 A 
ATOM     18  C   UNL     1      -2.798  -3.315  24.888  0.00  0.00    +0.030 A 
ATOM     19  C   UNL     1      -2.323  -2.688  24.636  0.00  0.00    +0.141 A 
ATOM     20  F   UNL     1      -1.507  -2.718  24.749  0.00  0.00    -0.204 F 
ATOM     21  C   UNL     1      -2.666  -2.032  24.272  0.00  0.00    +0.046 A 
ENDBRANCH  14  15
ENDBRANCH  10  11
BRANCH   3   2
ATOM      1  C   UNL     1      -3.538   4.533  24.187  0.00  0.00    +0.010 C 
ATOM      2  C   UNL     1      -3.429   4.063  24.857  0.00  0.00    +0.079 C 
BRANCH   2  27
ATOM     27  C   UNL     1      -2.862   4.272  25.418  0.00  0.00    +0.225 C 
ATOM     28  O   UNL     1      -3.019   4.168  26.222  0.00  0.00    -0.275 OA
ATOM     29  N   UNL     1      -2.136   4.584  25.177  0.00  0.00    -0.280 N 
ATOM     30  C   UNL     1      -1.519   4.816  25.672  0.00  0.00    +0.093 C 
ATOM     31  C   UNL     1      -0.903   5.094  25.199  0.00  0.00    +0.023 C 
ATOM     32  C   UNL     1      -1.141   5.033  24.411  0.00  0.00    +0.023 C 
ATOM     33  C   UNL     1      -1.903   4.718  24.397  0.00  0.00    +0.093 C 
ENDBRANCH   2  27
ENDBRANCH   3   2
TORSDOF 4
ENDMDL
MODEL 2
REMARK VINA RESULT:     -12.2      3.309      4.369
REMARK  Name = 
REMARK  4 active torsions:
REMARK  status: ('A' for Active; 'I' for Inactive)
REMARK    1  A    between atoms: C_2  and  C_3
REMARK    2  A    between atoms: C_2  and  C_27
REMARK    3  A    between atoms: C_10  and  N_11
REMARK    4  A    between atoms: N_14  and  C_15
REMARK                            x       y       z     vdW  Elec       q    Type
REMARK                         _______ _______ _______ _____ _____    ______ ____
ROOT
ATOM      3  C   UNL     1      -2.914   2.987  24.814  0.00  0.00    +0.039 C 
ATOM      4  C   UNL     1      -2.475   3.583  25.181  0.00  0.00    +0.003 C 
ATOM      5  C   UNL     1      -1.667   3.480  25.310  0.00  0.00    +0.000 C 
ATOM      6  C   UNL     1      -1.297   2.783  25.072  0.00  0.00    +0.002 C 
ATOM      7  C   UNL     1      -0.859   3.377  25.438  0.00  0.00    +0.000 C 
ATOM      8  C   UNL     1      -0.489   2.679  25.201  0.00  0.00    +0.002 C 
ATOM      9  C   UNL     1      -0.119   1.982  24.963  0.00  0.00    +0.022 C 
ATOM     10  C   UNL     1      -0.558   1.386  24.596  0.00  0.00    +0.097 C 
ATOM     22  C   UNL     1      -1.365   1.489  24.467  0.00  0.00    +0.023 C 
ATOM     23  C   UNL     1      -1.804   0.894  24.101  0.00  0.00    +0.002 C 
ATOM     24  C   UNL     1      -1.736   2.187  24.705  0.00  0.00    +0.032 C 
ATOM     25  C   UNL     1      -2.544   2.290  24.576  0.00  0.00    +0.152 C 
ATOM     26  O   UNL     1      -2.982   1.695  24.210  0.00  0.00    -0.223 OA
ENDROOT
BRANCH  10  11
ATOM     11  N   UNL     1      -0.187   0.688  24.358  0.00  0.00    -0.189 NA
ATOM     12  C   UNL     1       0.442   0.715  23.827  0.00  0.00    +0.343 C 
ATOM     13  O   UNL     1       0.702   1.441  23.531  0.00  0.00    -0.249 OA
ATOM     14  N   UNL     1       0.813   0.017  23.589  0.00  0.00    -0.161 NA
BRANCH  14  15
ATOM     15  C   UNL     1       1.442   0.044  23.057  0.00  0.00    +0.077 A 
ATOM     16  C   UNL     1       1.334  -0.205  22.277  0.00  0.00    +0.017 A 
ATOM     17  C   UNL     1       1.965  -0.177  21.745  0.00  0.00    +0.004 A 
ATOM     18  C   UNL     1       2.702   0.098  21.992  0.00  0.00    +0.030 A 
ATOM     19  C   UNL     1       2.810   0.346  22.772  0.00  0.00    +0.141 A 
ATOM     20  F   UNL     1       3.547   0.622  23.018  0.00  0.00    -0.204 F 
ATOM     21  C   UNL     1       2.180   0.319  23.304  0.00  0.00    +0.046 A 
ENDBRANCH  14  15
ENDBRANCH  10  11
BRANCH   3   2
ATOM      1  C   UNL     1      -4.022   3.095  23.917  0.00  0.00    +0.010 C 
ATOM      2  C   UNL     1      -3.722   3.091  24.685  0.00  0.00    +0.079 C 
BRANCH   2  27
ATOM     27  C   UNL     1      -4.232   3.190  25.327  0.00  0.00    +0.225 C 
ATOM     28  O   UNL     1      -4.028   3.703  25.941  0.00  0.00    -0.275 OA
ATOM     29  N   UNL     1      -4.946   2.776  25.354  0.00  0.00    -0.280 N 
ATOM     30  C   UNL     1      -5.508   2.819  25.956  0.00  0.00    +0.093 C 
ATOM     31  C   UNL     1      -6.132   2.316  25.759  0.00  0.00    +0.023 C 
ATOM     32  C   UNL     1      -5.954   1.963  25.035  0.00  0.00    +0.023 C 
ATOM     33  C   UNL     1      -5.222   2.248  24.785  0.00  0.00    +0.093 C 
ENDBRANCH   2  27
ENDBRANCH   3   2
TORSDOF 4
ENDMDL
MODEL 3
REMARK VINA RESULT:     -12.1      3.491      5.040
REMARK  Name = 
REMARK  4 active torsions:
REMARK  status: ('A' for Active; 'I' for Inactive)
REMARK    1  A    between atoms: C_2  and  C_3
REMARK    2  A    between atoms: C_2  and  C_27
REMARK    3  A    between atoms: C_10  and  N_11
REMARK    4  A    between atoms: N_14  and  C_15
REMARK                            x       y       z     vdW  Elec       q    Type
REMARK                         _______ _______ _______ _____ _____    ______ ____
ROOT
ATOM      3  C   UNL     1      -0.044   0.345  23.892  0.00  0.00    +0.039 C 
ATOM      4  C   UNL     1      -0.043  -0.295  24.413  0.00  0.00    +0.003 C 
ATOM      5  C   UNL     1      -0.751  -0.563  24.740  0.00  0.00    +0.000 C 
ATOM      6  C   UNL     1      -1.461  -0.192  24.546  0.00  0.00    +0.002 C 
ATOM      7  C   UNL     1      -1.459  -0.831  25.066  0.00  0.00    +0.000 C 
ATOM      8  C   UNL     1      -2.170  -0.459  24.872  0.00  0.00    +0.002 C 
ATOM      9  C   UNL     1      -2.880  -0.088  24.678  0.00  0.00    +0.022 C 
ATOM     10  C   UNL     1      -2.882   0.553  24.157  0.00  0.00    +0.097 C 
ATOM     22  C   UNL     1      -2.173   0.820  23.830  0.00  0.00    +0.023 C 
ATOM     23  C   UNL     1      -2.175   1.460  23.310  0.00  0.00    +0.002 C 
ATOM     24  C   UNL     1      -1.463   0.449  24.024  0.00  0.00    +0.032 C 
ATOM     25  C   UNL     1      -0.754   0.717  23.698  0.00  0.00    +0.152 C 
ATOM     26  O   UNL     1      -0.756   1.357  23.177  0.00  0.00    -0.223 OA
ENDROOT
BRANCH  10  11
ATOM     11  N   UNL     1      -3.593   0.924  23.963  0.00  0.00    -0.189 NA
ATOM     12  C   UNL     1      -4.015   1.334  24.540  0.00  0.00    +0.343 C 
ATOM     13  O   UNL     1      -3.726   1.374  25.313  0.00  0.00    -0.249 OA
ATOM     14  N   UNL     1      -4.726   1.705  24.346  0.00  0.00    -0.161 NA
BRANCH  14  15
ATOM     15  C   UNL     1      -5.148   2.116  24.923  0.00  0.00    +0.077 A 
ATOM     16  C   UNL     1      -5.692   1.716  25.399  0.00  0.00    +0.017 A 
ATOM     17  C   UNL     1      -6.114   2.127  25.977  0.00  0.00    +0.004 A 
ATOM     18  C   UNL     1      -5.995   2.936  26.078  0.00  0.00    +0.030 A 
ATOM     19  C   UNL     1      -5.451   3.336  25.602  0.00  0.00    +0.141 A 
ATOM     20  F   UNL     1      -5.332   4.146  25.704  0.00  0.00    -0.204 F 
ATOM     21  C   UNL     1      -5.029   2.926  25.025  0.00  0.00    +0.046 A 
ENDBRANCH  14  15
ENDBRANCH  10  11
BRANCH   3   2
ATOM      1  C   UNL     1       0.976   1.342  23.794  0.00  0.00    +0.010 C 
ATOM      2  C   UNL     1       0.665   0.613  23.566  0.00  0.00    +0.079 C 
BRANCH   2  27
ATOM     27  C   UNL     1       1.063   0.151  23.011  0.00  0.00    +0.225 C 
ATOM     28  O   UNL     1       0.659  -0.441  22.600  0.00  0.00    -0.275 OA
ATOM     29  N   UNL     1       1.865   0.280  22.865  0.00  0.00    -0.280 N 
ATOM     30  C   UNL     1       2.334  -0.136  22.329  0.00  0.00    +0.093 C 
ATOM     31  C   UNL     1       3.097   0.175  22.362  0.00  0.00    +0.023 C 
ATOM     32  C   UNL     1       3.100   0.784  22.919  0.00  0.00    +0.023 C 
ATOM     33  C   UNL     1       2.338   0.849  23.230  0.00  0.00    +0.093 C 
ENDBRANCH   2  27
ENDBRANCH   3   2
TORSDOF 4
ENDMDL
MODEL 4
REMARK VINA RESULT:     -11.8      2.744      6.425
REMARK  Name = 
REMARK  4 active torsions:
REMARK  status: ('A' for Active; 'I' for Inactive)
REMARK    1  A    between atoms: C_2  and  C_3
REMARK    2  A    between atoms: C_2  and  C_27
REMARK    3  A    between atoms: C_10  and  N_11
REMARK    4  A    between atoms: N_14  and  C_15
REMARK                            x       y       z     vdW  Elec       q    Type
REMARK                         _______ _______ _______ _____ _____    ______ ____
ROOT
ATOM      3  C   UNL     1      -1.023  -1.245  24.612  0.00  0.00    +0.039 C 
ATOM      4  C   UNL     1      -0.648  -1.273  23.877  0.00  0.00    +0.003 C 
ATOM      5  C   UNL     1      -0.243  -0.611  23.596  0.00  0.00    +0.000 C 
ATOM      6  C   UNL     1      -0.213   0.077  24.049  0.00  0.00    +0.002 C 
ATOM      7  C   UNL     1       0.161   0.050  23.315  0.00  0.00    +0.000 C 
ATOM      8  C   UNL     1       0.192   0.739  23.768  0.00  0.00    +0.002 C 
ATOM      9  C   UNL     1       0.222   1.427  24.221  0.00  0.00    +0.022 C 
ATOM     10  C   UNL     1      -0.153   1.454  24.956  0.00  0.00    +0.097 C 
ATOM     22  C   UNL     1      -0.558   0.793  25.237  0.00  0.00    +0.023 C 
ATOM     23  C   UNL     1      -0.932   0.820  25.972  0.00  0.00    +0.002 C 
ATOM     24  C   UNL     1      -0.588   0.104  24.784  0.00  0.00    +0.032 C 
ATOM     25  C   UNL     1      -0.993  -0.557  25.065  0.00  0.00    +0.152 C 
ATOM     26  O   UNL     1      -1.368  -0.530  25.799  0.00  0.00    -0.223 OA
ENDROOT
BRANCH  10  11
ATOM     11  N   UNL     1      -0.122   2.143  25.409  0.00  0.00    -0.189 NA
ATOM     12  C   UNL     1      -0.559   2.805  25.184  0.00  0.00    +0.343 C 
ATOM     13  O   UNL     1      -1.028   2.779  24.505  0.00  0.00    -0.249 OA
ATOM     14  N   UNL     1      -0.528   3.494  25.637  0.00  0.00    -0.161 NA
BRANCH  14  15
ATOM     15  C   UNL     1      -0.965   4.156  25.412  0.00  0.00    +0.077 A 
ATOM     16  C   UNL     1      -0.618   4.740  24.942  0.00  0.00    +0.017 A 
ATOM     17  C   UNL     1      -1.055   5.402  24.717  0.00  0.00    +0.004 A 
ATOM     18  C   UNL     1      -1.839   5.482  24.961  0.00  0.00    +0.030 A 
ATOM     19  C   UNL     1      -2.186   4.898  25.430  0.00  0.00    +0.141 A 
ATOM     20  F   UNL     1      -2.971   4.978  25.674  0.00  0.00    -0.204 F 
ATOM     21  C   UNL     1      -1.750   4.236  25.656  0.00  0.00    +0.046 A 
ENDBRANCH  14  15
ENDBRANCH  10  11
BRANCH   3   2
ATOM      1  C   UNL     1      -1.406  -2.096  25.696  0.00  0.00    +0.010 C 
ATOM      2  C   UNL     1      -1.428  -1.907  24.893  0.00  0.00    +0.079 C 
BRANCH   2  27
ATOM     27  C   UNL     1      -1.856  -2.381  24.370  0.00  0.00    +0.225 C 
ATOM     28  O   UNL     1      -1.462  -2.807  23.783  0.00  0.00    -0.275 OA
ATOM     29  N   UNL     1      -2.678  -2.428  24.433  0.00  0.00    -0.280 N 
ATOM     30  C   UNL     1      -3.176  -2.876  23.953  0.00  0.00    +0.093 C 
ATOM     31  C   UNL     1      -3.951  -2.761  24.211  0.00  0.00    +0.023 C 
ATOM     32  C   UNL     1      -3.931  -2.241  24.852  0.00  0.00    +0.023 C 
ATOM     33  C   UNL     1      -3.144  -2.036  24.989  0.00  0.00    +0.093 C 
ENDBRANCH   2  27
ENDBRANCH   3   2
TORSDOF 4
ENDMDL
MODEL 5
REMARK VINA RESULT:     -11.8      1.857      5.600
REMARK  Name = 
REMARK  4 active torsions:
REMARK  status: ('A' for Active; 'I' for Inactive)
REMARK    1  A    between atoms: C_2  and  C_3
REMARK    2  A    between atoms: C_2  and  C_27
REMARK    3  A    between atoms: C_10  and  N_11
REMARK    4  A    between atoms: N_14  and  C_15
REMARK                            x       y       z     vdW  Elec       q    Type
REMARK                         _______ _______ _______ _____ _____    ______ ____
ROOT
ATOM      3  C   UNL     1      -4.415  -0.195  24.637  0.00  0.00    +0.039 C 
ATOM      4  C   UNL     1      -5.035   0.023  25.137  0.00  0.00    +0.003 C 
ATOM      5  C   UNL     1      -5.197   0.820  25.270  0.00  0.00    +0.000 C 
ATOM      6  C   UNL     1      -4.741   1.400  24.904  0.00  0.00    +0.002 C 
ATOM      7  C   UNL     1      -5.359   1.617  25.403  0.00  0.00    +0.000 C 
ATOM      8  C   UNL     1      -4.903   2.199  25.037  0.00  0.00    +0.002 C 
ATOM      9  C   UNL     1      -4.446   2.779  24.671  0.00  0.00    +0.022 C 
ATOM     10  C   UNL     1      -3.826   2.562  24.170  0.00  0.00    +0.097 C 
ATOM     22  C   UNL     1      -3.663   1.765  24.037  0.00  0.00    +0.023 C 
ATOM     23  C   UNL     1      -3.044   1.548  23.538  0.00  0.00    +0.002 C 
ATOM     24  C   UNL     1      -4.120   1.183  24.404  0.00  0.00    +0.032 C 
ATOM     25  C   UNL     1      -3.958   0.386  24.271  0.00  0.00    +0.152 C 
ATOM     26  O   UNL     1      -3.339   0.169  23.771  0.00  0.00    -0.223 OA
ENDROOT
BRANCH  10  11
ATOM     11  N   UNL     1      -3.369   3.143  23.804  0.00  0.00    -0.189 NA
ATOM     12  C   UNL     1      -2.792   3.546  24.233  0.00  0.00    +0.343 C 
ATOM     13  O   UNL     1      -2.670   3.368  25.031  0.00  0.00    -0.249 OA
ATOM     14  N   UNL     1      -2.335   4.128  23.867  0.00  0.00    -0.161 NA
BRANCH  14  15
ATOM     15  C   UNL     1      -1.758   4.531  24.296  0.00  0.00    +0.077 A 
ATOM     16  C   UNL     1      -1.010   4.195  24.398  0.00  0.00    +0.017 A 
ATOM     17  C   UNL     1      -0.432   4.599  24.828  0.00  0.00    +0.004 A 
ATOM     18  C   UNL     1      -0.601   5.336  25.155  0.00  0.00    +0.030 A 
ATOM     19  C   UNL     1      -1.349   5.672  25.053  0.00  0.00    +0.141 A 
ATOM     20  F   UNL     1      -1.518   6.410  25.381  0.00  0.00    -0.204 F 
ATOM     21  C   UNL     1      -1.926   5.269  24.624  0.00  0.00    +0.046 A 
ENDBRANCH  14  15
ENDBRANCH  10  11
BRANCH   3   2
ATOM      1  C   UNL     1      -4.485  -1.350  23.797  0.00  0.00    +0.010 C 
ATOM      2  C   UNL     1      -4.253  -0.993  24.504  0.00  0.00    +0.079 C 
BRANCH   2  27
ATOM     27  C   UNL     1      -3.858  -1.434  25.078  0.00  0.00    +0.225 C 
ATOM     28  O   UNL     1      -3.716  -1.109  25.823  0.00  0.00    -0.275 OA
ATOM     29  N   UNL     1      -3.606  -2.202  24.908  0.00  0.00    -0.280 N 
ATOM     30  C   UNL     1      -3.207  -2.706  25.424  0.00  0.00    +0.093 C 
ATOM     31  C   UNL     1      -3.063  -3.415  25.027  0.00  0.00    +0.023 C 
ATOM     32  C   UNL     1      -3.373  -3.348  24.266  0.00  0.00    +0.023 C 
ATOM     33  C   UNL     1      -3.709  -2.598  24.192  0.00  0.00    +0.093 C 
ENDBRANCH   2  27
ENDBRANCH   3   2
TORSDOF 4
ENDMDL
MODEL 6
REMARK VINA RESULT:     -11.6      3.896      4.869
REMARK  Name = 
REMARK  4 active torsions:
REMARK  status: ('A' for Active; 'I' for Inactive)
REMARK    1  A    between atoms: C_2  and  C_3
REMARK    2  A    between atoms: C_2  and  C_27
REMARK    3  A    between atoms: C_10  and  N_11
REMARK    4  A    between atoms: N_14  and  C_15
REMARK                            x       y       z     vdW  Elec       q    Type
REMARK                         _______ _______ _______ _____ _____    ______ ____
ROOT
ATOM      3  C   UNL     1      -2.425   2.322  24.554  0.00  0.00    +0.039 C 
ATOM      4  C   UNL     1      -2.084   2.655  25.229  0.00  0.00    +0.003 C 
ATOM      5  C   UNL     1      -1.292   2.509  25.405  0.00  0.00    +0.000 C 
ATOM      6  C   UNL     1      -0.840   2.032  24.907  0.00  0.00    +0.002 C 
ATOM      7  C   UNL     1      -0.500   2.364  25.580  0.00  0.00    +0.000 C 
ATOM      8  C   UNL     1      -0.047   1.885  25.083  0.00  0.00    +0.002 C 
ATOM      9  C   UNL     1       0.405   1.408  24.586  0.00  0.00    +0.022 C 
ATOM     10  C   UNL     1       0.064   1.075  23.911  0.00  0.00    +0.097 C 
ATOM     22  C   UNL     1      -0.728   1.221  23.735  0.00  0.00    +0.023 C 
ATOM     23  C   UNL     1      -1.069   0.888  23.061  0.00  0.00    +0.002 C 
ATOM     24  C   UNL     1      -1.181   1.699  24.233  0.00  0.00    +0.032 C 
ATOM     25  C   UNL     1      -1.973   1.844  24.057  0.00  0.00    +0.152 C 
ATOM     26  O   UNL     1      -2.314   1.512  23.383  0.00  0.00    -0.223 OA
ENDROOT
BRANCH  10  11
ATOM     11  N   UNL     1       0.516   0.597  23.413  0.00  0.00    -0.189 NA
ATOM     12  C   UNL     1       1.337   0.675  23.399  0.00  0.00    +0.343 C 
ATOM     13  O   UNL     1       1.706   1.233  23.884  0.00  0.00    -0.249 OA
ATOM     14  N   UNL     1       1.789   0.197  22.902  0.00  0.00    -0.161 NA
BRANCH  14  15
ATOM     15  C   UNL     1       2.610   0.276  22.888  0.00  0.00    +0.077 A 
ATOM     16  C   UNL     1       2.954   0.958  22.573  0.00  0.00    +0.017 A 
ATOM     17  C   UNL     1       3.775   1.036  22.559  0.00  0.00    +0.004 A 
ATOM     18  C   UNL     1       4.253   0.435  22.859  0.00  0.00    +0.030 A 
ATOM     19  C   UNL     1       3.908  -0.247  23.174  0.00  0.00    +0.141 A 
ATOM     20  F   UNL     1       4.387  -0.849  23.475  0.00  0.00    -0.204 F 
ATOM     21  C   UNL     1       3.088  -0.326  23.188  0.00  0.00    +0.046 A 
ENDBRANCH  14  15
ENDBRANCH  10  11
BRANCH   3   2
ATOM      1  C   UNL     1      -3.418   2.945  23.736  0.00  0.00    +0.010 C 
ATOM      2  C   UNL     1      -3.218   2.468  24.379  0.00  0.00    +0.079 C 
BRANCH   2  27
ATOM     27  C   UNL     1      -3.811   2.137  24.847  0.00  0.00    +0.225 C 
ATOM     28  O   UNL     1      -3.786   1.334  25.038  0.00  0.00    -0.275 OA
ATOM     29  N   UNL     1      -4.430   2.608  25.123  0.00  0.00    -0.280 N 
ATOM     30  C   UNL     1      -5.059   2.356  25.593  0.00  0.00    +0.093 C 
ATOM     31  C   UNL     1      -5.546   3.005  25.739  0.00  0.00    +0.023 C 
ATOM     32  C   UNL     1      -5.217   3.659  25.358  0.00  0.00    +0.023 C 
ATOM     33  C   UNL     1      -4.528   3.414  24.977  0.00  0.00    +0.093 C 
ENDBRANCH   2  27
ENDBRANCH   3   2
TORSDOF 4
ENDMDL
MODEL 7
REMARK VINA RESULT:     -11.6      2.431      3.373
REMARK  Name = 
REMARK  4 active torsions:
REMARK  status: ('A' for Active; 'I' for Inactive)
REMARK    1  A    between atoms: C_2  and  C_3
REMARK    2  A    between atoms: C_2  and  C_27
REMARK    3  A    between atoms: C_10  and  N_11
REMARK    4  A    between atoms: N_14  and  C_15
REMARK                            x       y       z     vdW  Elec       q    Type
REMARK                         _______ _______ _______ _____ _____    ______ ____
ROOT
ATOM      3  C   UNL     1      -0.157   2.242  24.992  0.00  0.00    +0.039 C 
ATOM      4  C   UNL     1       0.330   2.135  24.333  0.00  0.00    +0.003 C 
ATOM      5  C   UNL     1       0.378   1.396  23.971  0.00  0.00    +0.000 C 
ATOM      6  C   UNL     1      -0.061   0.764  24.266  0.00  0.00    +0.002 C 
ATOM      7  C   UNL     1       0.425   0.658  23.609  0.00  0.00    +0.000 C 
ATOM      8  C   UNL     1      -0.014   0.024  23.903  0.00  0.00    +0.002 C 
ATOM      9  C   UNL     1      -0.453  -0.609  24.198  0.00  0.00    +0.022 C 
ATOM     10  C   UNL     1      -0.940  -0.502  24.856  0.00  0.00    +0.097 C 
ATOM     22  C   UNL     1      -0.987   0.237  25.219  0.00  0.00    +0.023 C 
ATOM     23  C   UNL     1      -1.474   0.343  25.876  0.00  0.00    +0.002 C 
ATOM     24  C   UNL     1      -0.548   0.870  24.924  0.00  0.00    +0.032 C 
ATOM     25  C   UNL     1      -0.596   1.609  25.286  0.00  0.00    +0.152 C 
ATOM     26  O   UNL     1      -1.082   1.716  25.944  0.00  0.00    -0.223 OA
ENDROOT
BRANCH  10  11
ATOM     11  N   UNL     1      -1.379  -1.136  25.151  0.00  0.00    -0.189 NA
ATOM     12  C   UNL     1      -2.027  -1.421  24.728  0.00  0.00    +0.343 C 
ATOM     13  O   UNL     1      -2.237  -1.073  24.009  0.00  0.00    -0.249 OA
ATOM     14  N   UNL     1      -2.466  -2.055  25.023  0.00  0.00    -0.161 NA
BRANCH  14  15
ATOM     15  C   UNL     1      -3.114  -2.340  24.600  0.00  0.00    +0.077 A 
ATOM     16  C   UNL     1      -3.111  -3.114  24.313  0.00  0.00    +0.017 A 
ATOM     17  C   UNL     1      -3.759  -3.399  23.890  0.00  0.00    +0.004 A 
ATOM     18  C   UNL     1      -4.410  -2.913  23.754  0.00  0.00    +0.030 A 
ATOM     19  C   UNL     1      -4.414  -2.138  24.042  0.00  0.00    +0.141 A 
ATOM     20  F   UNL     1      -5.066  -1.651  23.906  0.00  0.00    -0.204 F 
ATOM     21  C   UNL     1      -3.766  -1.853  24.465  0.00  0.00    +0.046 A 
ENDBRANCH  14  15
ENDBRANCH  10  11
BRANCH   3   2
ATOM      1  C   UNL     1      -0.124   3.048  26.173  0.00  0.00    +0.010 C 
ATOM      2  C   UNL     1      -0.204   2.982  25.354  0.00  0.00    +0.079 C 
BRANCH   2  27
ATOM     27  C   UNL     1      -0.331   3.657  24.897  0.00  0.00    +0.225 C 
ATOM     28  O   UNL     1       0.159   3.817  24.252  0.00  0.00    -0.275 OA
ATOM     29  N   UNL     1      -0.947   4.173  25.085  0.00  0.00    -0.280 N 
ATOM     30  C   UNL     1      -1.140   4.865  24.681  0.00  0.00    +0.093 C 
ATOM     31  C   UNL     1      -1.791   5.207  25.056  0.00  0.00    +0.023 C 
ATOM     32  C   UNL     1      -2.000   4.724  25.692  0.00  0.00    +0.023 C 
ATOM     33  C   UNL     1      -1.478   4.085  25.710  0.00  0.00    +0.093 C 
ENDBRANCH   2  27
ENDBRANCH   3   2
TORSDOF 4
ENDMDL
MODEL 8
REMARK VINA RESULT:     -11.2      4.386      6.111
REMARK  Name = 
REMARK  4 active torsions:
REMARK  status: ('A' for Active; 'I' for Inactive)
REMARK    1  A    between atoms: C_2  and  C_3
REMARK    2  A    between atoms: C_2  and  C_27
REMARK    3  A    between atoms: C_10  and  N_11
REMARK    4  A    between atoms: N_14  and  C_15
REMARK                            x       y       z     vdW  Elec       q    Type
REMARK                         _______ _______ _______ _____ _____    ______ ____
ROOT
ATOM      3  C   UNL     1      -1.700   0.040  24.839  0.00  0.00    +0.039 C 
ATOM      4  C   UNL     1      -1.706   0.827  25.091  0.00  0.00    +0.003 C 
ATOM      5  C   UNL     1      -1.104   1.339  24.857  0.00  0.00    +0.000 C 
ATOM      6  C   UNL     1      -0.497   1.068  24.370  0.00  0.00    +0.002 C 
ATOM      7  C   UNL     1      -0.503   1.852  24.622  0.00  0.00    +0.000 C 
ATOM      8  C   UNL     1       0.105   1.581  24.135  0.00  0.00    +0.002 C 
ATOM      9  C   UNL     1       0.712   1.309  23.648  0.00  0.00    +0.022 C 
ATOM     10  C   UNL     1       0.718   0.522  23.396  0.00  0.00    +0.097 C 
ATOM     22  C   UNL     1       0.117   0.010  23.630  0.00  0.00    +0.023 C 
ATOM     23  C   UNL     1       0.123  -0.776  23.378  0.00  0.00    +0.002 C 
ATOM     24  C   UNL     1      -0.491   0.281  24.117  0.00  0.00    +0.032 C 
ATOM     25  C   UNL     1      -1.093  -0.231  24.352  0.00  0.00    +0.152 C 
ATOM     26  O   UNL     1      -1.087  -1.017  24.100  0.00  0.00    -0.223 OA
ENDROOT
BRANCH  10  11
ATOM     11  N   UNL     1       1.326   0.251  22.908  0.00  0.00    -0.189 NA
ATOM     12  C   UNL     1       2.113   0.370  23.124  0.00  0.00    +0.343 C 
ATOM     13  O   UNL     1       2.293   0.761  23.829  0.00  0.00    -0.249 OA
ATOM     14  N   UNL     1       2.721   0.098  22.637  0.00  0.00    -0.161 NA
BRANCH  14  15
ATOM     15  C   UNL     1       3.508   0.217  22.853  0.00  0.00    +0.077 A 
ATOM     16  C   UNL     1       3.881   0.932  22.675  0.00  0.00    +0.017 A 
ATOM     17  C   UNL     1       4.668   1.051  22.892  0.00  0.00    +0.004 A 
ATOM     18  C   UNL     1       5.083   0.457  23.285  0.00  0.00    +0.030 A 
ATOM     19  C   UNL     1       4.709  -0.258  23.463  0.00  0.00    +0.141 A 
ATOM     20  F   UNL     1       5.125  -0.853  23.856  0.00  0.00    -0.204 F 
ATOM     21  C   UNL     1       3.923  -0.378  23.247  0.00  0.00    +0.046 A 
ENDBRANCH  14  15
ENDBRANCH  10  11
BRANCH   3   2
ATOM      1  C   UNL     1      -2.151  -1.057  25.637  0.00  0.00    +0.010 C 
ATOM      2  C   UNL     1      -2.302  -0.473  25.074  0.00  0.00    +0.079 C 
BRANCH   2  27
ATOM     27  C   UNL     1      -3.056  -0.401  24.746  0.00  0.00    +0.225 C 
ATOM     28  O   UNL     1      -3.389   0.346  24.636  0.00  0.00    -0.275 OA
ATOM     29  N   UNL     1      -3.477  -1.077  24.527  0.00  0.00    -0.280 N 
ATOM     30  C   UNL     1      -4.231  -1.091  24.195  0.00  0.00    +0.093 C 
ATOM     31  C   UNL     1      -4.438  -1.879  24.065  0.00  0.00    +0.023 C 
ATOM     32  C   UNL     1      -3.810  -2.351  24.318  0.00  0.00    +0.023 C 
ATOM     33  C   UNL     1      -3.216  -1.855  24.604  0.00  0.00    +0.093 C 
ENDBRANCH   2  27
ENDBRANCH   3   2
TORSDOF 4
ENDMDL
