REMARK  Name = 
REMARK  6 active torsions:
REMARK  status: ('A' for Active; 'I' for Inactive)
REMARK    1  A    between atoms: N_2  and  C_4
REMARK    2  A    between atoms: C_7  and  C_10
REMARK    3  A    between atoms: N_12  and  C_13
REMARK    4  A    between atoms: C_17  and  O_21
REMARK    5  A    between atoms: O_21  and  C_22
REMARK    6  A    between atoms: N_24  and  C_25
REMARK                            x       y       z     vdW  Elec       q    Type
REMARK                         _______ _______ _______ _____ _____    ______ ____
ROOT
ATOM     13  C   UNL     1      -2.059  -4.067   0.000  0.00  0.00    +0.155 C 
ATOM     14  C   UNL     1      -1.973  -3.247   0.000  0.00  0.00    +0.166 C 
ATOM     15  O   UNL     1      -1.166  -3.075   0.000  0.00  0.00    -0.348 OA
ATOM     16  C   UNL     1      -0.754  -3.789   0.000  0.00  0.00    +0.186 C 
ATOM     17  C   UNL     1       0.000  -4.125   0.000  0.00  0.00    +0.229 C 
ATOM     18  C   UNL     1      -0.086  -4.946   0.000  0.00  0.00    +0.188 C 
ATOM     19  O   UNL     1      -0.893  -5.117   0.000  0.00  0.00    -0.348 OA
ATOM     20  C   UNL     1      -1.306  -4.402   0.000  0.00  0.00    +0.168 C 
ENDROOT
BRANCH  13  12
ATOM     10  C   UNL     1      -3.488  -4.067   0.000  0.00  0.00    +0.265 C 
ATOM     11  O   UNL     1      -3.488  -3.242   0.000  0.00  0.00    -0.268 OA
ATOM     12  N   UNL     1      -2.774  -4.479   0.000  0.00  0.00    -0.198 NA
BRANCH  10   7
ATOM      4  C   UNL     1      -5.632  -5.304   0.000  0.00  0.00    +0.048 A 
ATOM      5  C   UNL     1      -5.632  -4.479   0.000  0.00  0.00    +0.015 A 
ATOM      6  C   UNL     1      -4.917  -4.067   0.000  0.00  0.00    +0.006 A 
ATOM      7  C   UNL     1      -4.203  -4.479   0.000  0.00  0.00    +0.055 A 
ATOM      8  C   UNL     1      -4.203  -5.304   0.000  0.00  0.00    +0.006 A 
ATOM      9  C   UNL     1      -4.917  -5.717   0.000  0.00  0.00    +0.015 A 
BRANCH   4   2
ATOM      1  C   UNL     1      -6.346  -6.542   0.000  0.00  0.00    +0.112 C 
ATOM      2  N   UNL     1      -6.346  -5.717   0.000  0.00  0.00    -0.304 N 
ATOM      3  C   UNL     1      -7.061  -5.304   0.000  0.00  0.00    +0.112 C 
ENDBRANCH   4   2
ENDBRANCH  10   7
ENDBRANCH  13  12
BRANCH  17  21
ATOM     21  O   UNL     1       0.715  -3.712   0.000  0.00  0.00    -0.432 OA
BRANCH  21  22
ATOM     22  C   UNL     1       0.715  -2.888   0.000  0.00  0.00    +0.425 C 
ATOM     23  O   UNL     1       0.000  -2.475   0.000  0.00  0.00    -0.224 OA
ATOM     24  N   UNL     1       1.429  -2.475   0.000  0.00  0.00    -0.142 NA
BRANCH  24  25
ATOM     25  C   UNL     1       1.429  -1.650   0.000  0.00  0.00    +0.077 A 
ATOM     26  C   UNL     1       0.715  -1.238   0.000  0.00  0.00    +0.017 A 
ATOM     27  C   UNL     1       0.715  -0.412   0.000  0.00  0.00    +0.001 A 
ATOM     28  C   UNL     1       1.429   0.000   0.000  0.00  0.00    +0.000 A 
ATOM     29  C   UNL     1       2.143  -0.412   0.000  0.00  0.00    +0.001 A 
ATOM     30  C   UNL     1       2.858   0.000   0.000  0.00  0.00    +0.000 A 
ATOM     31  C   UNL     1       3.572  -0.412   0.000  0.00  0.00    +0.000 A 
ATOM     32  C   UNL     1       3.572  -1.238   0.000  0.00  0.00    +0.000 A 
ATOM     33  C   UNL     1       2.858  -1.650   0.000  0.00  0.00    +0.001 A 
ATOM     34  C   UNL     1       2.143  -1.238   0.000  0.00  0.00    +0.015 A 
ENDBRANCH  24  25
ENDBRANCH  21  22
ENDBRANCH  17  21
TORSDOF 6
