MODEL 1
REMARK VINA RESULT:     -11.1      0.000      0.000
REMARK  Name = 
REMARK  8 active torsions:
REMARK  status: ('A' for Active; 'I' for Inactive)
REMARK    1  A    between atoms: O_2  and  C_3
REMARK    2  A    between atoms: C_3  and  C_4
REMARK    3  A    between atoms: C_4  and  O_5
REMARK    4  A    between atoms: O_5  and  C_6
REMARK    5  A    between atoms: C_7  and  C_12
REMARK    6  A    between atoms: C_15  and  C_17
REMARK    7  A    between atoms: N_21  and  C_22
REMARK    8  A    between atoms: C_22  and  C_23
REMARK                            x       y       z     vdW  Elec       q    Type
REMARK                         _______ _______ _______ _____ _____    ______ ____
ROOT
ATOM     12  C   UNL     1      -2.827   3.109  24.522  0.00  0.00    +0.208 A 
ATOM     13  N   UNL     1      -3.144   3.052  23.762  0.00  0.00    -0.056 NA
ATOM     14  O   UNL     1      -3.791   2.541  23.793  0.00  0.00    -0.336 OA
ATOM     15  C   UNL     1      -3.875   2.283  24.573  0.00  0.00    +0.251 A 
ATOM     16  N   UNL     1      -3.278   2.635  25.022  0.00  0.00    -0.189 NA
ENDROOT
BRANCH  12   7
ATOM      6  C   UNL     1      -1.413   3.250  24.670  0.00  0.00    +0.228 A 
ATOM      7  C   UNL     1      -2.173   3.562  24.741  0.00  0.00    +0.092 A 
ATOM      8  C   UNL     1      -2.280   4.326  25.032  0.00  0.00    +0.009 A 
ATOM      9  C   UNL     1      -1.626   4.779  25.252  0.00  0.00    +0.021 A 
ATOM     10  C   UNL     1      -0.866   4.468  25.181  0.00  0.00    +0.102 A 
ATOM     11  N   UNL     1      -0.759   3.703  24.889  0.00  0.00    -0.210 NA
BRANCH   6   5
ATOM      5  O   UNL     1      -1.306   2.486  24.379  0.00  0.00    -0.457 OA
BRANCH   5   4
ATOM      4  C   UNL     1      -0.568   2.121  24.436  0.00  0.00    +0.239 C 
BRANCH   4   3
ATOM      3  C   UNL     1      -0.408   1.441  23.999  0.00  0.00    +0.189 C 
BRANCH   3   2
ATOM      1  C   UNL     1      -0.063   0.055  23.948  0.00  0.00    +0.174 C 
ATOM      2  O   UNL     1      -0.210   0.739  24.384  0.00  0.00    -0.347 OA
ENDBRANCH   3   2
ENDBRANCH   4   3
ENDBRANCH   5   4
ENDBRANCH   6   5
ENDBRANCH  12   7
BRANCH  15  17
ATOM     17  C   UNL     1      -4.452   1.766  24.853  0.00  0.00    +0.138 C 
ATOM     18  C   UNL     1      -5.155   1.981  25.229  0.00  0.00    +0.027 C 
ATOM     19  C   UNL     1      -5.566   1.290  25.415  0.00  0.00    +0.019 C 
ATOM     20  C   UNL     1      -5.117   0.648  25.155  0.00  0.00    +0.073 C 
ATOM     21  N   UNL     1      -4.429   0.942  24.808  0.00  0.00    -0.263 NA
BRANCH  21  22
ATOM     22  C   UNL     1      -3.824   0.492  24.474  0.00  0.00    +0.099 C 
BRANCH  22  23
ATOM     23  C   UNL     1      -3.817  -0.327  24.571  0.00  0.00    -0.006 A 
ATOM     24  C   UNL     1      -4.136  -0.815  23.987  0.00  0.00    -0.003 A 
ATOM     25  C   UNL     1      -4.129  -1.634  24.085  0.00  0.00    -0.000 A 
ATOM     26  C   UNL     1      -3.803  -1.965  24.766  0.00  0.00    -0.000 A 
ATOM     27  C   UNL     1      -3.484  -1.478  25.351  0.00  0.00    -0.000 A 
ATOM     28  C   UNL     1      -3.491  -0.658  25.253  0.00  0.00    -0.003 A 
ENDBRANCH  22  23
ENDBRANCH  21  22
ENDBRANCH  15  17
TORSDOF 8
ENDMDL
MODEL 2
REMARK VINA RESULT:     -10.6      1.401      2.924
REMARK  Name = 
REMARK  8 active torsions:
REMARK  status: ('A' for Active; 'I' for Inactive)
REMARK    1  A    between atoms: O_2  and  C_3
REMARK    2  A    between atoms: C_3  and  C_4
REMARK    3  A    between atoms: C_4  and  O_5
REMARK    4  A    between atoms: O_5  and  C_6
REMARK    5  A    between atoms: C_7  and  C_12
REMARK    6  A    between atoms: C_15  and  C_17
REMARK    7  A    between atoms: N_21  and  C_22
REMARK    8  A    between atoms: C_22  and  C_23
REMARK                            x       y       z     vdW  Elec       q    Type
REMARK                         _______ _______ _______ _____ _____    ______ ____
ROOT
ATOM     12  C   UNL     1      -3.735   2.064  24.533  0.00  0.00    +0.208 A 
ATOM     13  N   UNL     1      -3.619   2.009  23.718  0.00  0.00    -0.056 NA
ATOM     14  O   UNL     1      -3.094   1.388  23.576  0.00  0.00    -0.336 OA
ATOM     15  C   UNL     1      -2.885   1.060  24.304  0.00  0.00    +0.251 A 
ATOM     16  N   UNL     1      -3.281   1.478  24.895  0.00  0.00    -0.189 NA
ENDROOT
BRANCH  12   7
ATOM      6  C   UNL     1      -3.898   3.313  25.207  0.00  0.00    +0.228 A 
ATOM      7  C   UNL     1      -4.219   2.610  24.918  0.00  0.00    +0.092 A 
ATOM      8  C   UNL     1      -5.022   2.452  25.014  0.00  0.00    +0.009 A 
ATOM      9  C   UNL     1      -5.507   2.998  25.399  0.00  0.00    +0.021 A 
ATOM     10  C   UNL     1      -5.187   3.701  25.688  0.00  0.00    +0.102 A 
ATOM     11  N   UNL     1      -4.382   3.859  25.592  0.00  0.00    -0.210 NA
BRANCH   6   5
ATOM      5  O   UNL     1      -3.095   3.471  25.111  0.00  0.00    -0.457 OA
BRANCH   5   4
ATOM      4  C   UNL     1      -2.781   4.189  25.369  0.00  0.00    +0.239 C 
BRANCH   4   3
ATOM      3  C   UNL     1      -1.966   4.312  25.355  0.00  0.00    +0.189 C 
BRANCH   3   2
ATOM      1  C   UNL     1      -0.925   5.209  24.963  0.00  0.00    +0.174 C 
ATOM      2  O   UNL     1      -1.665   5.079  25.303  0.00  0.00    -0.347 OA
ENDBRANCH   3   2
ENDBRANCH   4   3
ENDBRANCH   5   4
ENDBRANCH   6   5
ENDBRANCH  12   7
BRANCH  15  17
ATOM     17  C   UNL     1      -2.371   0.425  24.420  0.00  0.00    +0.138 C 
ATOM     18  C   UNL     1      -1.547   0.455  24.377  0.00  0.00    +0.027 C 
ATOM     19  C   UNL     1      -1.257  -0.303  24.530  0.00  0.00    +0.019 C 
ATOM     20  C   UNL     1      -1.901  -0.799  24.669  0.00  0.00    +0.073 C 
ATOM     21  N   UNL     1      -2.590  -0.349  24.601  0.00  0.00    -0.263 NA
BRANCH  21  22
ATOM     22  C   UNL     1      -3.361  -0.626  24.696  0.00  0.00    +0.099 C 
BRANCH  22  23
ATOM     23  C   UNL     1      -3.529  -1.426  24.586  0.00  0.00    -0.006 A 
ATOM     24  C   UNL     1      -3.329  -1.974  25.171  0.00  0.00    -0.003 A 
ATOM     25  C   UNL     1      -3.497  -2.773  25.061  0.00  0.00    -0.000 A 
ATOM     26  C   UNL     1      -3.864  -3.027  24.367  0.00  0.00    -0.000 A 
ATOM     27  C   UNL     1      -4.064  -2.480  23.783  0.00  0.00    -0.000 A 
ATOM     28  C   UNL     1      -3.895  -1.679  23.893  0.00  0.00    -0.003 A 
ENDBRANCH  22  23
ENDBRANCH  21  22
ENDBRANCH  15  17
TORSDOF 8
ENDMDL
MODEL 3
REMARK VINA RESULT:     -10.5      1.222      2.956
REMARK  Name = 
REMARK  8 active torsions:
REMARK  status: ('A' for Active; 'I' for Inactive)
REMARK    1  A    between atoms: O_2  and  C_3
REMARK    2  A    between atoms: C_3  and  C_4
REMARK    3  A    between atoms: C_4  and  O_5
REMARK    4  A    between atoms: O_5  and  C_6
REMARK    5  A    between atoms: C_7  and  C_12
REMARK    6  A    between atoms: C_15  and  C_17
REMARK    7  A    between atoms: N_21  and  C_22
REMARK    8  A    between atoms: C_22  and  C_23
REMARK                            x       y       z     vdW  Elec       q    Type
REMARK                         _______ _______ _______ _____ _____    ______ ____
ROOT
ATOM     12  C   UNL     1      -1.554   2.534  24.328  0.00  0.00    +0.208 A 
ATOM     13  N   UNL     1      -1.774   2.346  23.555  0.00  0.00    -0.056 NA
ATOM     14  O   UNL     1      -1.637   1.540  23.439  0.00  0.00    -0.336 OA
ATOM     15  C   UNL     1      -1.332   1.231  24.141  0.00  0.00    +0.251 A 
ATOM     16  N   UNL     1      -1.281   1.845  24.690  0.00  0.00    -0.189 NA
ENDROOT
BRANCH  12   7
ATOM      6  C   UNL     1      -2.322   3.557  24.964  0.00  0.00    +0.228 A 
ATOM      7  C   UNL     1      -1.600   3.280  24.677  0.00  0.00    +0.092 A 
ATOM      8  C   UNL     1      -0.924   3.748  24.738  0.00  0.00    +0.009 A 
ATOM      9  C   UNL     1      -0.969   4.494  25.088  0.00  0.00    +0.021 A 
ATOM     10  C   UNL     1      -1.690   4.772  25.375  0.00  0.00    +0.102 A 
ATOM     11  N   UNL     1      -2.367   4.303  25.313  0.00  0.00    -0.210 NA
BRANCH   6   5
ATOM      5  O   UNL     1      -2.998   3.089  24.903  0.00  0.00    -0.457 OA
BRANCH   5   4
ATOM      4  C   UNL     1      -3.702   3.331  25.260  0.00  0.00    +0.239 C 
BRANCH   4   3
ATOM      3  C   UNL     1      -4.412   2.963  25.061  0.00  0.00    +0.189 C 
BRANCH   3   2
ATOM      1  C   UNL     1      -5.617   2.307  25.462  0.00  0.00    +0.174 C 
ATOM      2  O   UNL     1      -4.940   2.736  25.654  0.00  0.00    -0.347 OA
ENDBRANCH   3   2
ENDBRANCH   4   3
ENDBRANCH   5   4
ENDBRANCH   6   5
ENDBRANCH  12   7
BRANCH  15  17
ATOM     17  C   UNL     1      -1.116   0.445  24.271  0.00  0.00    +0.138 C 
ATOM     18  C   UNL     1      -0.356   0.132  24.194  0.00  0.00    +0.027 C 
ATOM     19  C   UNL     1      -0.393  -0.672  24.377  0.00  0.00    +0.019 C 
ATOM     20  C   UNL     1      -1.174  -0.855  24.565  0.00  0.00    +0.073 C 
ATOM     21  N   UNL     1      -1.622  -0.165  24.500  0.00  0.00    -0.263 NA
BRANCH  21  22
ATOM     22  C   UNL     1      -2.432  -0.098  24.639  0.00  0.00    +0.099 C 
BRANCH  22  23
ATOM     23  C   UNL     1      -2.892  -0.775  24.733  0.00  0.00    -0.006 A 
ATOM     24  C   UNL     1      -2.943  -1.141  25.472  0.00  0.00    -0.003 A 
ATOM     25  C   UNL     1      -3.403  -1.818  25.566  0.00  0.00    -0.000 A 
ATOM     26  C   UNL     1      -3.813  -2.131  24.922  0.00  0.00    -0.000 A 
ATOM     27  C   UNL     1      -3.763  -1.766  24.184  0.00  0.00    -0.000 A 
ATOM     28  C   UNL     1      -3.302  -1.088  24.090  0.00  0.00    -0.003 A 
ENDBRANCH  22  23
ENDBRANCH  21  22
ENDBRANCH  15  17
TORSDOF 8
ENDMDL
MODEL 4
REMARK VINA RESULT:     -10.3      1.205      4.081
REMARK  Name = 
REMARK  8 active torsions:
REMARK  status: ('A' for Active; 'I' for Inactive)
REMARK    1  A    between atoms: O_2  and  C_3
REMARK    2  A    between atoms: C_3  and  C_4
REMARK    3  A    between atoms: C_4  and  O_5
REMARK    4  A    between atoms: O_5  and  C_6
REMARK    5  A    between atoms: C_7  and  C_12
REMARK    6  A    between atoms: C_15  and  C_17
REMARK    7  A    between atoms: N_21  and  C_22
REMARK    8  A    between atoms: C_22  and  C_23
REMARK                            x       y       z     vdW  Elec       q    Type
REMARK                         _______ _______ _______ _____ _____    ______ ____
ROOT
ATOM     12  C   UNL     1      -3.654  -0.266  24.340  0.00  0.00    +0.208 A 
ATOM     13  N   UNL     1      -3.712   0.108  23.607  0.00  0.00    -0.056 NA
ATOM     14  O   UNL     1      -3.997   0.872  23.732  0.00  0.00    -0.336 OA
ATOM     15  C   UNL     1      -4.116   0.970  24.542  0.00  0.00    +0.251 A 
ATOM     16  N   UNL     1      -3.904   0.267  24.918  0.00  0.00    -0.189 NA
ENDROOT
BRANCH  12   7
ATOM      6  C   UNL     1      -2.588  -1.188  24.570  0.00  0.00    +0.228 A 
ATOM      7  C   UNL     1      -3.393  -1.037  24.472  0.00  0.00    +0.092 A 
ATOM      8  C   UNL     1      -3.936  -1.657  24.504  0.00  0.00    +0.009 A 
ATOM      9  C   UNL     1      -3.675  -2.428  24.636  0.00  0.00    +0.021 A 
ATOM     10  C   UNL     1      -2.870  -2.580  24.735  0.00  0.00    +0.102 A 
ATOM     11  N   UNL     1      -2.326  -1.960  24.702  0.00  0.00    -0.210 NA
BRANCH   6   5
ATOM      5  O   UNL     1      -2.044  -0.569  24.537  0.00  0.00    -0.457 OA
BRANCH   5   4
ATOM      4  C   UNL     1      -1.235  -0.729  24.542  0.00  0.00    +0.239 C 
BRANCH   4   3
ATOM      3  C   UNL     1      -0.693  -0.114  24.628  0.00  0.00    +0.189 C 
BRANCH   3   2
ATOM      1  C   UNL     1       0.196   0.811  23.999  0.00  0.00    +0.174 C 
ATOM      2  O   UNL     1      -0.188   0.082  24.005  0.00  0.00    -0.347 OA
ENDBRANCH   3   2
ENDBRANCH   4   3
ENDBRANCH   5   4
ENDBRANCH   6   5
ENDBRANCH  12   7
BRANCH  15  17
ATOM     17  C   UNL     1      -4.397   1.652  24.913  0.00  0.00    +0.138 C 
ATOM     18  C   UNL     1      -5.140   1.743  25.261  0.00  0.00    +0.027 C 
ATOM     19  C   UNL     1      -5.187   2.510  25.563  0.00  0.00    +0.019 C 
ATOM     20  C   UNL     1      -4.474   2.891  25.402  0.00  0.00    +0.073 C 
ATOM     21  N   UNL     1      -3.985   2.361  25.000  0.00  0.00    -0.263 NA
BRANCH  21  22
ATOM     22  C   UNL     1      -3.220   2.514  24.733  0.00  0.00    +0.099 C 
BRANCH  22  23
ATOM     23  C   UNL     1      -2.803   3.163  25.025  0.00  0.00    -0.006 A 
ATOM     24  C   UNL     1      -2.899   3.906  24.679  0.00  0.00    -0.003 A 
ATOM     25  C   UNL     1      -2.482   4.554  24.971  0.00  0.00    -0.000 A 
ATOM     26  C   UNL     1      -1.969   4.461  25.609  0.00  0.00    -0.000 A 
ATOM     27  C   UNL     1      -1.872   3.718  25.957  0.00  0.00    -0.000 A 
ATOM     28  C   UNL     1      -2.290   3.069  25.664  0.00  0.00    -0.003 A 
ENDBRANCH  22  23
ENDBRANCH  21  22
ENDBRANCH  15  17
TORSDOF 8
ENDMDL
MODEL 5
REMARK VINA RESULT:     -10.0      1.420      5.037
REMARK  Name = 
REMARK  8 active torsions:
REMARK  status: ('A' for Active; 'I' for Inactive)
REMARK    1  A    between atoms: O_2  and  C_3
REMARK    2  A    between atoms: C_3  and  C_4
REMARK    3  A    between atoms: C_4  and  O_5
REMARK    4  A    between atoms: O_5  and  C_6
REMARK    5  A    between atoms: C_7  and  C_12
REMARK    6  A    between atoms: C_15  and  C_17
REMARK    7  A    between atoms: N_21  and  C_22
REMARK    8  A    between atoms: C_22  and  C_23
REMARK                            x       y       z     vdW  Elec       q    Type
REMARK                         _______ _______ _______ _____ _____    ______ ____
ROOT
ATOM     12  C   UNL     1      -2.033   0.115  24.808  0.00  0.00    +0.208 A 
ATOM     13  N   UNL     1      -1.698   0.389  24.104  0.00  0.00    -0.056 NA
ATOM     14  O   UNL     1      -1.185   1.008  24.291  0.00  0.00    -0.336 OA
ATOM     15  C   UNL     1      -1.203   1.117  25.108  0.00  0.00    +0.251 A 
ATOM     16  N   UNL     1      -1.727   0.565  25.427  0.00  0.00    -0.189 NA
ENDROOT
BRANCH  12   7
ATOM      6  C   UNL     1      -3.385  -0.334  24.913  0.00  0.00    +0.228 A 
ATOM      7  C   UNL     1      -2.578  -0.500  24.877  0.00  0.00    +0.092 A 
ATOM      8  C   UNL     1      -2.315  -1.281  24.911  0.00  0.00    +0.009 A 
ATOM      9  C   UNL     1      -2.860  -1.897  24.981  0.00  0.00    +0.021 A 
ATOM     10  C   UNL     1      -3.668  -1.731  25.017  0.00  0.00    +0.102 A 
ATOM     11  N   UNL     1      -3.930  -0.949  24.983  0.00  0.00    -0.210 NA
BRANCH   6   5
ATOM      5  O   UNL     1      -3.648   0.447  24.879  0.00  0.00    -0.457 OA
BRANCH   5   4
ATOM      4  C   UNL     1      -4.443   0.622  25.014  0.00  0.00    +0.239 C 
BRANCH   4   3
ATOM      3  C   UNL     1      -4.737   1.370  24.833  0.00  0.00    +0.189 C 
BRANCH   3   2
ATOM      1  C   UNL     1      -5.634   2.436  25.156  0.00  0.00    +0.174 C 
ATOM      2  O   UNL     1      -5.186   1.784  25.389  0.00  0.00    -0.347 OA
ENDBRANCH   3   2
ENDBRANCH   4   3
ENDBRANCH   5   4
ENDBRANCH   6   5
ENDBRANCH  12   7
BRANCH  15  17
ATOM     17  C   UNL     1      -0.773   1.678  25.532  0.00  0.00    +0.138 C 
ATOM     18  C   UNL     1      -0.197   1.519  26.102  0.00  0.00    +0.027 C 
ATOM     19  C   UNL     1       0.089   2.241  26.383  0.00  0.00    +0.019 C 
ATOM     20  C   UNL     1      -0.310   2.845  25.988  0.00  0.00    +0.073 C 
ATOM     21  N   UNL     1      -0.843   2.497  25.462  0.00  0.00    -0.263 NA
BRANCH  21  22
ATOM     22  C   UNL     1      -1.355   2.899  24.956  0.00  0.00    +0.099 C 
BRANCH  22  23
ATOM     23  C   UNL     1      -1.479   3.709  25.051  0.00  0.00    -0.006 A 
ATOM     24  C   UNL     1      -2.146   3.980  25.454  0.00  0.00    -0.003 A 
ATOM     25  C   UNL     1      -2.269   4.789  25.549  0.00  0.00    -0.000 A 
ATOM     26  C   UNL     1      -1.727   5.329  25.241  0.00  0.00    -0.000 A 
ATOM     27  C   UNL     1      -1.059   5.058  24.838  0.00  0.00    -0.000 A 
ATOM     28  C   UNL     1      -0.936   4.248  24.743  0.00  0.00    -0.003 A 
ENDBRANCH  22  23
ENDBRANCH  21  22
ENDBRANCH  15  17
TORSDOF 8
ENDMDL
MODEL 6
REMARK VINA RESULT:      -9.5      1.962      3.655
REMARK  Name = 
REMARK  8 active torsions:
REMARK  status: ('A' for Active; 'I' for Inactive)
REMARK    1  A    between atoms: O_2  and  C_3
REMARK    2  A    between atoms: C_3  and  C_4
REMARK    3  A    between atoms: C_4  and  O_5
REMARK    4  A    between atoms: O_5  and  C_6
REMARK    5  A    between atoms: C_7  and  C_12
REMARK    6  A    between atoms: C_15  and  C_17
REMARK    7  A    between atoms: N_21  and  C_22
REMARK    8  A    between atoms: C_22  and  C_23
REMARK                            x       y       z     vdW  Elec       q    Type
REMARK                         _______ _______ _______ _____ _____    ______ ____
ROOT
ATOM     12  C   UNL     1      -1.411   0.593  24.814  0.00  0.00    +0.208 A 
ATOM     13  N   UNL     1      -1.095   1.300  25.099  0.00  0.00    -0.056 NA
ATOM     14  O   UNL     1      -1.539   1.922  24.787  0.00  0.00    -0.336 OA
ATOM     15  C   UNL     1      -2.129   1.599  24.310  0.00  0.00    +0.251 A 
ATOM     16  N   UNL     1      -2.050   0.778  24.327  0.00  0.00    -0.189 NA
ENDROOT
BRANCH  12   7
ATOM      6  C   UNL     1      -0.495  -0.476  24.570  0.00  0.00    +0.228 A 
ATOM      7  C   UNL     1      -1.136  -0.165  24.987  0.00  0.00    +0.092 A 
ATOM      8  C   UNL     1      -1.501  -0.612  25.576  0.00  0.00    +0.009 A 
ATOM      9  C   UNL     1      -1.226  -1.370  25.749  0.00  0.00    +0.021 A 
ATOM     10  C   UNL     1      -0.586  -1.682  25.333  0.00  0.00    +0.102 A 
ATOM     11  N   UNL     1      -0.220  -1.235  24.742  0.00  0.00    -0.210 NA
BRANCH   6   5
ATOM      5  O   UNL     1      -0.131  -0.030  23.980  0.00  0.00    -0.457 OA
BRANCH   5   4
ATOM      4  C   UNL     1       0.471  -0.362  23.523  0.00  0.00    +0.239 C 
BRANCH   4   3
ATOM      3  C   UNL     1       0.979   0.124  23.094  0.00  0.00    +0.189 C 
BRANCH   3   2
ATOM      1  C   UNL     1       2.233   0.101  22.407  0.00  0.00    +0.174 C 
ATOM      2  O   UNL     1       1.473  -0.200  22.518  0.00  0.00    -0.347 OA
ENDBRANCH   3   2
ENDBRANCH   4   3
ENDBRANCH   5   4
ENDBRANCH   6   5
ENDBRANCH  12   7
BRANCH  15  17
ATOM     17  C   UNL     1      -2.699   2.022  23.889  0.00  0.00    +0.138 C 
ATOM     18  C   UNL     1      -2.648   2.250  23.098  0.00  0.00    +0.027 C 
ATOM     19  C   UNL     1      -3.338   2.661  22.905  0.00  0.00    +0.019 C 
ATOM     20  C   UNL     1      -3.814   2.687  23.578  0.00  0.00    +0.073 C 
ATOM     21  N   UNL     1      -3.420   2.292  24.186  0.00  0.00    -0.263 NA
BRANCH  21  22
ATOM     22  C   UNL     1      -3.698   2.186  24.955  0.00  0.00    +0.099 C 
BRANCH  22  23
ATOM     23  C   UNL     1      -4.484   2.357  25.137  0.00  0.00    -0.006 A 
ATOM     24  C   UNL     1      -4.690   3.107  25.414  0.00  0.00    -0.003 A 
ATOM     25  C   UNL     1      -5.476   3.278  25.596  0.00  0.00    -0.000 A 
ATOM     26  C   UNL     1      -6.056   2.700  25.501  0.00  0.00    -0.000 A 
ATOM     27  C   UNL     1      -5.851   1.950  25.224  0.00  0.00    -0.000 A 
ATOM     28  C   UNL     1      -5.064   1.779  25.042  0.00  0.00    -0.003 A 
ENDBRANCH  22  23
ENDBRANCH  21  22
ENDBRANCH  15  17
TORSDOF 8
ENDMDL
