MODEL 1
REMARK VINA RESULT:      -9.9      0.000      0.000
REMARK  Name = 
REMARK  5 active torsions:
REMARK  status: ('A' for Active; 'I' for Inactive)
REMARK    1  A    between atoms: C_2  and  C_3
REMARK    2  A    between atoms: C_8  and  C_9
REMARK    3  A    between atoms: C_9  and  C_10
REMARK    4  A    between atoms: N_12  and  C_13
REMARK    5  A    between atoms: C_16  and  C_18
REMARK                            x       y       z     vdW  Elec       q    Type
REMARK                         _______ _______ _______ _____ _____    ______ ____
ROOT
ATOM      3  C   UNL     1      -4.305   2.560  25.119  0.00  0.00    +0.020 C 
ATOM      4  C   UNL     1      -3.819   3.169  25.392  0.00  0.00    +0.093 C 
ATOM      5  N   UNL     1      -3.002   3.117  25.298  0.00  0.00    -0.280 N 
ATOM      6  C   UNL     1      -2.669   2.457  24.930  0.00  0.00    +0.093 C 
ATOM      7  C   UNL     1      -3.155   1.849  24.658  0.00  0.00    +0.022 C 
ATOM      8  C   UNL     1      -3.973   1.900  24.752  0.00  0.00    +0.012 C 
ATOM     16  C   UNL     1      -2.516   3.726  25.571  0.00  0.00    +0.225 C 
ATOM     17  O   UNL     1      -2.848   4.386  25.938  0.00  0.00    -0.275 OA
ENDROOT
BRANCH  16  18
ATOM     18  C   UNL     1      -1.698   3.674  25.476  0.00  0.00    +0.077 C 
ATOM     19  C   UNL     1      -1.007   3.912  25.093  0.00  0.00    +0.010 C 
ATOM     20  C   UNL     1      -0.972   3.348  25.693  0.00  0.00    +0.010 C 
ENDBRANCH  16  18
BRANCH   3   2
ATOM      1  C   UNL     1      -5.449   3.232  25.652  0.00  0.00    +0.000 C 
ATOM      2  C   UNL     1      -5.123   2.612  25.214  0.00  0.00    +0.002 C 
ENDBRANCH   3   2
BRANCH   8   9
ATOM      9  C   UNL     1      -4.459   1.292  24.479  0.00  0.00    +0.087 C 
BRANCH   9  10
ATOM     10  C   UNL     1      -4.138   0.549  24.320  0.00  0.00    +0.241 C 
ATOM     11  O   UNL     1      -3.572   0.462  23.728  0.00  0.00    -0.273 OA
ATOM     12  N   UNL     1      -4.386  -0.108  24.755  0.00  0.00    -0.207 NA
BRANCH  12  13
ATOM     13  C   UNL     1      -4.066  -0.851  24.595  0.00  0.00    +0.095 C 
ATOM     14  C   UNL     1      -3.651  -1.520  24.846  0.00  0.00    +0.023 C 
ATOM     15  C   UNL     1      -3.925  -1.472  24.070  0.00  0.00    +0.023 C 
ENDBRANCH  12  13
ENDBRANCH   9  10
ENDBRANCH   8   9
TORSDOF 5
ENDMDL
MODEL 2
REMARK VINA RESULT:      -9.5      2.124      4.199
REMARK  Name = 
REMARK  5 active torsions:
REMARK  status: ('A' for Active; 'I' for Inactive)
REMARK    1  A    between atoms: C_2  and  C_3
REMARK    2  A    between atoms: C_8  and  C_9
REMARK    3  A    between atoms: C_9  and  C_10
REMARK    4  A    between atoms: N_12  and  C_13
REMARK    5  A    between atoms: C_16  and  C_18
REMARK                            x       y       z     vdW  Elec       q    Type
REMARK                         _______ _______ _______ _____ _____    ______ ____
ROOT
ATOM      3  C   UNL     1      -3.772  -1.296  24.320  0.00  0.00    +0.020 C 
ATOM      4  C   UNL     1      -3.066  -1.724  24.315  0.00  0.00    +0.093 C 
ATOM      5  N   UNL     1      -2.379  -1.390  24.626  0.00  0.00    -0.280 N 
ATOM      6  C   UNL     1      -2.396  -0.628  24.941  0.00  0.00    +0.093 C 
ATOM      7  C   UNL     1      -3.101  -0.200  24.945  0.00  0.00    +0.022 C 
ATOM      8  C   UNL     1      -3.789  -0.533  24.635  0.00  0.00    +0.012 C 
ATOM     16  C   UNL     1      -1.673  -1.819  24.621  0.00  0.00    +0.225 C 
ATOM     17  O   UNL     1      -1.656  -2.581  24.306  0.00  0.00    -0.275 OA
ENDROOT
BRANCH  16  18
ATOM     18  C   UNL     1      -0.986  -1.484  24.931  0.00  0.00    +0.077 C 
ATOM     19  C   UNL     1      -0.436  -1.421  25.542  0.00  0.00    +0.010 C 
ATOM     20  C   UNL     1      -0.346  -0.969  24.859  0.00  0.00    +0.010 C 
ENDBRANCH  16  18
BRANCH   3   2
ATOM      1  C   UNL     1      -4.454  -2.413  23.748  0.00  0.00    +0.000 C 
ATOM      2  C   UNL     1      -4.459  -1.630  24.010  0.00  0.00    +0.002 C 
ENDBRANCH   3   2
BRANCH   8   9
ATOM      9  C   UNL     1      -4.494  -0.105  24.640  0.00  0.00    +0.087 C 
BRANCH   9  10
ATOM     10  C   UNL     1      -4.475   0.719  24.633  0.00  0.00    +0.241 C 
ATOM     11  O   UNL     1      -3.966   1.116  24.120  0.00  0.00    -0.273 OA
ATOM     12  N   UNL     1      -4.967   1.147  25.139  0.00  0.00    -0.207 NA
BRANCH  12  13
ATOM     13  C   UNL     1      -4.949   1.972  25.132  0.00  0.00    +0.095 C 
ATOM     14  C   UNL     1      -5.020   2.692  25.529  0.00  0.00    +0.023 C 
ATOM     15  C   UNL     1      -4.846   2.681  24.723  0.00  0.00    +0.023 C 
ENDBRANCH  12  13
ENDBRANCH   9  10
ENDBRANCH   8   9
TORSDOF 5
ENDMDL
MODEL 3
REMARK VINA RESULT:      -9.5      1.723      2.668
REMARK  Name = 
REMARK  5 active torsions:
REMARK  status: ('A' for Active; 'I' for Inactive)
REMARK    1  A    between atoms: C_2  and  C_3
REMARK    2  A    between atoms: C_8  and  C_9
REMARK    3  A    between atoms: C_9  and  C_10
REMARK    4  A    between atoms: N_12  and  C_13
REMARK    5  A    between atoms: C_16  and  C_18
REMARK                            x       y       z     vdW  Elec       q    Type
REMARK                         _______ _______ _______ _____ _____    ______ ____
ROOT
ATOM      3  C   UNL     1      -3.340   1.350  23.747  0.00  0.00    +0.020 C 
ATOM      4  C   UNL     1      -3.665   2.055  24.028  0.00  0.00    +0.093 C 
ATOM      5  N   UNL     1      -4.308   2.034  24.545  0.00  0.00    -0.280 N 
ATOM      6  C   UNL     1      -4.625   1.310  24.781  0.00  0.00    +0.093 C 
ATOM      7  C   UNL     1      -4.300   0.606  24.500  0.00  0.00    +0.022 C 
ATOM      8  C   UNL     1      -3.657   0.626  23.983  0.00  0.00    +0.012 C 
ATOM     16  C   UNL     1      -4.633   2.739  24.827  0.00  0.00    +0.225 C 
ATOM     17  O   UNL     1      -4.316   3.463  24.591  0.00  0.00    -0.275 OA
ENDROOT
BRANCH  16  18
ATOM     18  C   UNL     1      -5.275   2.718  25.344  0.00  0.00    +0.077 C 
ATOM     19  C   UNL     1      -6.087   2.640  25.472  0.00  0.00    +0.010 C 
ATOM     20  C   UNL     1      -5.578   2.759  26.110  0.00  0.00    +0.010 C 
ENDBRANCH  16  18
BRANCH   3   2
ATOM      1  C   UNL     1      -2.608   2.005  22.709  0.00  0.00    +0.000 C 
ATOM      2  C   UNL     1      -2.697   1.371  23.230  0.00  0.00    +0.002 C 
ENDBRANCH   3   2
BRANCH   8   9
ATOM      9  C   UNL     1      -3.332  -0.078  23.702  0.00  0.00    +0.087 C 
BRANCH   9  10
ATOM     10  C   UNL     1      -3.575  -0.800  24.019  0.00  0.00    +0.241 C 
ATOM     11  O   UNL     1      -4.365  -1.028  23.967  0.00  0.00    -0.273 OA
ATOM     12  N   UNL     1      -3.025  -1.293  24.387  0.00  0.00    -0.207 NA
BRANCH  12  13
ATOM     13  C   UNL     1      -3.268  -2.015  24.704  0.00  0.00    +0.095 C 
ATOM     14  C   UNL     1      -3.322  -2.533  25.345  0.00  0.00    +0.023 C 
ATOM     15  C   UNL     1      -3.634  -2.749  24.613  0.00  0.00    +0.023 C 
ENDBRANCH  12  13
ENDBRANCH   9  10
ENDBRANCH   8   9
TORSDOF 5
ENDMDL
MODEL 4
REMARK VINA RESULT:      -9.4      0.975      3.913
REMARK  Name = 
REMARK  5 active torsions:
REMARK  status: ('A' for Active; 'I' for Inactive)
REMARK    1  A    between atoms: C_2  and  C_3
REMARK    2  A    between atoms: C_8  and  C_9
REMARK    3  A    between atoms: C_9  and  C_10
REMARK    4  A    between atoms: N_12  and  C_13
REMARK    5  A    between atoms: C_16  and  C_18
REMARK                            x       y       z     vdW  Elec       q    Type
REMARK                         _______ _______ _______ _____ _____    ______ ____
ROOT
ATOM      3  C   UNL     1      -4.474   1.810  24.752  0.00  0.00    +0.020 C 
ATOM      4  C   UNL     1      -4.538   0.989  24.698  0.00  0.00    +0.093 C 
ATOM      5  N   UNL     1      -3.869   0.517  24.792  0.00  0.00    -0.280 N 
ATOM      6  C   UNL     1      -3.135   0.864  24.940  0.00  0.00    +0.093 C 
ATOM      7  C   UNL     1      -3.072   1.685  24.994  0.00  0.00    +0.022 C 
ATOM      8  C   UNL     1      -3.741   2.158  24.900  0.00  0.00    +0.012 C 
ATOM     16  C   UNL     1      -3.933  -0.305  24.738  0.00  0.00    +0.225 C 
ATOM     17  O   UNL     1      -4.666  -0.653  24.590  0.00  0.00    -0.275 OA
ENDROOT
BRANCH  16  18
ATOM     18  C   UNL     1      -3.263  -0.777  24.832  0.00  0.00    +0.077 C 
ATOM     19  C   UNL     1      -2.756  -1.209  25.319  0.00  0.00    +0.010 C 
ATOM     20  C   UNL     1      -2.609  -1.163  24.509  0.00  0.00    +0.010 C 
ENDBRANCH  16  18
BRANCH   3   2
ATOM      1  C   UNL     1      -5.862   2.052  24.996  0.00  0.00    +0.000 C 
ATOM      2  C   UNL     1      -5.144   2.282  24.659  0.00  0.00    +0.002 C 
ENDBRANCH   3   2
BRANCH   8   9
ATOM      9  C   UNL     1      -3.677   2.978  24.955  0.00  0.00    +0.087 C 
BRANCH   9  10
ATOM     10  C   UNL     1      -2.945   3.343  24.848  0.00  0.00    +0.241 C 
ATOM     11  O   UNL     1      -2.475   3.142  24.202  0.00  0.00    -0.273 OA
ATOM     12  N   UNL     1      -2.684   3.909  25.388  0.00  0.00    -0.207 NA
BRANCH  12  13
ATOM     13  C   UNL     1      -1.952   4.274  25.282  0.00  0.00    +0.095 C 
ATOM     14  C   UNL     1      -1.501   4.960  25.192  0.00  0.00    +0.023 C 
ATOM     15  C   UNL     1      -1.134   4.221  25.186  0.00  0.00    +0.023 C 
ENDBRANCH  12  13
ENDBRANCH   9  10
ENDBRANCH   8   9
TORSDOF 5
ENDMDL
MODEL 5
REMARK VINA RESULT:      -9.1      1.855      2.180
REMARK  Name = 
REMARK  5 active torsions:
REMARK  status: ('A' for Active; 'I' for Inactive)
REMARK    1  A    between atoms: C_2  and  C_3
REMARK    2  A    between atoms: C_8  and  C_9
REMARK    3  A    between atoms: C_9  and  C_10
REMARK    4  A    between atoms: N_12  and  C_13
REMARK    5  A    between atoms: C_16  and  C_18
REMARK                            x       y       z     vdW  Elec       q    Type
REMARK                         _______ _______ _______ _____ _____    ______ ____
ROOT
ATOM      3  C   UNL     1      -4.471   1.082  24.794  0.00  0.00    +0.020 C 
ATOM      4  C   UNL     1      -4.234   1.765  24.395  0.00  0.00    +0.093 C 
ATOM      5  N   UNL     1      -3.639   1.722  23.825  0.00  0.00    -0.280 N 
ATOM      6  C   UNL     1      -3.282   0.999  23.653  0.00  0.00    +0.093 C 
ATOM      7  C   UNL     1      -3.519   0.317  24.052  0.00  0.00    +0.022 C 
ATOM      8  C   UNL     1      -4.114   0.358  24.623  0.00  0.00    +0.012 C 
ATOM     16  C   UNL     1      -3.402   2.405  23.425  0.00  0.00    +0.225 C 
ATOM     17  O   UNL     1      -3.759   3.128  23.596  0.00  0.00    -0.275 OA
ENDROOT
BRANCH  16  18
ATOM     18  C   UNL     1      -2.807   2.362  22.855  0.00  0.00    +0.077 C 
ATOM     19  C   UNL     1      -2.006   2.337  22.659  0.00  0.00    +0.010 C 
ATOM     20  C   UNL     1      -2.577   2.314  22.065  0.00  0.00    +0.010 C 
ENDBRANCH  16  18
BRANCH   3   2
ATOM      1  C   UNL     1      -5.573   1.776  25.383  0.00  0.00    +0.000 C 
ATOM      2  C   UNL     1      -5.066   1.124  25.364  0.00  0.00    +0.002 C 
ENDBRANCH   3   2
BRANCH   8   9
ATOM      9  C   UNL     1      -4.351  -0.323  25.022  0.00  0.00    +0.087 C 
BRANCH   9  10
ATOM     10  C   UNL     1      -4.134  -1.065  24.735  0.00  0.00    +0.241 C 
ATOM     11  O   UNL     1      -4.398  -1.315  23.995  0.00  0.00    -0.273 OA
ATOM     12  N   UNL     1      -3.652  -1.558  25.190  0.00  0.00    -0.207 NA
BRANCH  12  13
ATOM     13  C   UNL     1      -3.435  -2.300  24.903  0.00  0.00    +0.095 C 
ATOM     14  C   UNL     1      -2.854  -2.870  24.761  0.00  0.00    +0.023 C 
ATOM     15  C   UNL     1      -3.638  -3.017  24.549  0.00  0.00    +0.023 C 
ENDBRANCH  12  13
ENDBRANCH   9  10
ENDBRANCH   8   9
TORSDOF 5
ENDMDL
MODEL 6
REMARK VINA RESULT:      -9.1      1.673      4.290
REMARK  Name = 
REMARK  5 active torsions:
REMARK  status: ('A' for Active; 'I' for Inactive)
REMARK    1  A    between atoms: C_2  and  C_3
REMARK    2  A    between atoms: C_8  and  C_9
REMARK    3  A    between atoms: C_9  and  C_10
REMARK    4  A    between atoms: N_12  and  C_13
REMARK    5  A    between atoms: C_16  and  C_18
REMARK                            x       y       z     vdW  Elec       q    Type
REMARK                         _______ _______ _______ _____ _____    ______ ____
ROOT
ATOM      3  C   UNL     1      -2.265   0.660  24.513  0.00  0.00    +0.020 C 
ATOM      4  C   UNL     1      -2.058  -0.138  24.569  0.00  0.00    +0.093 C 
ATOM      5  N   UNL     1      -2.647  -0.715  24.591  0.00  0.00    -0.280 N 
ATOM      6  C   UNL     1      -3.442  -0.496  24.558  0.00  0.00    +0.093 C 
ATOM      7  C   UNL     1      -3.648   0.300  24.503  0.00  0.00    +0.022 C 
ATOM      8  C   UNL     1      -3.060   0.879  24.480  0.00  0.00    +0.012 C 
ATOM     16  C   UNL     1      -2.441  -1.513  24.646  0.00  0.00    +0.225 C 
ATOM     17  O   UNL     1      -1.646  -1.732  24.679  0.00  0.00    -0.275 OA
ENDROOT
BRANCH  16  18
ATOM     18  C   UNL     1      -3.029  -2.090  24.669  0.00  0.00    +0.077 C 
ATOM     19  C   UNL     1      -3.524  -2.589  25.101  0.00  0.00    +0.010 C 
ATOM     20  C   UNL     1      -3.554  -2.591  24.277  0.00  0.00    +0.010 C 
ENDBRANCH  16  18
BRANCH   3   2
ATOM      1  C   UNL     1      -0.898   1.025  24.313  0.00  0.00    +0.000 C 
ATOM      2  C   UNL     1      -1.676   1.237  24.491  0.00  0.00    +0.002 C 
ENDBRANCH   3   2
BRANCH   8   9
ATOM      9  C   UNL     1      -3.265   1.675  24.425  0.00  0.00    +0.087 C 
BRANCH   9  10
ATOM     10  C   UNL     1      -4.020   1.922  24.650  0.00  0.00    +0.241 C 
ATOM     11  O   UNL     1      -4.685   1.596  24.289  0.00  0.00    -0.273 OA
ATOM     12  N   UNL     1      -4.107   2.497  25.236  0.00  0.00    -0.207 NA
BRANCH  12  13
ATOM     13  C   UNL     1      -4.862   2.744  25.460  0.00  0.00    +0.095 C 
ATOM     14  C   UNL     1      -5.425   3.343  25.534  0.00  0.00    +0.023 C 
ATOM     15  C   UNL     1      -5.605   2.575  25.775  0.00  0.00    +0.023 C 
ENDBRANCH  12  13
ENDBRANCH   9  10
ENDBRANCH   8   9
TORSDOF 5
ENDMDL
MODEL 7
REMARK VINA RESULT:      -8.9      1.696      3.001
REMARK  Name = 
REMARK  5 active torsions:
REMARK  status: ('A' for Active; 'I' for Inactive)
REMARK    1  A    between atoms: C_2  and  C_3
REMARK    2  A    between atoms: C_8  and  C_9
REMARK    3  A    between atoms: C_9  and  C_10
REMARK    4  A    between atoms: N_12  and  C_13
REMARK    5  A    between atoms: C_16  and  C_18
REMARK                            x       y       z     vdW  Elec       q    Type
REMARK                         _______ _______ _______ _____ _____    ______ ____
ROOT
ATOM      3  C   UNL     1      -2.517   3.149  25.081  0.00  0.00    +0.020 C 
ATOM      4  C   UNL     1      -3.300   3.382  25.202  0.00  0.00    +0.093 C 
ATOM      5  N   UNL     1      -3.905   2.822  25.176  0.00  0.00    -0.280 N 
ATOM      6  C   UNL     1      -3.728   2.030  25.027  0.00  0.00    +0.093 C 
ATOM      7  C   UNL     1      -2.946   1.798  24.906  0.00  0.00    +0.022 C 
ATOM      8  C   UNL     1      -2.340   2.357  24.932  0.00  0.00    +0.012 C 
ATOM     16  C   UNL     1      -4.687   3.054  25.297  0.00  0.00    +0.225 C 
ATOM     17  O   UNL     1      -4.864   3.846  25.446  0.00  0.00    -0.275 OA
ENDROOT
BRANCH  16  18
ATOM     18  C   UNL     1      -5.292   2.494  25.270  0.00  0.00    +0.077 C 
ATOM     19  C   UNL     1      -5.816   1.989  25.660  0.00  0.00    +0.010 C 
ATOM     20  C   UNL     1      -5.817   2.029  24.836  0.00  0.00    +0.010 C 
ENDBRANCH  16  18
BRANCH   3   2
ATOM      1  C   UNL     1      -2.018   4.410  25.531  0.00  0.00    +0.000 C 
ATOM      2  C   UNL     1      -1.912   3.709  25.108  0.00  0.00    +0.002 C 
ENDBRANCH   3   2
BRANCH   8   9
ATOM      9  C   UNL     1      -1.558   2.125  24.811  0.00  0.00    +0.087 C 
BRANCH   9  10
ATOM     10  C   UNL     1      -1.388   1.347  24.597  0.00  0.00    +0.241 C 
ATOM     11  O   UNL     1      -1.693   1.035  23.897  0.00  0.00    -0.273 OA
ATOM     12  N   UNL     1      -0.912   0.880  25.084  0.00  0.00    -0.207 NA
BRANCH  12  13
ATOM     13  C   UNL     1      -0.741   0.102  24.870  0.00  0.00    +0.095 C 
ATOM     14  C   UNL     1      -0.731  -0.703  25.051  0.00  0.00    +0.023 C 
ATOM     15  C   UNL     1      -0.456  -0.442  24.318  0.00  0.00    +0.023 C 
ENDBRANCH  12  13
ENDBRANCH   9  10
ENDBRANCH   8   9
TORSDOF 5
ENDMDL
MODEL 8
REMARK VINA RESULT:      -8.8      2.094      3.389
REMARK  Name = 
REMARK  5 active torsions:
REMARK  status: ('A' for Active; 'I' for Inactive)
REMARK    1  A    between atoms: C_2  and  C_3
REMARK    2  A    between atoms: C_8  and  C_9
REMARK    3  A    between atoms: C_9  and  C_10
REMARK    4  A    between atoms: N_12  and  C_13
REMARK    5  A    between atoms: C_16  and  C_18
REMARK                            x       y       z     vdW  Elec       q    Type
REMARK                         _______ _______ _______ _____ _____    ______ ____
ROOT
ATOM      3  C   UNL     1      -1.579   3.681  25.127  0.00  0.00    +0.020 C 
ATOM      4  C   UNL     1      -0.903   3.209  25.082  0.00  0.00    +0.093 C 
ATOM      5  N   UNL     1      -0.970   2.409  24.895  0.00  0.00    -0.280 N 
ATOM      6  C   UNL     1      -1.713   2.079  24.752  0.00  0.00    +0.093 C 
ATOM      7  C   UNL     1      -2.388   2.550  24.797  0.00  0.00    +0.022 C 
ATOM      8  C   UNL     1      -2.322   3.351  24.985  0.00  0.00    +0.012 C 
ATOM     16  C   UNL     1      -0.294   1.938  24.849  0.00  0.00    +0.225 C 
ATOM     17  O   UNL     1       0.449   2.267  24.992  0.00  0.00    -0.275 OA
ENDROOT
BRANCH  16  18
ATOM     18  C   UNL     1      -0.361   1.137  24.662  0.00  0.00    +0.077 C 
ATOM     19  C   UNL     1      -0.308   0.526  24.110  0.00  0.00    +0.010 C 
ATOM     20  C   UNL     1      -0.532   0.362  24.886  0.00  0.00    +0.010 C 
ENDBRANCH  16  18
BRANCH   3   2
ATOM      1  C   UNL     1      -0.916   4.936  24.969  0.00  0.00    +0.000 C 
ATOM      2  C   UNL     1      -1.511   4.481  25.315  0.00  0.00    +0.002 C 
ENDBRANCH   3   2
BRANCH   8   9
ATOM      9  C   UNL     1      -2.997   3.822  25.030  0.00  0.00    +0.087 C 
BRANCH   9  10
ATOM     10  C   UNL     1      -3.744   3.479  24.960  0.00  0.00    +0.241 C 
ATOM     11  O   UNL     1      -3.980   3.150  24.242  0.00  0.00    -0.273 OA
ATOM     12  N   UNL     1      -4.255   3.467  25.608  0.00  0.00    -0.207 NA
BRANCH  12  13
ATOM     13  C   UNL     1      -5.002   3.124  25.538  0.00  0.00    +0.095 C 
ATOM     14  C   UNL     1      -5.818   3.156  25.661  0.00  0.00    +0.023 C 
ATOM     15  C   UNL     1      -5.481   2.499  25.292  0.00  0.00    +0.023 C 
ENDBRANCH  12  13
ENDBRANCH   9  10
ENDBRANCH   8   9
TORSDOF 5
ENDMDL
