MODEL 1
REMARK VINA RESULT:      -8.8      0.000      0.000
REMARK  Name = 
REMARK  8 active torsions:
REMARK  status: ('A' for Active; 'I' for Inactive)
REMARK    1  A    between atoms: C_2  and  C_4
REMARK    2  A    between atoms: C_6  and  C_7
REMARK    3  A    between atoms: C_7  and  C_8
REMARK    4  A    between atoms: N_10  and  C_12
REMARK    5  A    between atoms: C_12  and  C_13
REMARK    6  A    between atoms: C_22  and  C_23
REMARK    7  A    between atoms: C_23  and  N_24
REMARK    8  A    between atoms: N_27  and  C_28
REMARK                            x       y       z     vdW  Elec       q    Type
REMARK                         _______ _______ _______ _____ _____    ______ ____
ROOT
ATOM      4  C   UNL     1      -0.765   1.439  24.382  0.00  0.00    +0.006 C 
ATOM      5  C   UNL     1      -1.541   1.229  24.567  0.00  0.00    +0.005 C 
ATOM      6  C   UNL     1      -1.795   0.451  24.458  0.00  0.00    +0.027 C 
ATOM     19  C   UNL     1      -1.273  -0.116  24.165  0.00  0.00    -0.048 C 
ATOM     20  C   UNL     1      -1.527  -0.894  24.057  0.00  0.00    +0.026 C 
ATOM     21  C   UNL     1      -0.496   0.094  23.980  0.00  0.00    -0.033 C 
ATOM     22  C   UNL     1      -0.243   0.871  24.089  0.00  0.00    +0.043 C 
ENDROOT
BRANCH   4   2
ATOM      1  C   UNL     1      -0.209   2.453  25.221  0.00  0.00    +0.000 C 
ATOM      2  C   UNL     1      -0.512   2.216  24.491  0.00  0.00    +0.000 C 
ATOM      3  C   UNL     1      -0.560   2.757  23.870  0.00  0.00    +0.000 C 
ENDBRANCH   4   2
BRANCH   6   7
ATOM      7  C   UNL     1      -2.571   0.242  24.643  0.00  0.00    +0.089 C 
BRANCH   7   8
ATOM      8  C   UNL     1      -3.201   0.658  24.309  0.00  0.00    +0.226 C 
ATOM      9  O   UNL     1      -3.161   0.907  23.524  0.00  0.00    -0.275 OA
ATOM     10  N   UNL     1      -3.871   0.824  24.762  0.00  0.00    -0.274 N 
ATOM     11  C   UNL     1      -3.911   0.575  25.547  0.00  0.00    +0.115 C 
BRANCH  10  12
ATOM     12  C   UNL     1      -4.501   1.240  24.429  0.00  0.00    +0.122 C 
BRANCH  12  13
ATOM     13  C   UNL     1      -4.924   1.782  24.884  0.00  0.00    +0.017 A 
ATOM     14  C   UNL     1      -4.699   2.577  24.892  0.00  0.00    +0.001 A 
ATOM     15  C   UNL     1      -5.122   3.120  25.347  0.00  0.00    +0.020 A 
ATOM     16  C   UNL     1      -5.768   2.870  25.792  0.00  0.00    +0.099 A 
ATOM     17  N   UNL     1      -5.993   2.076  25.785  0.00  0.00    -0.243 NA
ATOM     18  C   UNL     1      -5.570   1.532  25.330  0.00  0.00    +0.096 A 
ENDBRANCH  12  13
ENDBRANCH  10  12
ENDBRANCH   7   8
ENDBRANCH   6   7
BRANCH  22  23
ATOM     23  C   UNL     1       0.534   1.082  23.904  0.00  0.00    +0.121 C 
BRANCH  23  24
ATOM     24  N   UNL     1       0.987   0.596  23.415  0.00  0.00    -0.187 NA
ATOM     25  C   UNL     1       1.807   0.680  23.397  0.00  0.00    +0.344 C 
ATOM     26  O   UNL     1       2.174   1.249  23.867  0.00  0.00    -0.249 OA
ATOM     27  N   UNL     1       2.261   0.194  22.908  0.00  0.00    -0.161 NA
BRANCH  27  28
ATOM     28  C   UNL     1       3.082   0.279  22.890  0.00  0.00    +0.077 A 
ATOM     29  C   UNL     1       3.421   0.918  22.493  0.00  0.00    +0.017 A 
ATOM     30  C   UNL     1       4.242   1.002  22.475  0.00  0.00    +0.004 A 
ATOM     31  C   UNL     1       4.722   0.449  22.853  0.00  0.00    +0.030 A 
ATOM     32  C   UNL     1       4.383  -0.190  23.250  0.00  0.00    +0.141 A 
ATOM     33  F   UNL     1       4.863  -0.743  23.628  0.00  0.00    -0.204 F 
ATOM     34  C   UNL     1       3.561  -0.274  23.268  0.00  0.00    +0.046 A 
ENDBRANCH  27  28
ENDBRANCH  23  24
ENDBRANCH  22  23
TORSDOF 8
ENDMDL
MODEL 2
REMARK VINA RESULT:      -8.4      1.220      2.060
REMARK  Name = 
REMARK  8 active torsions:
REMARK  status: ('A' for Active; 'I' for Inactive)
REMARK    1  A    between atoms: C_2  and  C_4
REMARK    2  A    between atoms: C_6  and  C_7
REMARK    3  A    between atoms: C_7  and  C_8
REMARK    4  A    between atoms: N_10  and  C_12
REMARK    5  A    between atoms: C_12  and  C_13
REMARK    6  A    between atoms: C_22  and  C_23
REMARK    7  A    between atoms: C_23  and  N_24
REMARK    8  A    between atoms: N_27  and  C_28
REMARK                            x       y       z     vdW  Elec       q    Type
REMARK                         _______ _______ _______ _____ _____    ______ ____
ROOT
ATOM      4  C   UNL     1      -1.052   1.603  24.774  0.00  0.00    +0.006 C 
ATOM      5  C   UNL     1      -1.650   2.115  25.022  0.00  0.00    +0.005 C 
ATOM      6  C   UNL     1      -1.527   2.930  25.011  0.00  0.00    +0.027 C 
ATOM     19  C   UNL     1      -0.807   3.235  24.750  0.00  0.00    -0.048 C 
ATOM     20  C   UNL     1      -0.684   4.052  24.739  0.00  0.00    +0.026 C 
ATOM     21  C   UNL     1      -0.208   2.724  24.501  0.00  0.00    -0.033 C 
ATOM     22  C   UNL     1      -0.331   1.909  24.513  0.00  0.00    +0.043 C 
ENDROOT
BRANCH   4   2
ATOM      1  C   UNL     1      -1.473   0.406  24.117  0.00  0.00    +0.000 C 
ATOM      2  C   UNL     1      -1.175   0.789  24.785  0.00  0.00    +0.000 C 
ATOM      3  C   UNL     1      -1.001   0.354  25.464  0.00  0.00    +0.000 C 
ENDBRANCH   4   2
BRANCH   6   7
ATOM      7  C   UNL     1      -2.125   3.441  25.259  0.00  0.00    +0.089 C 
BRANCH   7   8
ATOM      8  C   UNL     1      -2.854   3.443  24.871  0.00  0.00    +0.226 C 
ATOM      9  O   UNL     1      -2.884   3.368  24.051  0.00  0.00    -0.275 OA
ATOM     10  N   UNL     1      -3.552   3.520  25.305  0.00  0.00    -0.274 N 
ATOM     11  C   UNL     1      -3.521   3.594  26.126  0.00  0.00    +0.115 C 
BRANCH  10  12
ATOM     12  C   UNL     1      -4.280   3.522  24.918  0.00  0.00    +0.122 C 
BRANCH  12  13
ATOM     13  C   UNL     1      -4.896   3.049  25.194  0.00  0.00    +0.017 A 
ATOM     14  C   UNL     1      -5.096   2.355  24.793  0.00  0.00    +0.001 A 
ATOM     15  C   UNL     1      -5.713   1.883  25.070  0.00  0.00    +0.020 A 
ATOM     16  C   UNL     1      -6.129   2.102  25.746  0.00  0.00    +0.099 A 
ATOM     17  N   UNL     1      -5.930   2.794  26.148  0.00  0.00    -0.243 NA
ATOM     18  C   UNL     1      -5.312   3.268  25.871  0.00  0.00    +0.096 A 
ENDBRANCH  12  13
ENDBRANCH  10  12
ENDBRANCH   7   8
ENDBRANCH   6   7
BRANCH  22  23
ATOM     23  C   UNL     1       0.268   1.397  24.264  0.00  0.00    +0.121 C 
BRANCH  23  24
ATOM     24  N   UNL     1       0.983   1.703  23.991  0.00  0.00    -0.187 NA
ATOM     25  C   UNL     1       1.533   1.205  23.630  0.00  0.00    +0.344 C 
ATOM     26  O   UNL     1       1.367   0.402  23.543  0.00  0.00    -0.249 OA
ATOM     27  N   UNL     1       2.249   1.511  23.356  0.00  0.00    -0.161 NA
BRANCH  27  28
ATOM     28  C   UNL     1       2.799   1.012  22.995  0.00  0.00    +0.077 A 
ATOM     29  C   UNL     1       2.551   0.474  22.420  0.00  0.00    +0.017 A 
ATOM     30  C   UNL     1       3.101  -0.025  22.060  0.00  0.00    +0.004 A 
ATOM     31  C   UNL     1       3.896   0.015  22.273  0.00  0.00    +0.030 A 
ATOM     32  C   UNL     1       4.143   0.552  22.847  0.00  0.00    +0.141 A 
ATOM     33  F   UNL     1       4.939   0.592  23.060  0.00  0.00    -0.204 F 
ATOM     34  C   UNL     1       3.594   1.052  23.208  0.00  0.00    +0.046 A 
ENDBRANCH  27  28
ENDBRANCH  23  24
ENDBRANCH  22  23
TORSDOF 8
ENDMDL
MODEL 3
REMARK VINA RESULT:      -8.0      2.233      6.904
REMARK  Name = 
REMARK  8 active torsions:
REMARK  status: ('A' for Active; 'I' for Inactive)
REMARK    1  A    between atoms: C_2  and  C_4
REMARK    2  A    between atoms: C_6  and  C_7
REMARK    3  A    between atoms: C_7  and  C_8
REMARK    4  A    between atoms: N_10  and  C_12
REMARK    5  A    between atoms: C_12  and  C_13
REMARK    6  A    between atoms: C_22  and  C_23
REMARK    7  A    between atoms: C_23  and  N_24
REMARK    8  A    between atoms: N_27  and  C_28
REMARK                            x       y       z     vdW  Elec       q    Type
REMARK                         _______ _______ _______ _____ _____    ______ ____
ROOT
ATOM      4  C   UNL     1      -0.481   1.488  24.484  0.00  0.00    +0.006 C 
ATOM      5  C   UNL     1       0.108   0.984  24.203  0.00  0.00    +0.005 C 
ATOM      6  C   UNL     1      -0.087   0.223  23.948  0.00  0.00    +0.027 C 
ATOM     19  C   UNL     1      -0.870  -0.033  23.976  0.00  0.00    -0.048 C 
ATOM     20  C   UNL     1      -1.064  -0.794  23.721  0.00  0.00    +0.026 C 
ATOM     21  C   UNL     1      -1.460   0.471  24.257  0.00  0.00    -0.033 C 
ATOM     22  C   UNL     1      -1.265   1.231  24.512  0.00  0.00    +0.043 C 
ENDROOT
BRANCH   4   2
ATOM      1  C   UNL     1      -0.045   2.373  25.518  0.00  0.00    +0.000 C 
ATOM      2  C   UNL     1      -0.287   2.247  24.738  0.00  0.00    +0.000 C 
ATOM      3  C   UNL     1      -0.334   2.883  24.214  0.00  0.00    +0.000 C 
ENDBRANCH   4   2
BRANCH   6   7
ATOM      7  C   UNL     1       0.502  -0.280  23.667  0.00  0.00    +0.089 C 
BRANCH   7   8
ATOM      8  C   UNL     1       1.011  -0.026  23.068  0.00  0.00    +0.226 C 
ATOM      9  O   UNL     1       0.716   0.411  22.435  0.00  0.00    -0.275 OA
ATOM     10  N   UNL     1       1.815  -0.211  23.104  0.00  0.00    -0.274 N 
ATOM     11  C   UNL     1       2.110  -0.648  23.737  0.00  0.00    +0.115 C 
BRANCH  10  12
ATOM     12  C   UNL     1       2.323   0.043  22.505  0.00  0.00    +0.122 C 
BRANCH  12  13
ATOM     13  C   UNL     1       3.111   0.214  22.678  0.00  0.00    +0.017 A 
ATOM     14  C   UNL     1       3.380   0.994  22.645  0.00  0.00    +0.001 A 
ATOM     15  C   UNL     1       4.168   1.165  22.818  0.00  0.00    +0.020 A 
ATOM     16  C   UNL     1       4.687   0.558  23.022  0.00  0.00    +0.099 A 
ATOM     17  N   UNL     1       4.419  -0.221  23.054  0.00  0.00    -0.243 NA
ATOM     18  C   UNL     1       3.630  -0.393  22.882  0.00  0.00    +0.096 A 
ENDBRANCH  12  13
ENDBRANCH  10  12
ENDBRANCH   7   8
ENDBRANCH   6   7
BRANCH  22  23
ATOM     23  C   UNL     1      -1.855   1.736  24.794  0.00  0.00    +0.121 C 
BRANCH  23  24
ATOM     24  N   UNL     1      -2.603   1.729  24.447  0.00  0.00    -0.187 NA
ATOM     25  C   UNL     1      -3.257   1.997  24.873  0.00  0.00    +0.344 C 
ATOM     26  O   UNL     1      -3.162   2.273  25.644  0.00  0.00    -0.249 OA
ATOM     27  N   UNL     1      -4.006   1.991  24.526  0.00  0.00    -0.161 NA
BRANCH  27  28
ATOM     28  C   UNL     1      -4.659   2.259  24.952  0.00  0.00    +0.077 A 
ATOM     29  C   UNL     1      -5.177   1.717  25.298  0.00  0.00    +0.017 A 
ATOM     30  C   UNL     1      -5.830   1.986  25.724  0.00  0.00    +0.004 A 
ATOM     31  C   UNL     1      -5.966   2.795  25.804  0.00  0.00    +0.030 A 
ATOM     32  C   UNL     1      -5.449   3.337  25.458  0.00  0.00    +0.141 A 
ATOM     33  F   UNL     1      -5.585   4.146  25.538  0.00  0.00    -0.204 F 
ATOM     34  C   UNL     1      -4.795   3.068  25.032  0.00  0.00    +0.046 A 
ENDBRANCH  27  28
ENDBRANCH  23  24
ENDBRANCH  22  23
TORSDOF 8
ENDMDL
