MODEL 1
REMARK VINA RESULT:     -11.9      0.000      0.000
REMARK  Name = 
REMARK  11 active torsions:
REMARK  status: ('A' for Active; 'I' for Inactive)
REMARK    1  A    between atoms: N_2  and  C_3
REMARK    2  A    between atoms: N_2  and  C_27
REMARK    3  A    between atoms: C_3  and  C_4
REMARK    4  A    between atoms: C_6  and  C_7
REMARK    5  A    between atoms: C_7  and  C_8
REMARK    6  A    between atoms: C_8  and  N_12
REMARK    7  A    between atoms: N_12  and  C_13
REMARK    8  A    between atoms: C_13  and  C_14
REMARK    9  A    between atoms: C_17  and  O_18
REMARK   10  A    between atoms: O_18  and  C_19
REMARK   11  A    between atoms: C_27  and  C_28
REMARK                            x       y       z     vdW  Elec       q    Type
REMARK                         _______ _______ _______ _____ _____    ______ ____
ROOT
ATOM      8  C   UNL     1      -0.974   2.598  24.836  0.00  0.00    +0.120 C 
ATOM      9  C   UNL     1      -1.054   3.129  24.209  0.00  0.00    +0.161 C 
ATOM     10  O   UNL     1      -0.234   3.210  24.173  0.00  0.00    -0.351 OA
ATOM     11  C   UNL     1      -0.154   2.680  24.800  0.00  0.00    +0.161 C 
ENDROOT
BRANCH   8   7
ATOM      7  C   UNL     1      -0.894   2.068  25.462  0.00  0.00    +0.070 C 
BRANCH   7   6
ATOM      4  C   UNL     1      -0.977  -0.063  25.358  0.00  0.00    +0.170 A 
ATOM      5  C   UNL     1      -1.238   0.654  25.673  0.00  0.00    +0.055 A 
ATOM      6  C   UNL     1      -0.811   1.261  25.311  0.00  0.00    +0.102 A 
ATOM     25  N   UNL     1      -0.287   0.920  24.773  0.00  0.00    -0.082 NA
ATOM     26  O   UNL     1      -0.389   0.102  24.802  0.00  0.00    -0.357 OA
BRANCH   4   3
ATOM      3  C   UNL     1      -1.255  -0.812  25.563  0.00  0.00    +0.141 C 
BRANCH   3   2
ATOM      1  C   UNL     1      -1.597  -1.533  24.378  0.00  0.00    +0.090 C 
ATOM      2  N   UNL     1      -1.820  -1.186  25.092  0.00  0.00    -0.261 NA
BRANCH   2  27
ATOM     27  C   UNL     1      -2.607  -1.211  25.335  0.00  0.00    +0.100 C 
BRANCH  27  28
ATOM     28  C   UNL     1      -3.175  -1.580  24.863  0.00  0.00    -0.006 A 
ATOM     29  C   UNL     1      -3.216  -2.404  24.838  0.00  0.00    -0.003 A 
ATOM     30  C   UNL     1      -3.783  -2.774  24.367  0.00  0.00    -0.000 A 
ATOM     31  C   UNL     1      -4.308  -2.320  23.921  0.00  0.00    -0.000 A 
ATOM     32  C   UNL     1      -4.267  -1.496  23.946  0.00  0.00    -0.000 A 
ATOM     33  C   UNL     1      -3.700  -1.126  24.418  0.00  0.00    -0.003 A 
ENDBRANCH  27  28
ENDBRANCH   2  27
ENDBRANCH   3   2
ENDBRANCH   4   3
ENDBRANCH   7   6
ENDBRANCH   8   7
BRANCH   8  12
ATOM     12  N   UNL     1      -1.795   2.517  24.871  0.00  0.00    -0.211 NA
BRANCH  12  13
ATOM     13  C   UNL     1      -2.279   3.172  24.739  0.00  0.00    +0.115 C 
BRANCH  13  14
ATOM     14  C   UNL     1      -3.096   3.107  24.841  0.00  0.00    -0.005 A 
ATOM     15  C   UNL     1      -3.459   3.463  25.491  0.00  0.00    +0.000 A 
ATOM     16  C   UNL     1      -4.275   3.398  25.593  0.00  0.00    +0.037 A 
ATOM     17  C   UNL     1      -4.727   2.979  25.046  0.00  0.00    +0.147 A 
ATOM     23  C   UNL     1      -4.364   2.624  24.396  0.00  0.00    +0.037 A 
ATOM     24  C   UNL     1      -3.548   2.689  24.294  0.00  0.00    +0.000 A 
BRANCH  17  18
ATOM     18  O   UNL     1      -5.544   2.915  25.148  0.00  0.00    -0.404 OA
BRANCH  18  19
ATOM     19  C   UNL     1      -5.864   2.245  25.507  0.00  0.00    +0.575 C 
ATOM     20  F   UNL     1      -6.184   1.575  25.865  0.00  0.00    -0.133 F 
ATOM     21  F   UNL     1      -5.777   2.599  26.246  0.00  0.00    -0.133 F 
ATOM     22  F   UNL     1      -5.951   1.890  24.767  0.00  0.00    -0.133 F 
ENDBRANCH  18  19
ENDBRANCH  17  18
ENDBRANCH  13  14
ENDBRANCH  12  13
ENDBRANCH   8  12
TORSDOF 11
ENDMDL
MODEL 2
REMARK VINA RESULT:     -11.3      2.374      3.916
REMARK  Name = 
REMARK  11 active torsions:
REMARK  status: ('A' for Active; 'I' for Inactive)
REMARK    1  A    between atoms: N_2  and  C_3
REMARK    2  A    between atoms: N_2  and  C_27
REMARK    3  A    between atoms: C_3  and  C_4
REMARK    4  A    between atoms: C_6  and  C_7
REMARK    5  A    between atoms: C_7  and  C_8
REMARK    6  A    between atoms: C_8  and  N_12
REMARK    7  A    between atoms: N_12  and  C_13
REMARK    8  A    between atoms: C_13  and  C_14
REMARK    9  A    between atoms: C_17  and  O_18
REMARK   10  A    between atoms: O_18  and  C_19
REMARK   11  A    between atoms: C_27  and  C_28
REMARK                            x       y       z     vdW  Elec       q    Type
REMARK                         _______ _______ _______ _____ _____    ______ ____
ROOT
ATOM      8  C   UNL     1      -3.573   3.585  25.433  0.00  0.00    +0.120 C 
ATOM      9  C   UNL     1      -3.248   3.968  26.089  0.00  0.00    +0.161 C 
ATOM     10  O   UNL     1      -3.959   4.371  26.205  0.00  0.00    -0.351 OA
ATOM     11  C   UNL     1      -4.283   3.989  25.550  0.00  0.00    +0.161 C 
ENDROOT
BRANCH   8   7
ATOM      7  C   UNL     1      -3.898   3.203  24.778  0.00  0.00    +0.070 C 
BRANCH   7   6
ATOM      4  C   UNL     1      -4.714   1.230  24.778  0.00  0.00    +0.170 A 
ATOM      5  C   UNL     1      -4.149   1.777  24.525  0.00  0.00    +0.055 A 
ATOM      6  C   UNL     1      -4.322   2.502  24.879  0.00  0.00    +0.102 A 
ATOM     25  N   UNL     1      -4.992   2.405  25.349  0.00  0.00    -0.082 NA
ATOM     26  O   UNL     1      -5.235   1.618  25.287  0.00  0.00    -0.357 OA
BRANCH   4   3
ATOM      3  C   UNL     1      -4.751   0.436  24.559  0.00  0.00    +0.141 C 
BRANCH   3   2
ATOM      1  C   UNL     1      -4.098  -0.221  25.648  0.00  0.00    +0.090 C 
ATOM      2  N   UNL     1      -4.184  -0.096  24.838  0.00  0.00    -0.261 NA
BRANCH   2  27
ATOM     27  C   UNL     1      -3.702  -0.501  24.304  0.00  0.00    +0.100 C 
BRANCH  27  28
ATOM     28  C   UNL     1      -3.684  -1.326  24.308  0.00  0.00    -0.006 A 
ATOM     29  C   UNL     1      -3.108  -1.723  24.747  0.00  0.00    -0.003 A 
ATOM     30  C   UNL     1      -3.089  -2.547  24.751  0.00  0.00    -0.000 A 
ATOM     31  C   UNL     1      -3.646  -2.975  24.317  0.00  0.00    -0.000 A 
ATOM     32  C   UNL     1      -4.222  -2.578  23.879  0.00  0.00    -0.000 A 
ATOM     33  C   UNL     1      -4.241  -1.753  23.875  0.00  0.00    -0.003 A 
ENDBRANCH  27  28
ENDBRANCH   2  27
ENDBRANCH   3   2
ENDBRANCH   4   3
ENDBRANCH   7   6
ENDBRANCH   8   7
BRANCH   8  12
ATOM     12  N   UNL     1      -2.863   3.182  25.317  0.00  0.00    -0.211 NA
BRANCH  12  13
ATOM     13  C   UNL     1      -2.145   3.569  25.441  0.00  0.00    +0.115 C 
BRANCH  13  14
ATOM     14  C   UNL     1      -1.434   3.180  25.284  0.00  0.00    -0.005 A 
ATOM     15  C   UNL     1      -1.144   2.622  25.819  0.00  0.00    +0.000 A 
ATOM     16  C   UNL     1      -0.433   2.233  25.662  0.00  0.00    +0.037 A 
ATOM     17  C   UNL     1      -0.014   2.400  24.973  0.00  0.00    +0.147 A 
ATOM     23  C   UNL     1      -0.305   2.958  24.438  0.00  0.00    +0.037 A 
ATOM     24  C   UNL     1      -1.015   3.347  24.595  0.00  0.00    +0.000 A 
BRANCH  17  18
ATOM     18  O   UNL     1       0.696   2.010  24.816  0.00  0.00    -0.404 OA
BRANCH  18  19
ATOM     19  C   UNL     1       0.740   1.463  24.201  0.00  0.00    +0.575 C 
ATOM     20  F   UNL     1       0.784   0.915  23.587  0.00  0.00    -0.133 F 
ATOM     21  F   UNL     1       1.171   2.003  23.751  0.00  0.00    -0.133 F 
ATOM     22  F   UNL     1       0.310   0.923  24.652  0.00  0.00    -0.133 F 
ENDBRANCH  18  19
ENDBRANCH  17  18
ENDBRANCH  13  14
ENDBRANCH  12  13
ENDBRANCH   8  12
TORSDOF 11
ENDMDL
MODEL 3
REMARK VINA RESULT:     -11.3      1.286      3.970
REMARK  Name = 
REMARK  11 active torsions:
REMARK  status: ('A' for Active; 'I' for Inactive)
REMARK    1  A    between atoms: N_2  and  C_3
REMARK    2  A    between atoms: N_2  and  C_27
REMARK    3  A    between atoms: C_3  and  C_4
REMARK    4  A    between atoms: C_6  and  C_7
REMARK    5  A    between atoms: C_7  and  C_8
REMARK    6  A    between atoms: C_8  and  N_12
REMARK    7  A    between atoms: N_12  and  C_13
REMARK    8  A    between atoms: C_13  and  C_14
REMARK    9  A    between atoms: C_17  and  O_18
REMARK   10  A    between atoms: O_18  and  C_19
REMARK   11  A    between atoms: C_27  and  C_28
REMARK                            x       y       z     vdW  Elec       q    Type
REMARK                         _______ _______ _______ _____ _____    ______ ____
ROOT
ATOM      8  C   UNL     1      -2.704  -0.867  24.833  0.00  0.00    +0.120 C 
ATOM      9  C   UNL     1      -3.213  -1.175  24.261  0.00  0.00    +0.161 C 
ATOM     10  O   UNL     1      -2.782  -1.878  24.257  0.00  0.00    -0.351 OA
ATOM     11  C   UNL     1      -2.273  -1.571  24.828  0.00  0.00    +0.161 C 
ENDROOT
BRANCH   8   7
ATOM      7  C   UNL     1      -2.194  -0.559  25.404  0.00  0.00    +0.070 C 
BRANCH   7   6
ATOM      4  C   UNL     1      -0.650   0.881  25.093  0.00  0.00    +0.170 A 
ATOM      5  C   UNL     1      -1.336   0.633  25.478  0.00  0.00    +0.055 A 
ATOM      6  C   UNL     1      -1.543  -0.107  25.175  0.00  0.00    +0.102 A 
ATOM     25  N   UNL     1      -0.986  -0.315  24.604  0.00  0.00    -0.082 NA
ATOM     26  O   UNL     1      -0.433   0.296  24.553  0.00  0.00    -0.357 OA
BRANCH   4   3
ATOM      3  C   UNL     1      -0.250   1.591  25.226  0.00  0.00    +0.141 C 
BRANCH   3   2
ATOM      1  C   UNL     1      -0.769   2.496  24.249  0.00  0.00    +0.090 C 
ATOM      2  N   UNL     1      -0.610   2.309  25.036  0.00  0.00    -0.261 NA
BRANCH   2  27
ATOM     27  C   UNL     1      -0.812   2.839  25.635  0.00  0.00    +0.100 C 
BRANCH  27  28
ATOM     28  C   UNL     1      -1.053   3.606  25.445  0.00  0.00    -0.006 A 
ATOM     29  C   UNL     1      -1.824   3.847  25.612  0.00  0.00    -0.003 A 
ATOM     30  C   UNL     1      -2.065   4.613  25.423  0.00  0.00    -0.000 A 
ATOM     31  C   UNL     1      -1.536   5.137  25.066  0.00  0.00    -0.000 A 
ATOM     32  C   UNL     1      -0.765   4.894  24.899  0.00  0.00    -0.000 A 
ATOM     33  C   UNL     1      -0.523   4.129  25.089  0.00  0.00    -0.003 A 
ENDBRANCH  27  28
ENDBRANCH   2  27
ENDBRANCH   3   2
ENDBRANCH   4   3
ENDBRANCH   7   6
ENDBRANCH   8   7
BRANCH   8  12
ATOM     12  N   UNL     1      -3.135  -0.163  24.838  0.00  0.00    -0.211 NA
BRANCH  12  13
ATOM     13  C   UNL     1      -3.956  -0.183  24.758  0.00  0.00    +0.115 C 
BRANCH  13  14
ATOM     14  C   UNL     1      -4.395   0.511  24.840  0.00  0.00    -0.005 A 
ATOM     15  C   UNL     1      -4.960   0.572  25.437  0.00  0.00    +0.000 A 
ATOM     16  C   UNL     1      -5.399   1.267  25.519  0.00  0.00    +0.037 A 
ATOM     17  C   UNL     1      -5.272   1.898  25.005  0.00  0.00    +0.147 A 
ATOM     23  C   UNL     1      -4.707   1.837  24.407  0.00  0.00    +0.037 A 
ATOM     24  C   UNL     1      -4.268   1.143  24.325  0.00  0.00    +0.000 A 
BRANCH  17  18
ATOM     18  O   UNL     1      -5.711   2.592  25.087  0.00  0.00    -0.404 OA
BRANCH  18  19
ATOM     19  C   UNL     1      -5.429   3.206  25.560  0.00  0.00    +0.575 C 
ATOM     20  F   UNL     1      -5.148   3.819  26.034  0.00  0.00    -0.133 F 
ATOM     21  F   UNL     1      -5.061   3.544  24.903  0.00  0.00    -0.133 F 
ATOM     22  F   UNL     1      -5.797   2.868  26.217  0.00  0.00    -0.133 F 
ENDBRANCH  18  19
ENDBRANCH  17  18
ENDBRANCH  13  14
ENDBRANCH  12  13
ENDBRANCH   8  12
TORSDOF 11
ENDMDL
MODEL 4
REMARK VINA RESULT:     -10.9      1.856      4.090
REMARK  Name = 
REMARK  11 active torsions:
REMARK  status: ('A' for Active; 'I' for Inactive)
REMARK    1  A    between atoms: N_2  and  C_3
REMARK    2  A    between atoms: N_2  and  C_27
REMARK    3  A    between atoms: C_3  and  C_4
REMARK    4  A    between atoms: C_6  and  C_7
REMARK    5  A    between atoms: C_7  and  C_8
REMARK    6  A    between atoms: C_8  and  N_12
REMARK    7  A    between atoms: N_12  and  C_13
REMARK    8  A    between atoms: C_13  and  C_14
REMARK    9  A    between atoms: C_17  and  O_18
REMARK   10  A    between atoms: O_18  and  C_19
REMARK   11  A    between atoms: C_27  and  C_28
REMARK                            x       y       z     vdW  Elec       q    Type
REMARK                         _______ _______ _______ _____ _____    ______ ____
ROOT
ATOM      8  C   UNL     1      -0.497   1.694  25.113  0.00  0.00    +0.120 C 
ATOM      9  C   UNL     1      -0.195   1.245  24.489  0.00  0.00    +0.161 C 
ATOM     10  O   UNL     1       0.467   1.738  24.457  0.00  0.00    -0.351 OA
ATOM     11  C   UNL     1       0.165   2.185  25.080  0.00  0.00    +0.161 C 
ENDROOT
BRANCH   8   7
ATOM      7  C   UNL     1      -0.800   2.141  25.736  0.00  0.00    +0.070 C 
BRANCH   7   6
ATOM      4  C   UNL     1      -2.335   3.613  25.559  0.00  0.00    +0.170 A 
ATOM      5  C   UNL     1      -2.062   2.888  25.841  0.00  0.00    +0.055 A 
ATOM      6  C   UNL     1      -1.285   2.790  25.580  0.00  0.00    +0.102 A 
ATOM     25  N   UNL     1      -1.078   3.454  25.137  0.00  0.00    -0.082 NA
ATOM     26  O   UNL     1      -1.727   3.963  25.124  0.00  0.00    -0.357 OA
BRANCH   4   3
ATOM      3  C   UNL     1      -3.085   3.932  25.688  0.00  0.00    +0.141 C 
BRANCH   3   2
ATOM      1  C   UNL     1      -3.516   3.655  24.355  0.00  0.00    +0.090 C 
ATOM      2  N   UNL     1      -3.693   3.790  25.149  0.00  0.00    -0.261 NA
BRANCH   2  27
ATOM     27  C   UNL     1      -4.477   3.785  25.404  0.00  0.00    +0.100 C 
BRANCH  27  28
ATOM     28  C   UNL     1      -4.929   3.097  25.338  0.00  0.00    -0.006 A 
ATOM     29  C   UNL     1      -5.327   2.801  25.998  0.00  0.00    -0.003 A 
ATOM     30  C   UNL     1      -5.778   2.114  25.933  0.00  0.00    -0.000 A 
ATOM     31  C   UNL     1      -5.832   1.723  25.208  0.00  0.00    -0.000 A 
ATOM     32  C   UNL     1      -5.434   2.019  24.549  0.00  0.00    -0.000 A 
ATOM     33  C   UNL     1      -4.982   2.706  24.614  0.00  0.00    -0.003 A 
ENDBRANCH  27  28
ENDBRANCH   2  27
ENDBRANCH   3   2
ENDBRANCH   4   3
ENDBRANCH   7   6
ENDBRANCH   8   7
BRANCH   8  12
ATOM     12  N   UNL     1      -1.159   1.201  25.145  0.00  0.00    -0.211 NA
BRANCH  12  13
ATOM     13  C   UNL     1      -1.072   0.387  25.039  0.00  0.00    +0.115 C 
BRANCH  13  14
ATOM     14  C   UNL     1      -1.731  -0.107  25.085  0.00  0.00    -0.005 A 
ATOM     15  C   UNL     1      -2.281  -0.118  24.470  0.00  0.00    +0.000 A 
ATOM     16  C   UNL     1      -2.940  -0.612  24.515  0.00  0.00    +0.037 A 
ATOM     17  C   UNL     1      -3.050  -1.093  25.175  0.00  0.00    +0.147 A 
ATOM     23  C   UNL     1      -2.500  -1.082  25.790  0.00  0.00    +0.037 A 
ATOM     24  C   UNL     1      -1.841  -0.588  25.744  0.00  0.00    +0.000 A 
BRANCH  17  18
ATOM     18  O   UNL     1      -3.709  -1.587  25.220  0.00  0.00    -0.404 OA
BRANCH  18  19
ATOM     19  C   UNL     1      -3.775  -2.237  24.716  0.00  0.00    +0.575 C 
ATOM     20  F   UNL     1      -3.840  -2.887  24.214  0.00  0.00    -0.133 F 
ATOM     21  F   UNL     1      -4.215  -1.782  24.187  0.00  0.00    -0.133 F 
ATOM     22  F   UNL     1      -3.335  -2.691  25.246  0.00  0.00    -0.133 F 
ENDBRANCH  18  19
ENDBRANCH  17  18
ENDBRANCH  13  14
ENDBRANCH  12  13
ENDBRANCH   8  12
TORSDOF 11
ENDMDL
MODEL 5
REMARK VINA RESULT:     -10.8      1.973      3.582
REMARK  Name = 
REMARK  11 active torsions:
REMARK  status: ('A' for Active; 'I' for Inactive)
REMARK    1  A    between atoms: N_2  and  C_3
REMARK    2  A    between atoms: N_2  and  C_27
REMARK    3  A    between atoms: C_3  and  C_4
REMARK    4  A    between atoms: C_6  and  C_7
REMARK    5  A    between atoms: C_7  and  C_8
REMARK    6  A    between atoms: C_8  and  N_12
REMARK    7  A    between atoms: N_12  and  C_13
REMARK    8  A    between atoms: C_13  and  C_14
REMARK    9  A    between atoms: C_17  and  O_18
REMARK   10  A    between atoms: O_18  and  C_19
REMARK   11  A    between atoms: C_27  and  C_28
REMARK                            x       y       z     vdW  Elec       q    Type
REMARK                         _______ _______ _______ _____ _____    ______ ____
ROOT
ATOM      8  C   UNL     1      -0.357  -0.191  24.405  0.00  0.00    +0.120 C 
ATOM      9  C   UNL     1       0.041   0.124  23.754  0.00  0.00    +0.161 C 
ATOM     10  O   UNL     1       0.279  -0.635  23.533  0.00  0.00    -0.351 OA
ATOM     11  C   UNL     1      -0.119  -0.949  24.184  0.00  0.00    +0.161 C 
ENDROOT
BRANCH   8   7
ATOM      7  C   UNL     1      -0.755  -0.505  25.055  0.00  0.00    +0.070 C 
BRANCH   7   6
ATOM      4  C   UNL     1      -2.861  -0.854  25.083  0.00  0.00    +0.170 A 
ATOM      5  C   UNL     1      -2.201  -0.408  25.302  0.00  0.00    +0.055 A 
ATOM      6  C   UNL     1      -1.533  -0.767  24.975  0.00  0.00    +0.102 A 
ATOM     25  N   UNL     1      -1.779  -1.433  24.556  0.00  0.00    -0.082 NA
ATOM     26  O   UNL     1      -2.600  -1.487  24.623  0.00  0.00    -0.357 OA
BRANCH   4   3
ATOM      3  C   UNL     1      -3.643  -0.693  25.289  0.00  0.00    +0.141 C 
BRANCH   3   2
ATOM      1  C   UNL     1      -4.390  -0.097  24.227  0.00  0.00    +0.090 C 
ATOM      2  N   UNL     1      -4.029  -0.039  24.967  0.00  0.00    -0.261 NA
BRANCH   2  27
ATOM     27  C   UNL     1      -4.055   0.671  25.384  0.00  0.00    +0.100 C 
BRANCH  27  28
ATOM     28  C   UNL     1      -4.596   1.257  25.171  0.00  0.00    -0.006 A 
ATOM     29  C   UNL     1      -4.368   1.858  24.653  0.00  0.00    -0.003 A 
ATOM     30  C   UNL     1      -4.908   2.444  24.439  0.00  0.00    -0.000 A 
ATOM     31  C   UNL     1      -5.675   2.429  24.743  0.00  0.00    -0.000 A 
ATOM     32  C   UNL     1      -5.902   1.828  25.261  0.00  0.00    -0.000 A 
ATOM     33  C   UNL     1      -5.362   1.242  25.475  0.00  0.00    -0.003 A 
ENDBRANCH  27  28
ENDBRANCH   2  27
ENDBRANCH   3   2
ENDBRANCH   4   3
ENDBRANCH   7   6
ENDBRANCH   8   7
BRANCH   8  12
ATOM     12  N   UNL     1      -0.595   0.568  24.625  0.00  0.00    -0.211 NA
BRANCH  12  13
ATOM     13  C   UNL     1      -0.066   1.199  24.567  0.00  0.00    +0.115 C 
BRANCH  13  14
ATOM     14  C   UNL     1      -0.299   1.955  24.802  0.00  0.00    -0.005 A 
ATOM     15  C   UNL     1      -0.652   2.464  24.258  0.00  0.00    +0.000 A 
ATOM     16  C   UNL     1      -0.885   3.220  24.493  0.00  0.00    +0.037 A 
ATOM     17  C   UNL     1      -0.765   3.466  25.270  0.00  0.00    +0.147 A 
ATOM     23  C   UNL     1      -0.412   2.957  25.814  0.00  0.00    +0.037 A 
ATOM     24  C   UNL     1      -0.179   2.201  25.579  0.00  0.00    +0.000 A 
BRANCH  17  18
ATOM     18  O   UNL     1      -0.998   4.222  25.505  0.00  0.00    -0.404 OA
BRANCH  18  19
ATOM     19  C   UNL     1      -1.795   4.435  25.482  0.00  0.00    +0.575 C 
ATOM     20  F   UNL     1      -2.591   4.648  25.461  0.00  0.00    -0.133 F 
ATOM     21  F   UNL     1      -1.659   4.868  24.793  0.00  0.00    -0.133 F 
ATOM     22  F   UNL     1      -1.929   4.002  26.172  0.00  0.00    -0.133 F 
ENDBRANCH  18  19
ENDBRANCH  17  18
ENDBRANCH  13  14
ENDBRANCH  12  13
ENDBRANCH   8  12
TORSDOF 11
ENDMDL
MODEL 6
REMARK VINA RESULT:     -10.8      2.314      5.110
REMARK  Name = 
REMARK  11 active torsions:
REMARK  status: ('A' for Active; 'I' for Inactive)
REMARK    1  A    between atoms: N_2  and  C_3
REMARK    2  A    between atoms: N_2  and  C_27
REMARK    3  A    between atoms: C_3  and  C_4
REMARK    4  A    between atoms: C_6  and  C_7
REMARK    5  A    between atoms: C_7  and  C_8
REMARK    6  A    between atoms: C_8  and  N_12
REMARK    7  A    between atoms: N_12  and  C_13
REMARK    8  A    between atoms: C_13  and  C_14
REMARK    9  A    between atoms: C_17  and  O_18
REMARK   10  A    between atoms: O_18  and  C_19
REMARK   11  A    between atoms: C_27  and  C_28
REMARK                            x       y       z     vdW  Elec       q    Type
REMARK                         _______ _______ _______ _____ _____    ______ ____
ROOT
ATOM      8  C   UNL     1      -5.220   1.626  24.975  0.00  0.00    +0.120 C 
ATOM      9  C   UNL     1      -5.593   1.170  25.553  0.00  0.00    +0.161 C 
ATOM     10  O   UNL     1      -6.239   1.683  25.540  0.00  0.00    -0.351 OA
ATOM     11  C   UNL     1      -5.866   2.139  24.963  0.00  0.00    +0.161 C 
ENDROOT
BRANCH   8   7
ATOM      7  C   UNL     1      -4.847   2.081  24.397  0.00  0.00    +0.070 C 
BRANCH   7   6
ATOM      4  C   UNL     1      -3.414   3.627  24.736  0.00  0.00    +0.170 A 
ATOM      5  C   UNL     1      -3.630   2.907  24.396  0.00  0.00    +0.055 A 
ATOM      6  C   UNL     1      -4.410   2.746  24.616  0.00  0.00    +0.102 A 
ATOM     25  N   UNL     1      -4.675   3.366  25.090  0.00  0.00    -0.082 NA
ATOM     26  O   UNL     1      -4.060   3.911  25.165  0.00  0.00    -0.357 OA
BRANCH   4   3
ATOM      3  C   UNL     1      -2.681   3.998  24.660  0.00  0.00    +0.141 C 
BRANCH   3   2
ATOM      1  C   UNL     1      -2.370   3.859  26.048  0.00  0.00    +0.090 C 
ATOM      2  N   UNL     1      -2.123   3.937  25.265  0.00  0.00    -0.261 NA
BRANCH   2  27
ATOM     27  C   UNL     1      -1.318   3.954  25.085  0.00  0.00    +0.100 C 
BRANCH  27  28
ATOM     28  C   UNL     1      -0.849   3.290  25.226  0.00  0.00    -0.006 A 
ATOM     29  C   UNL     1      -0.550   2.855  24.591  0.00  0.00    -0.003 A 
ATOM     30  C   UNL     1      -0.081   2.192  24.731  0.00  0.00    -0.000 A 
ATOM     31  C   UNL     1       0.090   1.962  25.506  0.00  0.00    -0.000 A 
ATOM     32  C   UNL     1      -0.209   2.398  26.140  0.00  0.00    -0.000 A 
ATOM     33  C   UNL     1      -0.678   3.061  26.000  0.00  0.00    -0.003 A 
ENDBRANCH  27  28
ENDBRANCH   2  27
ENDBRANCH   3   2
ENDBRANCH   4   3
ENDBRANCH   7   6
ENDBRANCH   8   7
BRANCH   8  12
ATOM     12  N   UNL     1      -4.574   1.112  24.988  0.00  0.00    -0.211 NA
BRANCH  12  13
ATOM     13  C   UNL     1      -4.697   0.296  24.989  0.00  0.00    +0.115 C 
BRANCH  13  14
ATOM     14  C   UNL     1      -4.051  -0.218  24.994  0.00  0.00    -0.005 A 
ATOM     15  C   UNL     1      -3.853  -0.636  24.311  0.00  0.00    +0.000 A 
ATOM     16  C   UNL     1      -3.207  -1.149  24.316  0.00  0.00    +0.037 A 
ATOM     17  C   UNL     1      -2.761  -1.245  25.002  0.00  0.00    +0.147 A 
ATOM     23  C   UNL     1      -2.959  -0.827  25.685  0.00  0.00    +0.037 A 
ATOM     24  C   UNL     1      -3.605  -0.313  25.680  0.00  0.00    +0.000 A 
BRANCH  17  18
ATOM     18  O   UNL     1      -2.115  -1.759  25.007  0.00  0.00    -0.404 OA
BRANCH  18  19
ATOM     19  C   UNL     1      -1.361  -1.477  24.824  0.00  0.00    +0.575 C 
ATOM     20  F   UNL     1      -0.608  -1.196  24.640  0.00  0.00    -0.133 F 
ATOM     21  F   UNL     1      -1.257  -1.245  25.609  0.00  0.00    -0.133 F 
ATOM     22  F   UNL     1      -1.466  -1.710  24.039  0.00  0.00    -0.133 F 
ENDBRANCH  18  19
ENDBRANCH  17  18
ENDBRANCH  13  14
ENDBRANCH  12  13
ENDBRANCH   8  12
TORSDOF 11
ENDMDL
