MODEL 1
REMARK VINA RESULT:     -10.9      0.000      0.000
REMARK  Name = 
REMARK  5 active torsions:
REMARK  status: ('A' for Active; 'I' for Inactive)
REMARK    1  A    between atoms: O_2  and  C_3
REMARK    2  A    between atoms: C_6  and  C_7
REMARK    3  A    between atoms: C_7  and  N_8
REMARK    4  A    between atoms: N_12  and  C_13
REMARK    5  A    between atoms: C_13  and  C_14
REMARK                            x       y       z     vdW  Elec       q    Type
REMARK                         _______ _______ _______ _____ _____    ______ ____
ROOT
ATOM      8  N   UNL     1      -4.235   2.690  25.203  0.00  0.00    -0.258 N 
ATOM      9  C   UNL     1      -3.711   2.245  24.745  0.00  0.00    +0.116 C 
ATOM     10  C   UNL     1      -4.023   1.486  24.667  0.00  0.00    +0.113 C 
ATOM     11  C   UNL     1      -3.748   0.814  24.276  0.00  0.00    +0.094 C 
ATOM     12  N   UNL     1      -4.187   0.116  24.294  0.00  0.00    -0.266 NA
ATOM     21  C   UNL     1      -4.903   0.091  24.703  0.00  0.00    +0.094 C 
ATOM     22  C   UNL     1      -5.179   0.762  25.094  0.00  0.00    +0.112 C 
ATOM     23  N   UNL     1      -4.739   1.461  25.076  0.00  0.00    -0.261 N 
ATOM     24  C   UNL     1      -4.870   2.204  25.407  0.00  0.00    +0.308 C 
ATOM     25  O   UNL     1      -5.522   2.424  25.863  0.00  0.00    -0.252 OA
ENDROOT
BRANCH   8   7
ATOM      7  C   UNL     1      -4.141   3.480  25.418  0.00  0.00    +0.122 C 
BRANCH   7   6
ATOM      3  C   UNL     1      -1.902   4.532  25.318  0.00  0.00    +0.139 A 
ATOM      4  C   UNL     1      -2.156   4.168  26.013  0.00  0.00    +0.037 A 
ATOM      5  C   UNL     1      -2.902   3.817  26.047  0.00  0.00    +0.001 A 
ATOM      6  C   UNL     1      -3.395   3.831  25.385  0.00  0.00    -0.002 A 
ATOM     26  C   UNL     1      -3.141   4.195  24.689  0.00  0.00    +0.001 A 
ATOM     27  C   UNL     1      -2.395   4.546  24.656  0.00  0.00    +0.037 A 
BRANCH   3   2
ATOM      1  C   UNL     1      -0.557   4.537  24.836  0.00  0.00    +0.252 C 
ATOM      2  O   UNL     1      -1.156   4.883  25.284  0.00  0.00    -0.471 OA
ENDBRANCH   3   2
ENDBRANCH   7   6
ENDBRANCH   8   7
BRANCH  12  13
ATOM     13  C   UNL     1      -3.912  -0.556  23.903  0.00  0.00    +0.102 C 
BRANCH  13  14
ATOM     14  C   UNL     1      -3.726  -1.236  24.331  0.00  0.00    +0.024 A 
ATOM     15  C   UNL     1      -3.296  -1.178  25.032  0.00  0.00    +0.020 A 
ATOM     16  C   UNL     1      -3.110  -1.857  25.461  0.00  0.00    +0.099 A 
ATOM     17  N   UNL     1      -3.355  -2.596  25.188  0.00  0.00    -0.240 NA
ATOM     18  C   UNL     1      -3.785  -2.656  24.487  0.00  0.00    +0.128 A 
ATOM     19  C   UNL     1      -3.971  -1.975  24.058  0.00  0.00    +0.157 A 
ATOM     20  F   UNL     1      -4.402  -2.034  23.357  0.00  0.00    -0.203 F 
ENDBRANCH  13  14
ENDBRANCH  12  13
TORSDOF 5
ENDMDL
MODEL 2
REMARK VINA RESULT:     -10.9      2.212      4.872
REMARK  Name = 
REMARK  5 active torsions:
REMARK  status: ('A' for Active; 'I' for Inactive)
REMARK    1  A    between atoms: O_2  and  C_3
REMARK    2  A    between atoms: C_6  and  C_7
REMARK    3  A    between atoms: C_7  and  N_8
REMARK    4  A    between atoms: N_12  and  C_13
REMARK    5  A    between atoms: C_13  and  C_14
REMARK                            x       y       z     vdW  Elec       q    Type
REMARK                         _______ _______ _______ _____ _____    ______ ____
ROOT
ATOM      8  N   UNL     1      -4.206   0.807  24.707  0.00  0.00    -0.258 N 
ATOM      9  C   UNL     1      -3.421   0.890  24.464  0.00  0.00    +0.116 C 
ATOM     10  C   UNL     1      -3.182   1.660  24.636  0.00  0.00    +0.113 C 
ATOM     11  C   UNL     1      -2.467   2.056  24.521  0.00  0.00    +0.094 C 
ATOM     12  N   UNL     1      -2.388   2.843  24.753  0.00  0.00    -0.266 NA
ATOM     21  C   UNL     1      -3.024   3.235  25.102  0.00  0.00    +0.094 C 
ATOM     22  C   UNL     1      -3.739   2.841  25.218  0.00  0.00    +0.112 C 
ATOM     23  N   UNL     1      -3.818   2.053  24.985  0.00  0.00    -0.261 N 
ATOM     24  C   UNL     1      -4.451   1.526  25.029  0.00  0.00    +0.308 C 
ATOM     25  O   UNL     1      -5.198   1.689  25.339  0.00  0.00    -0.252 OA
ENDROOT
BRANCH   8   7
ATOM      7  C   UNL     1      -4.664   0.125  24.639  0.00  0.00    +0.122 C 
BRANCH   7   6
ATOM      3  C   UNL     1      -3.579  -2.099  24.601  0.00  0.00    +0.139 A 
ATOM      4  C   UNL     1      -3.600  -1.663  25.300  0.00  0.00    +0.037 A 
ATOM      5  C   UNL     1      -3.962  -0.921  25.314  0.00  0.00    +0.001 A 
ATOM      6  C   UNL     1      -4.302  -0.616  24.627  0.00  0.00    -0.002 A 
ATOM     26  C   UNL     1      -4.281  -1.053  23.927  0.00  0.00    +0.001 A 
ATOM     27  C   UNL     1      -3.920  -1.794  23.915  0.00  0.00    +0.037 A 
BRANCH   3   2
ATOM      1  C   UNL     1      -2.401  -2.900  24.490  0.00  0.00    +0.252 C 
ATOM      2  O   UNL     1      -3.217  -2.841  24.588  0.00  0.00    -0.471 OA
ENDBRANCH   3   2
ENDBRANCH   7   6
ENDBRANCH   8   7
BRANCH  12  13
ATOM     13  C   UNL     1      -1.673   3.238  24.638  0.00  0.00    +0.102 C 
BRANCH  13  14
ATOM     14  C   UNL     1      -0.997   2.996  25.043  0.00  0.00    +0.024 A 
ATOM     15  C   UNL     1      -1.003   2.954  25.868  0.00  0.00    +0.020 A 
ATOM     16  C   UNL     1      -0.327   2.712  26.273  0.00  0.00    +0.099 A 
ATOM     17  N   UNL     1       0.356   2.513  25.855  0.00  0.00    -0.240 NA
ATOM     18  C   UNL     1       0.363   2.555  25.032  0.00  0.00    +0.128 A 
ATOM     19  C   UNL     1      -0.314   2.797  24.625  0.00  0.00    +0.157 A 
ATOM     20  F   UNL     1      -0.307   2.839  23.802  0.00  0.00    -0.203 F 
ENDBRANCH  13  14
ENDBRANCH  12  13
TORSDOF 5
ENDMDL
MODEL 3
REMARK VINA RESULT:     -10.8      2.237      3.072
REMARK  Name = 
REMARK  5 active torsions:
REMARK  status: ('A' for Active; 'I' for Inactive)
REMARK    1  A    between atoms: O_2  and  C_3
REMARK    2  A    between atoms: C_6  and  C_7
REMARK    3  A    between atoms: C_7  and  N_8
REMARK    4  A    between atoms: N_12  and  C_13
REMARK    5  A    between atoms: C_13  and  C_14
REMARK                            x       y       z     vdW  Elec       q    Type
REMARK                         _______ _______ _______ _____ _____    ______ ____
ROOT
ATOM      8  N   UNL     1      -0.387   1.134  24.955  0.00  0.00    -0.258 N 
ATOM      9  C   UNL     1      -1.063   0.919  25.377  0.00  0.00    +0.116 C 
ATOM     10  C   UNL     1      -1.258   0.146  25.167  0.00  0.00    +0.113 C 
ATOM     11  C   UNL     1      -1.870  -0.353  25.405  0.00  0.00    +0.094 C 
ATOM     12  N   UNL     1      -1.927  -1.115  25.094  0.00  0.00    -0.266 NA
ATOM     21  C   UNL     1      -1.372  -1.377  24.543  0.00  0.00    +0.094 C 
ATOM     22  C   UNL     1      -0.760  -0.879  24.304  0.00  0.00    +0.112 C 
ATOM     23  N   UNL     1      -0.703  -0.117  24.616  0.00  0.00    -0.261 N 
ATOM     24  C   UNL     1      -0.165   0.494  24.485  0.00  0.00    +0.308 C 
ATOM     25  O   UNL     1       0.483   0.469  23.974  0.00  0.00    -0.252 OA
ENDROOT
BRANCH   8   7
ATOM      7  C   UNL     1      -0.000   1.862  24.997  0.00  0.00    +0.122 C 
BRANCH   7   6
ATOM      3  C   UNL     1      -1.312   3.952  25.189  0.00  0.00    +0.139 A 
ATOM      4  C   UNL     1      -1.160   3.628  24.447  0.00  0.00    +0.037 A 
ATOM      5  C   UNL     1      -0.722   2.931  24.382  0.00  0.00    +0.001 A 
ATOM      6  C   UNL     1      -0.438   2.558  25.061  0.00  0.00    -0.002 A 
ATOM     26  C   UNL     1      -0.590   2.883  25.805  0.00  0.00    +0.001 A 
ATOM     27  C   UNL     1      -1.028   3.579  25.868  0.00  0.00    +0.037 A 
BRANCH   3   2
ATOM      1  C   UNL     1      -1.400   5.373  25.077  0.00  0.00    +0.252 C 
ATOM      2  O   UNL     1      -1.750   4.648  25.254  0.00  0.00    -0.471 OA
ENDBRANCH   3   2
ENDBRANCH   7   6
ENDBRANCH   8   7
BRANCH  12  13
ATOM     13  C   UNL     1      -2.539  -1.614  25.333  0.00  0.00    +0.102 C 
BRANCH  13  14
ATOM     14  C   UNL     1      -3.172  -1.764  24.826  0.00  0.00    +0.024 A 
ATOM     15  C   UNL     1      -3.572  -1.137  24.469  0.00  0.00    +0.020 A 
ATOM     16  C   UNL     1      -4.205  -1.286  23.962  0.00  0.00    +0.099 A 
ATOM     17  N   UNL     1      -4.438  -2.063  23.811  0.00  0.00    -0.240 NA
ATOM     18  C   UNL     1      -4.038  -2.691  24.168  0.00  0.00    +0.128 A 
ATOM     19  C   UNL     1      -3.405  -2.541  24.675  0.00  0.00    +0.157 A 
ATOM     20  F   UNL     1      -3.005  -3.168  25.032  0.00  0.00    -0.203 F 
ENDBRANCH  13  14
ENDBRANCH  12  13
TORSDOF 5
ENDMDL
MODEL 4
REMARK VINA RESULT:     -10.2      2.997      5.883
REMARK  Name = 
REMARK  5 active torsions:
REMARK  status: ('A' for Active; 'I' for Inactive)
REMARK    1  A    between atoms: O_2  and  C_3
REMARK    2  A    between atoms: C_6  and  C_7
REMARK    3  A    between atoms: C_7  and  N_8
REMARK    4  A    between atoms: N_12  and  C_13
REMARK    5  A    between atoms: C_13  and  C_14
REMARK                            x       y       z     vdW  Elec       q    Type
REMARK                         _______ _______ _______ _____ _____    ______ ____
ROOT
ATOM      8  N   UNL     1      -0.749  -0.420  25.083  0.00  0.00    -0.258 N 
ATOM      9  C   UNL     1      -0.997   0.134  25.642  0.00  0.00    +0.116 C 
ATOM     10  C   UNL     1      -0.743   0.878  25.393  0.00  0.00    +0.113 C 
ATOM     11  C   UNL     1      -0.827   1.630  25.722  0.00  0.00    +0.094 C 
ATOM     12  N   UNL     1      -0.508   2.287  25.340  0.00  0.00    -0.266 NA
ATOM     21  C   UNL     1      -0.103   2.192  24.627  0.00  0.00    +0.094 C 
ATOM     22  C   UNL     1      -0.018   1.441  24.297  0.00  0.00    +0.112 C 
ATOM     23  N   UNL     1      -0.338   0.784  24.680  0.00  0.00    -0.261 N 
ATOM     24  C   UNL     1      -0.342  -0.018  24.489  0.00  0.00    +0.308 C 
ATOM     25  O   UNL     1       0.001  -0.359  23.820  0.00  0.00    -0.252 OA
ENDROOT
BRANCH   8   7
ATOM      7  C   UNL     1      -0.884  -1.233  25.114  0.00  0.00    +0.122 C 
BRANCH   7   6
ATOM      3  C   UNL     1      -3.166  -2.124  24.759  0.00  0.00    +0.139 A 
ATOM      4  C   UNL     1      -3.011  -1.633  25.403  0.00  0.00    +0.037 A 
ATOM      5  C   UNL     1      -2.250  -1.336  25.522  0.00  0.00    +0.001 A 
ATOM      6  C   UNL     1      -1.645  -1.530  24.996  0.00  0.00    -0.002 A 
ATOM     26  C   UNL     1      -1.800  -2.021  24.351  0.00  0.00    +0.001 A 
ATOM     27  C   UNL     1      -2.561  -2.318  24.233  0.00  0.00    +0.037 A 
BRANCH   3   2
ATOM      1  C   UNL     1      -4.317  -2.283  23.927  0.00  0.00    +0.252 C 
ATOM      2  O   UNL     1      -3.927  -2.421  24.640  0.00  0.00    -0.471 OA
ENDBRANCH   3   2
ENDBRANCH   7   6
ENDBRANCH   8   7
BRANCH  12  13
ATOM     13  C   UNL     1      -0.593   3.038  25.669  0.00  0.00    +0.102 C 
BRANCH  13  14
ATOM     14  C   UNL     1      -1.243   3.505  25.472  0.00  0.00    +0.024 A 
ATOM     15  C   UNL     1      -2.006   3.196  25.530  0.00  0.00    +0.020 A 
ATOM     16  C   UNL     1      -2.656   3.663  25.332  0.00  0.00    +0.099 A 
ATOM     17  N   UNL     1      -2.544   4.439  25.076  0.00  0.00    -0.240 NA
ATOM     18  C   UNL     1      -1.782   4.749  25.018  0.00  0.00    +0.128 A 
ATOM     19  C   UNL     1      -1.131   4.281  25.216  0.00  0.00    +0.157 A 
ATOM     20  F   UNL     1      -0.369   4.591  25.158  0.00  0.00    -0.203 F 
ENDBRANCH  13  14
ENDBRANCH  12  13
TORSDOF 5
ENDMDL
MODEL 5
REMARK VINA RESULT:     -10.1      1.911      2.852
REMARK  Name = 
REMARK  5 active torsions:
REMARK  status: ('A' for Active; 'I' for Inactive)
REMARK    1  A    between atoms: O_2  and  C_3
REMARK    2  A    between atoms: C_6  and  C_7
REMARK    3  A    between atoms: C_7  and  N_8
REMARK    4  A    between atoms: N_12  and  C_13
REMARK    5  A    between atoms: C_13  and  C_14
REMARK                            x       y       z     vdW  Elec       q    Type
REMARK                         _______ _______ _______ _____ _____    ______ ____
ROOT
ATOM      8  N   UNL     1      -1.749   2.174  24.735  0.00  0.00    -0.258 N 
ATOM      9  C   UNL     1      -2.122   1.593  25.188  0.00  0.00    +0.116 C 
ATOM     10  C   UNL     1      -1.779   0.867  25.003  0.00  0.00    +0.113 C 
ATOM     11  C   UNL     1      -1.923   0.102  25.277  0.00  0.00    +0.094 C 
ATOM     12  N   UNL     1      -1.483  -0.531  24.986  0.00  0.00    -0.266 NA
ATOM     21  C   UNL     1      -0.897  -0.400  24.419  0.00  0.00    +0.094 C 
ATOM     22  C   UNL     1      -0.752   0.364  24.144  0.00  0.00    +0.112 C 
ATOM     23  N   UNL     1      -1.193   0.998  24.437  0.00  0.00    -0.261 N 
ATOM     24  C   UNL     1      -1.175   1.806  24.271  0.00  0.00    +0.308 C 
ATOM     25  O   UNL     1      -0.671   2.180  23.735  0.00  0.00    -0.252 OA
ENDROOT
BRANCH   8   7
ATOM      7  C   UNL     1      -1.920   2.981  24.745  0.00  0.00    +0.122 C 
BRANCH   7   6
ATOM      3  C   UNL     1      -4.223   3.754  25.218  0.00  0.00    +0.139 A 
ATOM      4  C   UNL     1      -4.024   3.488  24.463  0.00  0.00    +0.037 A 
ATOM      5  C   UNL     1      -3.256   3.230  24.305  0.00  0.00    +0.001 A 
ATOM      6  C   UNL     1      -2.687   3.239  24.902  0.00  0.00    -0.002 A 
ATOM     26  C   UNL     1      -2.886   3.506  25.658  0.00  0.00    +0.001 A 
ATOM     27  C   UNL     1      -3.654   3.763  25.815  0.00  0.00    +0.037 A 
BRANCH   3   2
ATOM      1  C   UNL     1      -5.564   3.474  25.622  0.00  0.00    +0.252 C 
ATOM      2  O   UNL     1      -4.990   4.012  25.376  0.00  0.00    -0.471 OA
ENDBRANCH   3   2
ENDBRANCH   7   6
ENDBRANCH   8   7
BRANCH  12  13
ATOM     13  C   UNL     1      -1.627  -1.296  25.260  0.00  0.00    +0.102 C 
BRANCH  13  14
ATOM     14  C   UNL     1      -2.268  -1.725  24.969  0.00  0.00    +0.024 A 
ATOM     15  C   UNL     1      -3.035  -1.433  25.057  0.00  0.00    +0.020 A 
ATOM     16  C   UNL     1      -3.676  -1.861  24.766  0.00  0.00    +0.099 A 
ATOM     17  N   UNL     1      -3.551  -2.583  24.387  0.00  0.00    -0.240 NA
ATOM     18  C   UNL     1      -2.785  -2.876  24.298  0.00  0.00    +0.128 A 
ATOM     19  C   UNL     1      -2.143  -2.446  24.589  0.00  0.00    +0.157 A 
ATOM     20  F   UNL     1      -1.377  -2.739  24.501  0.00  0.00    -0.203 F 
ENDBRANCH  13  14
ENDBRANCH  12  13
TORSDOF 5
ENDMDL
MODEL 6
REMARK VINA RESULT:     -10.0      2.665      4.830
REMARK  Name = 
REMARK  5 active torsions:
REMARK  status: ('A' for Active; 'I' for Inactive)
REMARK    1  A    between atoms: O_2  and  C_3
REMARK    2  A    between atoms: C_6  and  C_7
REMARK    3  A    between atoms: C_7  and  N_8
REMARK    4  A    between atoms: N_12  and  C_13
REMARK    5  A    between atoms: C_13  and  C_14
REMARK                            x       y       z     vdW  Elec       q    Type
REMARK                         _______ _______ _______ _____ _____    ______ ____
ROOT
ATOM      8  N   UNL     1      -1.031   1.547  25.105  0.00  0.00    -0.258 N 
ATOM      9  C   UNL     1      -1.738   1.517  24.679  0.00  0.00    +0.116 C 
ATOM     10  C   UNL     1      -2.172   2.194  24.860  0.00  0.00    +0.113 C 
ATOM     11  C   UNL     1      -2.911   2.460  24.605  0.00  0.00    +0.094 C 
ATOM     12  N   UNL     1      -3.211   3.175  24.887  0.00  0.00    -0.266 NA
ATOM     21  C   UNL     1      -2.774   3.623  25.423  0.00  0.00    +0.094 C 
ATOM     22  C   UNL     1      -2.036   3.357  25.679  0.00  0.00    +0.112 C 
ATOM     23  N   UNL     1      -1.735   2.642  25.397  0.00  0.00    -0.261 N 
ATOM     24  C   UNL     1      -1.030   2.242  25.548  0.00  0.00    +0.308 C 
ATOM     25  O   UNL     1      -0.428   2.494  26.054  0.00  0.00    -0.252 OA
ENDROOT
BRANCH   8   7
ATOM      7  C   UNL     1      -0.431   0.980  25.089  0.00  0.00    +0.122 C 
BRANCH   7   6
ATOM      3  C   UNL     1      -0.997  -1.418  24.861  0.00  0.00    +0.139 A 
ATOM      4  C   UNL     1      -1.134  -1.028  25.575  0.00  0.00    +0.037 A 
ATOM      5  C   UNL     1      -0.946  -0.229  25.652  0.00  0.00    +0.001 A 
ATOM      6  C   UNL     1      -0.620   0.181  25.014  0.00  0.00    -0.002 A 
ATOM     26  C   UNL     1      -0.483  -0.209  24.299  0.00  0.00    +0.001 A 
ATOM     27  C   UNL     1      -0.672  -1.009  24.224  0.00  0.00    +0.037 A 
BRANCH   3   2
ATOM      1  C   UNL     1      -1.937  -2.443  24.531  0.00  0.00    +0.252 C 
ATOM      2  O   UNL     1      -1.186  -2.218  24.785  0.00  0.00    -0.471 OA
ENDBRANCH   3   2
ENDBRANCH   7   6
ENDBRANCH   8   7
BRANCH  12  13
ATOM     13  C   UNL     1      -3.949   3.441  24.632  0.00  0.00    +0.102 C 
BRANCH  13  14
ATOM     14  C   UNL     1      -4.637   3.089  24.918  0.00  0.00    +0.024 A 
ATOM     15  C   UNL     1      -4.809   2.304  24.730  0.00  0.00    +0.020 A 
ATOM     16  C   UNL     1      -5.496   1.951  25.016  0.00  0.00    +0.099 A 
ATOM     17  N   UNL     1      -6.014   2.384  25.492  0.00  0.00    -0.240 NA
ATOM     18  C   UNL     1      -5.844   3.168  25.680  0.00  0.00    +0.128 A 
ATOM     19  C   UNL     1      -5.155   3.521  25.393  0.00  0.00    +0.157 A 
ATOM     20  F   UNL     1      -4.985   4.306  25.582  0.00  0.00    -0.203 F 
ENDBRANCH  13  14
ENDBRANCH  12  13
TORSDOF 5
ENDMDL
