MODEL 1
REMARK VINA RESULT:     -11.0      0.000      0.000
REMARK  Name = 
REMARK  4 active torsions:
REMARK  status: ('A' for Active; 'I' for Inactive)
REMARK    1  A    between atoms: N_2  and  C_4
REMARK    2  A    between atoms: C_7  and  C_10
REMARK    3  A    between atoms: C_13  and  C_15
REMARK    4  A    between atoms: N_19  and  C_20
REMARK                            x       y       z     vdW  Elec       q    Type
REMARK                         _______ _______ _______ _____ _____    ______ ____
ROOT
ATOM     10  C   UNL     1      -3.776   0.836  24.349  0.00  0.00    +0.205 A 
ATOM     11  N   UNL     1      -3.687   1.323  23.689  0.00  0.00    -0.056 NA
ATOM     12  O   UNL     1      -4.016   2.057  23.866  0.00  0.00    -0.336 OA
ATOM     13  C   UNL     1      -4.309   2.025  24.638  0.00  0.00    +0.251 A 
ATOM     14  N   UNL     1      -4.161   1.271  24.935  0.00  0.00    -0.190 NA
ENDROOT
BRANCH  10   7
ATOM      4  C   UNL     1      -3.022  -1.514  24.537  0.00  0.00    +0.132 A 
ATOM      5  C   UNL     1      -3.808  -1.347  24.355  0.00  0.00    +0.034 A 
ATOM      6  C   UNL     1      -4.060  -0.563  24.293  0.00  0.00    +0.008 A 
ATOM      7  C   UNL     1      -3.525   0.053  24.411  0.00  0.00    +0.058 A 
ATOM      8  C   UNL     1      -2.737  -0.115  24.594  0.00  0.00    +0.103 A 
ATOM      9  N   UNL     1      -2.486  -0.898  24.656  0.00  0.00    -0.229 NA
BRANCH   4   2
ATOM      1  C   UNL     1      -3.315  -2.892  24.778  0.00  0.00    +0.114 C 
ATOM      2  N   UNL     1      -2.771  -2.297  24.600  0.00  0.00    -0.290 N 
ATOM      3  C   UNL     1      -1.976  -2.486  24.485  0.00  0.00    +0.114 C 
ENDBRANCH   4   2
ENDBRANCH  10   7
BRANCH  13  15
ATOM     15  C   UNL     1      -4.685   2.640  25.039  0.00  0.00    +0.138 C 
ATOM     16  C   UNL     1      -5.491   2.692  25.202  0.00  0.00    +0.027 C 
ATOM     17  C   UNL     1      -5.623   3.397  25.612  0.00  0.00    +0.019 C 
ATOM     18  C   UNL     1      -4.898   3.779  25.700  0.00  0.00    +0.072 C 
ATOM     19  N   UNL     1      -4.318   3.313  25.347  0.00  0.00    -0.268 NA
BRANCH  19  20
ATOM     20  C   UNL     1      -3.512   3.486  25.307  0.00  0.00    +0.061 C 
ATOM     21  C   UNL     1      -3.014   3.273  25.930  0.00  0.00    +0.033 C 
ATOM     22  C   UNL     1      -2.208   3.445  25.891  0.00  0.00    +0.074 C 
ATOM     23  N   UNL     1      -1.900   3.831  25.229  0.00  0.00    -0.271 NA
ATOM     24  C   UNL     1      -1.095   4.004  25.191  0.00  0.00    +0.090 C 
ATOM     25  C   UNL     1      -2.398   4.044  24.607  0.00  0.00    +0.074 C 
ATOM     26  C   UNL     1      -3.204   3.871  24.647  0.00  0.00    +0.033 C 
ENDBRANCH  19  20
ENDBRANCH  13  15
TORSDOF 4
ENDMDL
MODEL 2
REMARK VINA RESULT:     -10.6      0.926      2.177
REMARK  Name = 
REMARK  4 active torsions:
REMARK  status: ('A' for Active; 'I' for Inactive)
REMARK    1  A    between atoms: N_2  and  C_4
REMARK    2  A    between atoms: C_7  and  C_10
REMARK    3  A    between atoms: C_13  and  C_15
REMARK    4  A    between atoms: N_19  and  C_20
REMARK                            x       y       z     vdW  Elec       q    Type
REMARK                         _______ _______ _______ _____ _____    ______ ____
ROOT
ATOM     10  C   UNL     1      -2.686   1.078  23.999  0.00  0.00    +0.205 A 
ATOM     11  N   UNL     1      -2.742   1.480  23.281  0.00  0.00    -0.056 NA
ATOM     12  O   UNL     1      -2.452   2.243  23.392  0.00  0.00    -0.336 OA
ATOM     13  C   UNL     1      -2.216   2.314  24.180  0.00  0.00    +0.251 A 
ATOM     14  N   UNL     1      -2.361   1.594  24.555  0.00  0.00    -0.190 NA
ENDROOT
BRANCH  10   7
ATOM      4  C   UNL     1      -3.372  -1.263  24.415  0.00  0.00    +0.132 A 
ATOM      5  C   UNL     1      -3.928  -0.709  24.164  0.00  0.00    +0.034 A 
ATOM      6  C   UNL     1      -3.700   0.071  24.026  0.00  0.00    +0.008 A 
ATOM      7  C   UNL     1      -2.914   0.298  24.138  0.00  0.00    +0.058 A 
ATOM      8  C   UNL     1      -2.357  -0.257  24.390  0.00  0.00    +0.103 A 
ATOM      9  N   UNL     1      -2.586  -1.038  24.528  0.00  0.00    -0.229 NA
BRANCH   4   2
ATOM      1  C   UNL     1      -3.426  -2.403  25.277  0.00  0.00    +0.114 C 
ATOM      2  N   UNL     1      -3.600  -2.044  24.554  0.00  0.00    -0.290 N 
ATOM      3  C   UNL     1      -4.003  -2.466  23.971  0.00  0.00    +0.114 C 
ENDBRANCH   4   2
ENDBRANCH  10   7
BRANCH  13  15
ATOM     15  C   UNL     1      -1.892   2.987  24.530  0.00  0.00    +0.138 C 
ATOM     16  C   UNL     1      -1.093   3.187  24.550  0.00  0.00    +0.027 C 
ATOM     17  C   UNL     1      -1.019   3.903  24.954  0.00  0.00    +0.019 C 
ATOM     18  C   UNL     1      -1.774   4.145  25.183  0.00  0.00    +0.072 C 
ATOM     19  N   UNL     1      -2.314   3.580  24.921  0.00  0.00    -0.268 NA
BRANCH  19  20
ATOM     20  C   UNL     1      -3.131   3.602  25.030  0.00  0.00    +0.061 C 
ATOM     21  C   UNL     1      -3.461   3.307  25.727  0.00  0.00    +0.033 C 
ATOM     22  C   UNL     1      -4.279   3.328  25.837  0.00  0.00    +0.074 C 
ATOM     23  N   UNL     1      -4.766   3.644  25.251  0.00  0.00    -0.271 NA
ATOM     24  C   UNL     1      -5.583   3.665  25.361  0.00  0.00    +0.090 C 
ATOM     25  C   UNL     1      -4.436   3.938  24.555  0.00  0.00    +0.074 C 
ATOM     26  C   UNL     1      -3.618   3.917  24.445  0.00  0.00    +0.033 C 
ENDBRANCH  19  20
ENDBRANCH  13  15
TORSDOF 4
ENDMDL
MODEL 3
REMARK VINA RESULT:     -10.4      1.355      2.586
REMARK  Name = 
REMARK  4 active torsions:
REMARK  status: ('A' for Active; 'I' for Inactive)
REMARK    1  A    between atoms: N_2  and  C_4
REMARK    2  A    between atoms: C_7  and  C_10
REMARK    3  A    between atoms: C_13  and  C_15
REMARK    4  A    between atoms: N_19  and  C_20
REMARK                            x       y       z     vdW  Elec       q    Type
REMARK                         _______ _______ _______ _____ _____    ______ ____
ROOT
ATOM     10  C   UNL     1      -1.575   1.567  24.286  0.00  0.00    +0.205 A 
ATOM     11  N   UNL     1      -1.874   1.883  23.585  0.00  0.00    -0.056 NA
ATOM     12  O   UNL     1      -1.889   2.703  23.660  0.00  0.00    -0.336 OA
ATOM     13  C   UNL     1      -1.599   2.896  24.409  0.00  0.00    +0.251 A 
ATOM     14  N   UNL     1      -1.406   2.194  24.795  0.00  0.00    -0.190 NA
ENDROOT
BRANCH  10   7
ATOM      4  C   UNL     1      -1.245  -0.836  24.775  0.00  0.00    +0.132 A 
ATOM      5  C   UNL     1      -1.970  -0.479  24.936  0.00  0.00    +0.034 A 
ATOM      6  C   UNL     1      -2.080   0.322  24.773  0.00  0.00    +0.008 A 
ATOM      7  C   UNL     1      -1.465   0.766  24.449  0.00  0.00    +0.058 A 
ATOM      8  C   UNL     1      -0.739   0.408  24.288  0.00  0.00    +0.103 A 
ATOM      9  N   UNL     1      -0.629  -0.394  24.451  0.00  0.00    -0.229 NA
BRANCH   4   2
ATOM      1  C   UNL     1      -1.664  -2.196  24.639  0.00  0.00    +0.114 C 
ATOM      2  N   UNL     1      -1.135  -1.638  24.939  0.00  0.00    -0.290 N 
ATOM      3  C   UNL     1      -0.497  -1.881  25.401  0.00  0.00    +0.114 C 
ENDBRANCH   4   2
ENDBRANCH  10   7
BRANCH  13  15
ATOM     15  C   UNL     1      -1.518   3.657  24.716  0.00  0.00    +0.138 C 
ATOM     16  C   UNL     1      -0.824   4.101  24.735  0.00  0.00    +0.027 C 
ATOM     17  C   UNL     1      -0.996   4.827  25.089  0.00  0.00    +0.019 C 
ATOM     18  C   UNL     1      -1.796   4.830  25.288  0.00  0.00    +0.072 C 
ATOM     19  N   UNL     1      -2.120   4.108  25.058  0.00  0.00    -0.268 NA
BRANCH  19  20
ATOM     20  C   UNL     1      -2.906   3.875  25.152  0.00  0.00    +0.061 C 
ATOM     21  C   UNL     1      -3.160   3.569  25.875  0.00  0.00    +0.033 C 
ATOM     22  C   UNL     1      -3.946   3.335  25.970  0.00  0.00    +0.074 C 
ATOM     23  N   UNL     1      -4.477   3.409  25.343  0.00  0.00    -0.271 NA
ATOM     24  C   UNL     1      -5.262   3.176  25.438  0.00  0.00    +0.090 C 
ATOM     25  C   UNL     1      -4.222   3.715  24.621  0.00  0.00    +0.074 C 
ATOM     26  C   UNL     1      -3.436   3.949  24.526  0.00  0.00    +0.033 C 
ENDBRANCH  19  20
ENDBRANCH  13  15
TORSDOF 4
ENDMDL
MODEL 4
REMARK VINA RESULT:      -9.8      1.386      4.630
REMARK  Name = 
REMARK  4 active torsions:
REMARK  status: ('A' for Active; 'I' for Inactive)
REMARK    1  A    between atoms: N_2  and  C_4
REMARK    2  A    between atoms: C_7  and  C_10
REMARK    3  A    between atoms: C_13  and  C_15
REMARK    4  A    between atoms: N_19  and  C_20
REMARK                            x       y       z     vdW  Elec       q    Type
REMARK                         _______ _______ _______ _____ _____    ______ ____
ROOT
ATOM     10  C   UNL     1      -3.957   0.393  24.361  0.00  0.00    +0.205 A 
ATOM     11  N   UNL     1      -3.810   0.203  23.572  0.00  0.00    -0.056 NA
ATOM     12  O   UNL     1      -3.574  -0.585  23.539  0.00  0.00    -0.336 OA
ATOM     13  C   UNL     1      -3.574  -0.884  24.309  0.00  0.00    +0.251 A 
ATOM     14  N   UNL     1      -3.811  -0.279  24.816  0.00  0.00    -0.190 NA
ENDROOT
BRANCH  10   7
ATOM      4  C   UNL     1      -4.704   2.594  25.214  0.00  0.00    +0.132 A 
ATOM      5  C   UNL     1      -5.196   1.936  25.283  0.00  0.00    +0.034 A 
ATOM      6  C   UNL     1      -4.947   1.203  24.999  0.00  0.00    +0.008 A 
ATOM      7  C   UNL     1      -4.206   1.127  24.645  0.00  0.00    +0.058 A 
ATOM      8  C   UNL     1      -3.713   1.786  24.576  0.00  0.00    +0.103 A 
ATOM      9  N   UNL     1      -3.962   2.519  24.860  0.00  0.00    -0.229 NA
BRANCH   4   2
ATOM      1  C   UNL     1      -5.752   3.459  25.656  0.00  0.00    +0.114 C 
ATOM      2  N   UNL     1      -4.953   3.327  25.498  0.00  0.00    -0.290 N 
ATOM      3  C   UNL     1      -4.403   3.929  25.624  0.00  0.00    +0.114 C 
ENDBRANCH   4   2
ENDBRANCH  10   7
BRANCH  13  15
ATOM     15  C   UNL     1      -3.373  -1.653  24.530  0.00  0.00    +0.138 C 
ATOM     16  C   UNL     1      -3.896  -2.283  24.626  0.00  0.00    +0.027 C 
ATOM     17  C   UNL     1      -3.458  -2.946  24.850  0.00  0.00    +0.019 C 
ATOM     18  C   UNL     1      -2.665  -2.724  24.892  0.00  0.00    +0.072 C 
ATOM     19  N   UNL     1      -2.611  -1.926  24.695  0.00  0.00    -0.268 NA
BRANCH  19  20
ATOM     20  C   UNL     1      -1.919  -1.477  24.666  0.00  0.00    +0.061 C 
ATOM     21  C   UNL     1      -1.484  -1.437  23.965  0.00  0.00    +0.033 C 
ATOM     22  C   UNL     1      -0.792  -0.988  23.936  0.00  0.00    +0.074 C 
ATOM     23  N   UNL     1      -0.535  -0.581  24.607  0.00  0.00    -0.271 NA
ATOM     24  C   UNL     1       0.156  -0.133  24.576  0.00  0.00    +0.090 C 
ATOM     25  C   UNL     1      -0.970  -0.622  25.306  0.00  0.00    +0.074 C 
ATOM     26  C   UNL     1      -1.663  -1.071  25.335  0.00  0.00    +0.033 C 
ENDBRANCH  19  20
ENDBRANCH  13  15
TORSDOF 4
ENDMDL
MODEL 5
REMARK VINA RESULT:      -9.7      1.832      4.291
REMARK  Name = 
REMARK  4 active torsions:
REMARK  status: ('A' for Active; 'I' for Inactive)
REMARK    1  A    between atoms: N_2  and  C_4
REMARK    2  A    between atoms: C_7  and  C_10
REMARK    3  A    between atoms: C_13  and  C_15
REMARK    4  A    between atoms: N_19  and  C_20
REMARK                            x       y       z     vdW  Elec       q    Type
REMARK                         _______ _______ _______ _____ _____    ______ ____
ROOT
ATOM     10  C   UNL     1      -2.963   1.818  24.121  0.00  0.00    +0.205 A 
ATOM     11  N   UNL     1      -2.737   1.576  23.366  0.00  0.00    -0.056 NA
ATOM     12  O   UNL     1      -1.915   1.616  23.320  0.00  0.00    -0.336 OA
ATOM     13  C   UNL     1      -1.632   1.883  24.048  0.00  0.00    +0.251 A 
ATOM     14  N   UNL     1      -2.279   2.008  24.542  0.00  0.00    -0.190 NA
ENDROOT
BRANCH  10   7
ATOM      4  C   UNL     1      -5.282   1.953  24.975  0.00  0.00    +0.132 A 
ATOM      5  C   UNL     1      -4.899   1.224  24.934  0.00  0.00    +0.034 A 
ATOM      6  C   UNL     1      -4.126   1.179  24.650  0.00  0.00    +0.008 A 
ATOM      7  C   UNL     1      -3.736   1.863  24.406  0.00  0.00    +0.058 A 
ATOM      8  C   UNL     1      -4.119   2.593  24.446  0.00  0.00    +0.103 A 
ATOM      9  N   UNL     1      -4.892   2.638  24.731  0.00  0.00    -0.229 NA
BRANCH   4   2
ATOM      1  C   UNL     1      -6.196   2.245  26.034  0.00  0.00    +0.114 C 
ATOM      2  N   UNL     1      -6.055   1.997  25.259  0.00  0.00    -0.290 N 
ATOM      3  C   UNL     1      -6.687   1.795  24.770  0.00  0.00    +0.114 C 
ENDBRANCH   4   2
ENDBRANCH  10   7
BRANCH  13  15
ATOM     15  C   UNL     1      -0.840   2.004  24.244  0.00  0.00    +0.138 C 
ATOM     16  C   UNL     1      -0.431   2.718  24.198  0.00  0.00    +0.027 C 
ATOM     17  C   UNL     1       0.344   2.585  24.447  0.00  0.00    +0.019 C 
ATOM     18  C   UNL     1       0.414   1.788  24.648  0.00  0.00    +0.072 C 
ATOM     19  N   UNL     1      -0.316   1.428  24.523  0.00  0.00    -0.268 NA
BRANCH  19  20
ATOM     20  C   UNL     1      -0.495   0.633  24.653  0.00  0.00    +0.061 C 
ATOM     21  C   UNL     1      -0.386   0.083  24.047  0.00  0.00    +0.033 C 
ATOM     22  C   UNL     1      -0.565  -0.712  24.176  0.00  0.00    +0.074 C 
ATOM     23  N   UNL     1      -0.853  -0.957  24.910  0.00  0.00    -0.271 NA
ATOM     24  C   UNL     1      -1.032  -1.752  25.039  0.00  0.00    +0.090 C 
ATOM     25  C   UNL     1      -0.962  -0.406  25.515  0.00  0.00    +0.074 C 
ATOM     26  C   UNL     1      -0.783   0.389  25.385  0.00  0.00    +0.033 C 
ENDBRANCH  19  20
ENDBRANCH  13  15
TORSDOF 4
ENDMDL
