REMARK  Name = 
REMARK  4 active torsions:
REMARK  status: ('A' for Active; 'I' for Inactive)
REMARK    1  A    between atoms: N_2  and  C_4
REMARK    2  A    between atoms: C_7  and  C_10
REMARK    3  A    between atoms: C_13  and  C_15
REMARK    4  A    between atoms: N_19  and  C_20
REMARK                            x       y       z     vdW  Elec       q    Type
REMARK                         _______ _______ _______ _____ _____    ______ ____
ROOT
ATOM     10  C   UNL     1       2.834  -0.549   0.000  0.00  0.00    +0.205 A 
ATOM     11  N   UNL     1       3.501  -1.034   0.000  0.00  0.00    -0.056 NA
ATOM     12  O   UNL     1       3.247  -1.818   0.000  0.00  0.00    -0.336 OA
ATOM     13  C   UNL     1       2.421  -1.818   0.000  0.00  0.00    +0.251 A 
ATOM     14  N   UNL     1       2.167  -1.034   0.000  0.00  0.00    -0.190 NA
ENDROOT
BRANCH  10   7
ATOM      4  C   UNL     1       2.834   1.926   0.000  0.00  0.00    +0.132 A 
ATOM      5  C   UNL     1       3.548   1.514   0.000  0.00  0.00    +0.034 A 
ATOM      6  C   UNL     1       3.548   0.689   0.000  0.00  0.00    +0.008 A 
ATOM      7  C   UNL     1       2.834   0.276   0.000  0.00  0.00    +0.058 A 
ATOM      8  C   UNL     1       2.119   0.689   0.000  0.00  0.00    +0.103 A 
ATOM      9  N   UNL     1       2.119   1.514   0.000  0.00  0.00    -0.229 NA
BRANCH   4   2
ATOM      1  C   UNL     1       2.119   3.164   0.000  0.00  0.00    +0.114 C 
ATOM      2  N   UNL     1       2.834   2.751   0.000  0.00  0.00    -0.290 N 
ATOM      3  C   UNL     1       3.548   3.164   0.000  0.00  0.00    +0.114 C 
ENDBRANCH   4   2
ENDBRANCH  10   7
BRANCH  13  15
ATOM     15  C   UNL     1       1.937  -2.486   0.000  0.00  0.00    +0.138 C 
ATOM     16  C   UNL     1       2.192  -3.270   0.000  0.00  0.00    +0.027 C 
ATOM     17  C   UNL     1       1.524  -3.755   0.000  0.00  0.00    +0.019 C 
ATOM     18  C   UNL     1       0.857  -3.270   0.000  0.00  0.00    +0.072 C 
ATOM     19  N   UNL     1       1.111  -2.486   0.000  0.00  0.00    -0.268 NA
BRANCH  19  20
ATOM     20  C   UNL     1       0.627  -1.818   0.000  0.00  0.00    +0.061 C 
ATOM     21  C   UNL     1      -0.194  -1.905   0.000  0.00  0.00    +0.038 C 
ATOM     22  C   UNL     1      -0.679  -1.237   0.000  0.00  0.00    +0.095 C 
ATOM     23  N   UNL     1      -0.343  -0.483   0.000  0.00  0.00    -0.279 N 
ATOM     24  C   UNL     1       0.477  -0.397   0.000  0.00  0.00    +0.095 C 
ATOM     25  C   UNL     1       0.962  -1.065   0.000  0.00  0.00    +0.038 C 
ATOM     26  C   UNL     1      -0.828   0.184   0.000  0.00  0.00    +0.226 C 
ATOM     27  C   UNL     1      -1.649   0.098   0.000  0.00  0.00    +0.095 C 
ATOM     28  O   UNL     1      -0.493   0.938   0.000  0.00  0.00    -0.275 OA
ENDBRANCH  19  20
ENDBRANCH  13  15
TORSDOF 4
