MODEL 1
REMARK VINA RESULT:     -12.6      0.000      0.000
REMARK  Name = 
REMARK  8 active torsions:
REMARK  status: ('A' for Active; 'I' for Inactive)
REMARK    1  A    between atoms: N_2  and  C_3
REMARK    2  A    between atoms: C_3  and  C_4
REMARK    3  A    between atoms: C_6  and  C_8
REMARK    4  A    between atoms: C_8  and  C_9
REMARK    5  A    between atoms: C_14  and  C_15
REMARK    6  A    between atoms: C_15  and  C_16
REMARK    7  A    between atoms: C_19  and  C_21
REMARK    8  A    between atoms: C_24  and  C_27
REMARK                            x       y       z     vdW  Elec       q    Type
REMARK                         _______ _______ _______ _____ _____    ______ ____
ROOT
ATOM     15  C   UNL     1      -3.921   2.844  24.533  0.00  0.00    +0.051 C 
ENDROOT
BRANCH  15  14
ATOM      9  C   UNL     1      -3.120   3.661  25.389  0.00  0.00    +0.012 C 
ATOM     10  C   UNL     1      -3.044   4.125  26.067  0.00  0.00    +0.019 C 
ATOM     11  C   UNL     1      -3.692   4.235  26.567  0.00  0.00    +0.089 C 
ATOM     12  N   UNL     1      -4.415   3.882  26.387  0.00  0.00    -0.218 NA
ATOM     13  C   UNL     1      -4.492   3.418  25.709  0.00  0.00    +0.089 C 
ATOM     14  C   UNL     1      -3.845   3.308  25.211  0.00  0.00    +0.024 C 
BRANCH   9   8
ATOM      8  C   UNL     1      -2.473   3.550  24.890  0.00  0.00    +0.085 C 
BRANCH   8   6
ATOM      1  C   UNL     1      -0.390   4.201  24.840  0.00  0.00    +0.116 C 
ATOM      2  N   UNL     1      -1.062   3.729  24.758  0.00  0.00    -0.266 N 
ATOM      6  C   UNL     1      -1.802   4.023  24.973  0.00  0.00    +0.226 C 
ATOM      7  O   UNL     1      -1.871   4.789  25.270  0.00  0.00    -0.275 OA
BRANCH   2   3
ATOM      3  C   UNL     1      -0.993   2.962  24.461  0.00  0.00    +0.172 C 
BRANCH   3   4
ATOM      4  C   UNL     1      -0.257   2.590  24.445  0.00  0.00    -0.056 C 
ATOM      5  C   UNL     1       0.480   2.218  24.429  0.00  0.00    -0.012 C 
ENDBRANCH   3   4
ENDBRANCH   2   3
ENDBRANCH   8   6
ENDBRANCH   9   8
ENDBRANCH  15  14
BRANCH  15  16
ATOM     16  C   UNL     1      -4.242   2.086  24.585  0.00  0.00    +0.101 A 
ATOM     17  N   UNL     1      -5.041   1.904  24.683  0.00  0.00    -0.081 NA
ATOM     18  O   UNL     1      -5.115   1.083  24.707  0.00  0.00    -0.354 OA
ATOM     19  C   UNL     1      -4.360   0.757  24.624  0.00  0.00    +0.177 A 
ATOM     20  C   UNL     1      -3.822   1.377  24.548  0.00  0.00    +0.058 A 
BRANCH  19  21
ATOM     21  C   UNL     1      -4.179  -0.047  24.617  0.00  0.00    +0.037 A 
ATOM     22  C   UNL     1      -4.242  -0.480  23.918  0.00  0.00    +0.003 A 
ATOM     23  C   UNL     1      -4.061  -1.284  23.911  0.00  0.00    -0.004 A 
ATOM     24  C   UNL     1      -3.815  -1.657  24.605  0.00  0.00    -0.023 A 
ATOM     25  C   UNL     1      -3.751  -1.224  25.305  0.00  0.00    -0.004 A 
ATOM     26  C   UNL     1      -3.933  -0.420  25.311  0.00  0.00    +0.003 A 
BRANCH  24  27
ATOM     27  C   UNL     1      -3.633  -2.461  24.599  0.00  0.00    +0.019 C 
ATOM     28  C   UNL     1      -3.450  -3.266  24.594  0.00  0.00    +0.004 C 
ATOM     29  C   UNL     1      -4.078  -2.558  23.912  0.00  0.00    +0.004 C 
ATOM     30  C   UNL     1      -3.187  -2.366  25.287  0.00  0.00    +0.004 C 
ENDBRANCH  24  27
ENDBRANCH  19  21
ENDBRANCH  15  16
TORSDOF 8
ENDMDL
MODEL 2
REMARK VINA RESULT:     -11.2      1.612      3.011
REMARK  Name = 
REMARK  8 active torsions:
REMARK  status: ('A' for Active; 'I' for Inactive)
REMARK    1  A    between atoms: N_2  and  C_3
REMARK    2  A    between atoms: C_3  and  C_4
REMARK    3  A    between atoms: C_6  and  C_8
REMARK    4  A    between atoms: C_8  and  C_9
REMARK    5  A    between atoms: C_14  and  C_15
REMARK    6  A    between atoms: C_15  and  C_16
REMARK    7  A    between atoms: C_19  and  C_21
REMARK    8  A    between atoms: C_24  and  C_27
REMARK                            x       y       z     vdW  Elec       q    Type
REMARK                         _______ _______ _______ _____ _____    ______ ____
ROOT
ATOM     15  C   UNL     1      -0.935   1.625  25.855  0.00  0.00    +0.051 C 
ENDROOT
BRANCH  15  14
ATOM      9  C   UNL     1      -0.876   2.828  25.087  0.00  0.00    +0.012 C 
ATOM     10  C   UNL     1      -0.536   3.273  24.481  0.00  0.00    +0.019 C 
ATOM     11  C   UNL     1       0.086   2.959  24.038  0.00  0.00    +0.089 C 
ATOM     12  N   UNL     1       0.367   2.201  24.201  0.00  0.00    -0.218 NA
ATOM     13  C   UNL     1       0.027   1.756  24.807  0.00  0.00    +0.089 C 
ATOM     14  C   UNL     1      -0.594   2.070  25.250  0.00  0.00    +0.024 C 
BRANCH   9   8
ATOM      8  C   UNL     1      -1.497   3.141  25.530  0.00  0.00    +0.085 C 
BRANCH   8   6
ATOM      1  C   UNL     1      -2.671   4.982  25.517  0.00  0.00    +0.116 C 
ATOM      2  N   UNL     1      -2.472   4.184  25.589  0.00  0.00    -0.266 N 
ATOM      6  C   UNL     1      -1.695   3.939  25.457  0.00  0.00    +0.226 C 
ATOM      7  O   UNL     1      -1.118   4.491  25.252  0.00  0.00    -0.275 OA
BRANCH   2   3
ATOM      3  C   UNL     1      -3.050   3.632  25.795  0.00  0.00    +0.172 C 
BRANCH   3   4
ATOM      4  C   UNL     1      -3.843   3.780  25.619  0.00  0.00    -0.056 C 
ATOM      5  C   UNL     1      -4.635   3.927  25.444  0.00  0.00    -0.012 C 
ENDBRANCH   3   4
ENDBRANCH   2   3
ENDBRANCH   8   6
ENDBRANCH   9   8
ENDBRANCH  15  14
BRANCH  15  16
ATOM     16  C   UNL     1      -1.087   0.822  25.743  0.00  0.00    +0.101 A 
ATOM     17  N   UNL     1      -0.591   0.199  25.963  0.00  0.00    -0.081 NA
ATOM     18  O   UNL     1      -0.958  -0.507  25.747  0.00  0.00    -0.354 OA
ATOM     19  C   UNL     1      -1.681  -0.321  25.393  0.00  0.00    +0.177 A 
ATOM     20  C   UNL     1      -1.760   0.500  25.391  0.00  0.00    +0.058 A 
BRANCH  19  21
ATOM     21  C   UNL     1      -2.227  -0.862  25.095  0.00  0.00    +0.037 A 
ATOM     22  C   UNL     1      -1.980  -1.460  24.584  0.00  0.00    +0.003 A 
ATOM     23  C   UNL     1      -2.526  -2.001  24.286  0.00  0.00    -0.004 A 
ATOM     24  C   UNL     1      -3.322  -1.944  24.499  0.00  0.00    -0.023 A 
ATOM     25  C   UNL     1      -3.569  -1.345  25.010  0.00  0.00    -0.004 A 
ATOM     26  C   UNL     1      -3.023  -0.804  25.308  0.00  0.00    +0.003 A 
BRANCH  24  27
ATOM     27  C   UNL     1      -3.869  -2.484  24.201  0.00  0.00    +0.019 C 
ATOM     28  C   UNL     1      -4.416  -3.025  23.903  0.00  0.00    +0.004 C 
ATOM     29  C   UNL     1      -4.259  -1.874  23.807  0.00  0.00    +0.004 C 
ATOM     30  C   UNL     1      -3.479  -3.096  24.595  0.00  0.00    +0.004 C 
ENDBRANCH  24  27
ENDBRANCH  19  21
ENDBRANCH  15  16
TORSDOF 8
ENDMDL
MODEL 3
REMARK VINA RESULT:     -10.6      1.421      2.844
REMARK  Name = 
REMARK  8 active torsions:
REMARK  status: ('A' for Active; 'I' for Inactive)
REMARK    1  A    between atoms: N_2  and  C_3
REMARK    2  A    between atoms: C_3  and  C_4
REMARK    3  A    between atoms: C_6  and  C_8
REMARK    4  A    between atoms: C_8  and  C_9
REMARK    5  A    between atoms: C_14  and  C_15
REMARK    6  A    between atoms: C_15  and  C_16
REMARK    7  A    between atoms: C_19  and  C_21
REMARK    8  A    between atoms: C_24  and  C_27
REMARK                            x       y       z     vdW  Elec       q    Type
REMARK                         _______ _______ _______ _____ _____    ______ ____
ROOT
ATOM     15  C   UNL     1      -2.352   2.524  23.993  0.00  0.00    +0.051 C 
ENDROOT
BRANCH  15  14
ATOM      9  C   UNL     1      -2.705   3.408  25.059  0.00  0.00    +0.012 C 
ATOM     10  C   UNL     1      -2.482   3.895  25.686  0.00  0.00    +0.019 C 
ATOM     11  C   UNL     1      -1.684   3.987  25.874  0.00  0.00    +0.089 C 
ATOM     12  N   UNL     1      -1.109   3.591  25.435  0.00  0.00    -0.218 NA
ATOM     13  C   UNL     1      -1.332   3.103  24.808  0.00  0.00    +0.089 C 
ATOM     14  C   UNL     1      -2.129   3.012  24.620  0.00  0.00    +0.024 C 
BRANCH   9   8
ATOM      8  C   UNL     1      -3.502   3.317  24.871  0.00  0.00    +0.085 C 
BRANCH   8   6
ATOM      1  C   UNL     1      -5.432   3.862  25.734  0.00  0.00    +0.116 C 
ATOM      2  N   UNL     1      -4.856   3.454  25.307  0.00  0.00    -0.266 N 
ATOM      6  C   UNL     1      -4.077   3.726  25.299  0.00  0.00    +0.226 C 
ATOM      7  O   UNL     1      -3.874   4.406  25.717  0.00  0.00    -0.275 OA
BRANCH   2   3
ATOM      3  C   UNL     1      -5.060   2.772  24.887  0.00  0.00    +0.172 C 
BRANCH   3   4
ATOM      4  C   UNL     1      -5.721   2.332  25.110  0.00  0.00    -0.056 C 
ATOM      5  C   UNL     1      -6.383   1.893  25.334  0.00  0.00    -0.012 C 
ENDBRANCH   3   4
ENDBRANCH   2   3
ENDBRANCH   8   6
ENDBRANCH   9   8
ENDBRANCH  15  14
BRANCH  15  16
ATOM     16  C   UNL     1      -2.154   1.724  24.002  0.00  0.00    +0.101 A 
ATOM     17  N   UNL     1      -1.418   1.404  23.806  0.00  0.00    -0.081 NA
ATOM     18  O   UNL     1      -1.465   0.585  23.891  0.00  0.00    -0.354 OA
ATOM     19  C   UNL     1      -2.230   0.398  24.139  0.00  0.00    +0.177 A 
ATOM     20  C   UNL     1      -2.655   1.102  24.208  0.00  0.00    +0.058 A 
BRANCH  19  21
ATOM     21  C   UNL     1      -2.518  -0.359  24.292  0.00  0.00    +0.037 A 
ATOM     22  C   UNL     1      -2.005  -0.954  24.543  0.00  0.00    +0.003 A 
ATOM     23  C   UNL     1      -2.293  -1.711  24.696  0.00  0.00    -0.004 A 
ATOM     24  C   UNL     1      -3.096  -1.875  24.597  0.00  0.00    -0.023 A 
ATOM     25  C   UNL     1      -3.610  -1.280  24.346  0.00  0.00    -0.004 A 
ATOM     26  C   UNL     1      -3.321  -0.523  24.194  0.00  0.00    +0.003 A 
BRANCH  24  27
ATOM     27  C   UNL     1      -3.384  -2.632  24.750  0.00  0.00    +0.019 C 
ATOM     28  C   UNL     1      -3.673  -3.390  24.902  0.00  0.00    +0.004 C 
ATOM     29  C   UNL     1      -3.245  -2.523  25.556  0.00  0.00    +0.004 C 
ATOM     30  C   UNL     1      -3.523  -2.742  23.944  0.00  0.00    +0.004 C 
ENDBRANCH  24  27
ENDBRANCH  19  21
ENDBRANCH  15  16
TORSDOF 8
ENDMDL
MODEL 4
REMARK VINA RESULT:     -10.4      1.303      1.681
REMARK  Name = 
REMARK  8 active torsions:
REMARK  status: ('A' for Active; 'I' for Inactive)
REMARK    1  A    between atoms: N_2  and  C_3
REMARK    2  A    between atoms: C_3  and  C_4
REMARK    3  A    between atoms: C_6  and  C_8
REMARK    4  A    between atoms: C_8  and  C_9
REMARK    5  A    between atoms: C_14  and  C_15
REMARK    6  A    between atoms: C_15  and  C_16
REMARK    7  A    between atoms: C_19  and  C_21
REMARK    8  A    between atoms: C_24  and  C_27
REMARK                            x       y       z     vdW  Elec       q    Type
REMARK                         _______ _______ _______ _____ _____    ______ ____
ROOT
ATOM     15  C   UNL     1      -3.829   2.512  23.982  0.00  0.00    +0.051 C 
ENDROOT
BRANCH  15  14
ATOM      9  C   UNL     1      -4.306   3.327  25.055  0.00  0.00    +0.012 C 
ATOM     10  C   UNL     1      -4.897   3.518  25.598  0.00  0.00    +0.019 C 
ATOM     11  C   UNL     1      -5.601   3.087  25.612  0.00  0.00    +0.089 C 
ATOM     12  N   UNL     1      -5.713   2.465  25.082  0.00  0.00    -0.218 NA
ATOM     13  C   UNL     1      -5.123   2.273  24.539  0.00  0.00    +0.089 C 
ATOM     14  C   UNL     1      -4.420   2.704  24.525  0.00  0.00    +0.024 C 
BRANCH   9   8
ATOM      8  C   UNL     1      -3.604   3.758  25.041  0.00  0.00    +0.085 C 
BRANCH   8   6
ATOM      1  C   UNL     1      -2.143   4.579  26.440  0.00  0.00    +0.116 C 
ATOM      2  N   UNL     1      -2.509   4.361  25.733  0.00  0.00    -0.266 N 
ATOM      6  C   UNL     1      -3.239   3.976  25.748  0.00  0.00    +0.226 C 
ATOM      7  O   UNL     1      -3.602   3.809  26.469  0.00  0.00    -0.275 OA
BRANCH   2   3
ATOM      3  C   UNL     1      -2.145   4.528  25.012  0.00  0.00    +0.172 C 
BRANCH   3   4
ATOM      4  C   UNL     1      -1.374   4.821  24.997  0.00  0.00    -0.056 C 
ATOM      5  C   UNL     1      -0.603   5.113  24.982  0.00  0.00    -0.012 C 
ENDBRANCH   3   4
ENDBRANCH   2   3
ENDBRANCH   8   6
ENDBRANCH   9   8
ENDBRANCH  15  14
BRANCH  15  16
ATOM     16  C   UNL     1      -3.718   1.728  23.752  0.00  0.00    +0.101 A 
ATOM     17  N   UNL     1      -3.589   1.463  22.981  0.00  0.00    -0.081 NA
ATOM     18  O   UNL     1      -3.508   0.642  23.004  0.00  0.00    -0.354 OA
ATOM     19  C   UNL     1      -3.586   0.400  23.790  0.00  0.00    +0.177 A 
ATOM     20  C   UNL     1      -3.716   1.072  24.251  0.00  0.00    +0.058 A 
BRANCH  19  21
ATOM     21  C   UNL     1      -3.542  -0.376  24.064  0.00  0.00    +0.037 A 
ATOM     22  C   UNL     1      -4.143  -0.912  23.885  0.00  0.00    +0.003 A 
ATOM     23  C   UNL     1      -4.099  -1.689  24.159  0.00  0.00    -0.004 A 
ATOM     24  C   UNL     1      -3.453  -1.930  24.613  0.00  0.00    -0.023 A 
ATOM     25  C   UNL     1      -2.852  -1.393  24.793  0.00  0.00    -0.004 A 
ATOM     26  C   UNL     1      -2.897  -0.617  24.518  0.00  0.00    +0.003 A 
BRANCH  24  27
ATOM     27  C   UNL     1      -3.408  -2.706  24.888  0.00  0.00    +0.019 C 
ATOM     28  C   UNL     1      -3.363  -3.483  25.162  0.00  0.00    +0.004 C 
ATOM     29  C   UNL     1      -3.247  -2.429  25.648  0.00  0.00    +0.004 C 
ATOM     30  C   UNL     1      -3.569  -2.984  24.128  0.00  0.00    +0.004 C 
ENDBRANCH  24  27
ENDBRANCH  19  21
ENDBRANCH  15  16
TORSDOF 8
ENDMDL
MODEL 5
REMARK VINA RESULT:      -9.9      1.914      5.212
REMARK  Name = 
REMARK  8 active torsions:
REMARK  status: ('A' for Active; 'I' for Inactive)
REMARK    1  A    between atoms: N_2  and  C_3
REMARK    2  A    between atoms: C_3  and  C_4
REMARK    3  A    between atoms: C_6  and  C_8
REMARK    4  A    between atoms: C_8  and  C_9
REMARK    5  A    between atoms: C_14  and  C_15
REMARK    6  A    between atoms: C_15  and  C_16
REMARK    7  A    between atoms: C_19  and  C_21
REMARK    8  A    between atoms: C_24  and  C_27
REMARK                            x       y       z     vdW  Elec       q    Type
REMARK                         _______ _______ _______ _____ _____    ______ ____
ROOT
ATOM     15  C   UNL     1      -3.643  -0.101  25.416  0.00  0.00    +0.051 C 
ENDROOT
BRANCH  15  14
ATOM      9  C   UNL     1      -3.338  -1.266  24.647  0.00  0.00    +0.012 C 
ATOM     10  C   UNL     1      -3.557  -1.827  24.084  0.00  0.00    +0.019 C 
ATOM     11  C   UNL     1      -4.300  -1.785  23.726  0.00  0.00    +0.089 C 
ATOM     12  N   UNL     1      -4.822  -1.181  23.932  0.00  0.00    -0.218 NA
ATOM     13  C   UNL     1      -4.603  -0.620  24.496  0.00  0.00    +0.089 C 
ATOM     14  C   UNL     1      -3.862  -0.662  24.853  0.00  0.00    +0.024 C 
BRANCH   9   8
ATOM      8  C   UNL     1      -2.596  -1.308  25.004  0.00  0.00    +0.085 C 
BRANCH   8   6
ATOM      1  C   UNL     1      -0.805  -2.511  24.677  0.00  0.00    +0.116 C 
ATOM      2  N   UNL     1      -1.292  -1.860  24.811  0.00  0.00    -0.266 N 
ATOM      6  C   UNL     1      -2.109  -1.961  24.870  0.00  0.00    +0.226 C 
ATOM      7  O   UNL     1      -2.438  -2.713  24.795  0.00  0.00    -0.275 OA
BRANCH   2   3
ATOM      3  C   UNL     1      -0.963  -1.107  24.886  0.00  0.00    +0.172 C 
BRANCH   3   4
ATOM      4  C   UNL     1      -0.311  -0.893  24.427  0.00  0.00    -0.056 C 
ATOM      5  C   UNL     1       0.340  -0.680  23.967  0.00  0.00    -0.012 C 
ENDBRANCH   3   4
ENDBRANCH   2   3
ENDBRANCH   8   6
ENDBRANCH   9   8
ENDBRANCH  15  14
BRANCH  15  16
ATOM     16  C   UNL     1      -3.652   0.702  25.225  0.00  0.00    +0.101 A 
ATOM     17  N   UNL     1      -4.290   1.115  24.903  0.00  0.00    -0.081 NA
ATOM     18  O   UNL     1      -4.059   1.900  24.801  0.00  0.00    -0.354 OA
ATOM     19  C   UNL     1      -3.278   1.972  25.060  0.00  0.00    +0.177 A 
ATOM     20  C   UNL     1      -3.028   1.231  25.322  0.00  0.00    +0.058 A 
BRANCH  19  21
ATOM     21  C   UNL     1      -2.829   2.664  25.057  0.00  0.00    +0.037 A 
ATOM     22  C   UNL     1      -3.122   3.349  25.411  0.00  0.00    +0.003 A 
ATOM     23  C   UNL     1      -2.673   4.040  25.408  0.00  0.00    -0.004 A 
ATOM     24  C   UNL     1      -1.929   4.047  25.050  0.00  0.00    -0.023 A 
ATOM     25  C   UNL     1      -1.635   3.361  24.696  0.00  0.00    -0.004 A 
ATOM     26  C   UNL     1      -2.085   2.671  24.700  0.00  0.00    +0.003 A 
BRANCH  24  27
ATOM     27  C   UNL     1      -1.479   4.738  25.047  0.00  0.00    +0.019 C 
ATOM     28  C   UNL     1      -1.029   5.430  25.044  0.00  0.00    +0.004 C 
ATOM     29  C   UNL     1      -0.809   4.302  24.843  0.00  0.00    +0.004 C 
ATOM     30  C   UNL     1      -2.148   5.175  25.251  0.00  0.00    +0.004 C 
ENDBRANCH  24  27
ENDBRANCH  19  21
ENDBRANCH  15  16
TORSDOF 8
ENDMDL
MODEL 6
REMARK VINA RESULT:      -9.9      2.160      5.237
REMARK  Name = 
REMARK  8 active torsions:
REMARK  status: ('A' for Active; 'I' for Inactive)
REMARK    1  A    between atoms: N_2  and  C_3
REMARK    2  A    between atoms: C_3  and  C_4
REMARK    3  A    between atoms: C_6  and  C_8
REMARK    4  A    between atoms: C_8  and  C_9
REMARK    5  A    between atoms: C_14  and  C_15
REMARK    6  A    between atoms: C_15  and  C_16
REMARK    7  A    between atoms: C_19  and  C_21
REMARK    8  A    between atoms: C_24  and  C_27
REMARK                            x       y       z     vdW  Elec       q    Type
REMARK                         _______ _______ _______ _____ _____    ______ ____
ROOT
ATOM     15  C   UNL     1      -0.661   1.013  25.281  0.00  0.00    +0.051 C 
ENDROOT
BRANCH  15  14
ATOM      9  C   UNL     1      -0.429  -0.046  24.350  0.00  0.00    +0.012 C 
ATOM     10  C   UNL     1      -0.054  -0.333  23.674  0.00  0.00    +0.019 C 
ATOM     11  C   UNL     1       0.466   0.151  23.253  0.00  0.00    +0.089 C 
ATOM     12  N   UNL     1       0.610   0.922  23.509  0.00  0.00    -0.218 NA
ATOM     13  C   UNL     1       0.234   1.209  24.185  0.00  0.00    +0.089 C 
ATOM     14  C   UNL     1      -0.285   0.725  24.605  0.00  0.00    +0.024 C 
BRANCH   9   8
ATOM      8  C   UNL     1      -0.948  -0.529  24.769  0.00  0.00    +0.085 C 
BRANCH   8   6
ATOM      1  C   UNL     1      -1.373  -2.670  24.785  0.00  0.00    +0.116 C 
ATOM      2  N   UNL     1      -1.486  -1.853  24.774  0.00  0.00    -0.266 N 
ATOM      6  C   UNL     1      -0.835  -1.347  24.780  0.00  0.00    +0.226 C 
ATOM      7  O   UNL     1      -0.071  -1.657  24.798  0.00  0.00    -0.275 OA
BRANCH   2   3
ATOM      3  C   UNL     1      -2.251  -1.543  24.756  0.00  0.00    +0.172 C 
BRANCH   3   4
ATOM      4  C   UNL     1      -2.901  -2.049  24.737  0.00  0.00    -0.056 C 
ATOM      5  C   UNL     1      -3.552  -2.556  24.718  0.00  0.00    -0.012 C 
ENDBRANCH   3   4
ENDBRANCH   2   3
ENDBRANCH   8   6
ENDBRANCH   9   8
ENDBRANCH  15  14
BRANCH  15  16
ATOM     16  C   UNL     1      -1.116   1.699  25.241  0.00  0.00    +0.101 A 
ATOM     17  N   UNL     1      -0.831   2.462  25.107  0.00  0.00    -0.081 NA
ATOM     18  O   UNL     1      -1.474   2.979  25.110  0.00  0.00    -0.354 OA
ATOM     19  C   UNL     1      -2.157   2.534  25.245  0.00  0.00    +0.177 A 
ATOM     20  C   UNL     1      -1.935   1.744  25.326  0.00  0.00    +0.058 A 
BRANCH  19  21
ATOM     21  C   UNL     1      -2.926   2.830  25.292  0.00  0.00    +0.037 A 
ATOM     22  C   UNL     1      -3.532   2.473  24.862  0.00  0.00    +0.003 A 
ATOM     23  C   UNL     1      -4.301   2.768  24.908  0.00  0.00    -0.004 A 
ATOM     24  C   UNL     1      -4.463   3.422  25.385  0.00  0.00    -0.023 A 
ATOM     25  C   UNL     1      -3.856   3.779  25.815  0.00  0.00    -0.004 A 
ATOM     26  C   UNL     1      -3.088   3.483  25.769  0.00  0.00    +0.003 A 
BRANCH  24  27
ATOM     27  C   UNL     1      -5.231   3.718  25.432  0.00  0.00    +0.019 C 
ATOM     28  C   UNL     1      -6.000   4.015  25.479  0.00  0.00    +0.004 C 
ATOM     29  C   UNL     1      -5.477   3.024  25.804  0.00  0.00    +0.004 C 
ATOM     30  C   UNL     1      -4.987   4.413  25.060  0.00  0.00    +0.004 C 
ENDBRANCH  24  27
ENDBRANCH  19  21
ENDBRANCH  15  16
TORSDOF 8
ENDMDL
MODEL 7
REMARK VINA RESULT:      -9.8      2.137      5.855
REMARK  Name = 
REMARK  8 active torsions:
REMARK  status: ('A' for Active; 'I' for Inactive)
REMARK    1  A    between atoms: N_2  and  C_3
REMARK    2  A    between atoms: C_3  and  C_4
REMARK    3  A    between atoms: C_6  and  C_8
REMARK    4  A    between atoms: C_8  and  C_9
REMARK    5  A    between atoms: C_14  and  C_15
REMARK    6  A    between atoms: C_15  and  C_16
REMARK    7  A    between atoms: C_19  and  C_21
REMARK    8  A    between atoms: C_24  and  C_27
REMARK                            x       y       z     vdW  Elec       q    Type
REMARK                         _______ _______ _______ _____ _____    ______ ____
ROOT
ATOM     15  C   UNL     1      -1.510  -0.468  25.785  0.00  0.00    +0.051 C 
ENDROOT
BRANCH  15  14
ATOM      9  C   UNL     1      -2.162  -1.475  25.009  0.00  0.00    +0.012 C 
ATOM     10  C   UNL     1      -2.123  -2.157  24.546  0.00  0.00    +0.019 C 
ATOM     11  C   UNL     1      -1.394  -2.513  24.396  0.00  0.00    +0.089 C 
ATOM     12  N   UNL     1      -0.704  -2.187  24.709  0.00  0.00    -0.218 NA
ATOM     13  C   UNL     1      -0.743  -1.506  25.173  0.00  0.00    +0.089 C 
ATOM     14  C   UNL     1      -1.471  -1.150  25.322  0.00  0.00    +0.024 C 
BRANCH   9   8
ATOM      8  C   UNL     1      -2.890  -1.119  25.158  0.00  0.00    +0.085 C 
BRANCH   8   6
ATOM      1  C   UNL     1      -4.844  -0.946  24.200  0.00  0.00    +0.116 C 
ATOM      2  N   UNL     1      -4.198  -0.787  24.687  0.00  0.00    -0.266 N 
ATOM      6  C   UNL     1      -3.537  -1.280  24.671  0.00  0.00    +0.226 C 
ATOM      7  O   UNL     1      -3.523  -1.934  24.169  0.00  0.00    -0.275 OA
BRANCH   2   3
ATOM      3  C   UNL     1      -4.212  -0.132  25.190  0.00  0.00    +0.172 C 
BRANCH   3   4
ATOM      4  C   UNL     1      -4.698   0.512  25.015  0.00  0.00    -0.056 C 
ATOM      5  C   UNL     1      -5.183   1.156  24.841  0.00  0.00    -0.012 C 
ENDBRANCH   3   4
ENDBRANCH   2   3
ENDBRANCH   8   6
ENDBRANCH   9   8
ENDBRANCH  15  14
BRANCH  15  16
ATOM     16  C   UNL     1      -1.138   0.224  25.534  0.00  0.00    +0.101 A 
ATOM     17  N   UNL     1      -0.393   0.273  25.183  0.00  0.00    -0.081 NA
ATOM     18  O   UNL     1      -0.239   1.067  25.021  0.00  0.00    -0.354 OA
ATOM     19  C   UNL     1      -0.890   1.509  25.272  0.00  0.00    +0.177 A 
ATOM     20  C   UNL     1      -1.445   0.987  25.589  0.00  0.00    +0.058 A 
BRANCH  19  21
ATOM     21  C   UNL     1      -0.971   2.327  25.216  0.00  0.00    +0.037 A 
ATOM     22  C   UNL     1      -0.552   2.820  25.728  0.00  0.00    +0.003 A 
ATOM     23  C   UNL     1      -0.632   3.639  25.671  0.00  0.00    -0.004 A 
ATOM     24  C   UNL     1      -1.132   3.966  25.102  0.00  0.00    -0.023 A 
ATOM     25  C   UNL     1      -1.551   3.473  24.589  0.00  0.00    -0.004 A 
ATOM     26  C   UNL     1      -1.470   2.654  24.646  0.00  0.00    +0.003 A 
BRANCH  24  27
ATOM     27  C   UNL     1      -1.213   4.784  25.045  0.00  0.00    +0.019 C 
ATOM     28  C   UNL     1      -1.294   5.604  24.987  0.00  0.00    +0.004 C 
ATOM     29  C   UNL     1      -1.937   4.741  25.438  0.00  0.00    +0.004 C 
ATOM     30  C   UNL     1      -0.489   4.829  24.651  0.00  0.00    +0.004 C 
ENDBRANCH  24  27
ENDBRANCH  19  21
ENDBRANCH  15  16
TORSDOF 8
ENDMDL
