REMARK  Name = 
REMARK  2 active torsions:
REMARK  status: ('A' for Active; 'I' for Inactive)
REMARK    1  A    between atoms: O_2  and  C_3
REMARK    2  A    between atoms: C_4  and  C_10
REMARK                            x       y       z     vdW  Elec       q    Type
REMARK                         _______ _______ _______ _____ _____    ______ ____
ROOT
ATOM     10  C   UNL     1       5.940   1.655   0.000  0.00  0.00    +0.003 A 
ATOM     11  C   UNL     1       5.152   1.899   0.000  0.00  0.00    +0.006 A 
ATOM     12  C   UNL     1       4.547   1.337   0.000  0.00  0.00    +0.069 A 
ATOM     13  C   UNL     1       4.731   0.533   0.000  0.00  0.00    +0.078 A 
ATOM     14  N   UNL     1       4.216  -0.112   0.000  0.00  0.00    -0.178 NA
ATOM     15  C   UNL     1       3.391  -0.112   0.000  0.00  0.00    +0.265 C 
ATOM     16  O   UNL     1       3.033  -0.855   0.000  0.00  0.00    -0.271 OA
ATOM     17  C   UNL     1       2.877   0.533   0.000  0.00  0.00    +0.174 C 
ATOM     18  C   UNL     1       2.088   0.290   0.000  0.00  0.00    +0.123 C 
ATOM     19  N   UNL     1       1.484   0.851   0.000  0.00  0.00    -0.276 N 
ATOM     20  C   UNL     1       1.667   1.655   0.000  0.00  0.00    +0.115 C 
ATOM     21  C   UNL     1       2.456   1.899   0.000  0.00  0.00    +0.116 C 
ATOM     22  N   UNL     1       3.060   1.337   0.000  0.00  0.00    -0.266 N 
ATOM     23  C   UNL     1       3.804   1.695   0.000  0.00  0.00    +0.251 C 
ATOM     24  O   UNL     1       3.804   2.520   0.000  0.00  0.00    -0.270 OA
ATOM     25  C   UNL     1       0.695   0.608   0.000  0.00  0.00    +0.226 C 
ATOM     26  C   UNL     1       0.512  -0.197   0.000  0.00  0.00    +0.095 C 
ATOM     27  O   UNL     1       0.091   1.169   0.000  0.00  0.00    -0.275 OA
ATOM     28  C   UNL     1       5.519   0.290   0.000  0.00  0.00    +0.017 A 
ATOM     29  C   UNL     1       6.124   0.851   0.000  0.00  0.00    +0.001 A 
ENDROOT
BRANCH  10   4
ATOM      3  C   UNL     1       7.333   1.973   0.000  0.00  0.00    +0.139 A 
ATOM      4  C   UNL     1       6.545   2.216   0.000  0.00  0.00    +0.035 A 
ATOM      5  C   UNL     1       6.361   3.021   0.000  0.00  0.00    +0.014 A 
ATOM      6  C   UNL     1       6.966   3.582   0.000  0.00  0.00    +0.058 A 
ATOM      7 CL   UNL     1       6.782   4.386   0.000  0.00  0.00    -0.082 Cl
ATOM      8  C   UNL     1       7.754   3.339   0.000  0.00  0.00    +0.015 A 
ATOM      9  C   UNL     1       7.938   2.534   0.000  0.00  0.00    +0.038 A 
BRANCH   3   2
ATOM      1  C   UNL     1       8.305   0.926   0.000  0.00  0.00    +0.252 C 
ATOM      2  O   UNL     1       7.517   1.169   0.000  0.00  0.00    -0.471 OA
ENDBRANCH   3   2
ENDBRANCH  10   4
TORSDOF 2
