MODEL 1
REMARK VINA RESULT:     -14.7      0.000      0.000
REMARK  Name = 
REMARK  6 active torsions:
REMARK  status: ('A' for Active; 'I' for Inactive)
REMARK    1  A    between atoms: C_2  and  C_3
REMARK    2  A    between atoms: C_11  and  C_12
REMARK    3  A    between atoms: C_12  and  C_13
REMARK    4  A    between atoms: N_15  and  C_16
REMARK    5  A    between atoms: C_16  and  C_17
REMARK    6  A    between atoms: C_30  and  C_32
REMARK                            x       y       z     vdW  Elec       q    Type
REMARK                         _______ _______ _______ _____ _____    ______ ____
ROOT
ATOM      1  C   UNL     1      -2.266  -3.059  24.626  0.00  0.00    +0.005 C 
ATOM      2  C   UNL     1      -2.568  -2.295  24.550  0.00  0.00    +0.059 C 
ATOM      5  C   UNL     1      -3.247  -2.733  24.388  0.00  0.00    +0.154 C 
ATOM      6  O   UNL     1      -3.219  -3.558  24.399  0.00  0.00    -0.223 OA
ATOM      7  C   UNL     1      -3.956  -2.347  24.215  0.00  0.00    +0.033 C 
ATOM      8  C   UNL     1      -3.985  -1.524  24.205  0.00  0.00    +0.003 C 
ATOM      9  C   UNL     1      -3.307  -1.085  24.367  0.00  0.00    +0.006 C 
ATOM     10  C   UNL     1      -4.014  -0.700  24.195  0.00  0.00    +0.000 C 
ATOM     11  C   UNL     1      -3.335  -0.260  24.357  0.00  0.00    +0.050 C 
ATOM     23  C   UNL     1      -2.656   0.178  24.519  0.00  0.00    +0.063 A 
ATOM     24  C   UNL     1      -1.947  -0.208  24.691  0.00  0.00    +0.023 A 
ATOM     25  C   UNL     1      -1.918  -1.031  24.702  0.00  0.00    +0.034 C 
ATOM     26  C   UNL     1      -2.597  -1.471  24.540  0.00  0.00    +0.010 C 
ATOM     27  S   UNL     1      -1.371   0.368  24.828  0.00  0.00    -0.054 S 
ATOM     28  C   UNL     1      -1.723   1.108  24.740  0.00  0.00    +0.185 A 
ATOM     29  N   UNL     1      -1.348   1.838  24.827  0.00  0.00    -0.150 NA
ATOM     30  C   UNL     1      -1.774   2.535  24.722  0.00  0.00    +0.275 C 
ATOM     31  O   UNL     1      -2.575   2.505  24.528  0.00  0.00    -0.268 OA
ATOM     40  N   UNL     1      -2.517   0.991  24.549  0.00  0.00    -0.227 NA
ENDROOT
BRANCH  30  32
ATOM     32  C   UNL     1      -1.398   3.265  24.809  0.00  0.00    +0.110 A 
ATOM     33  C   UNL     1      -0.824   3.502  24.265  0.00  0.00    +0.147 A 
ATOM     34  F   UNL     1      -0.627   3.009  23.634  0.00  0.00    -0.204 F 
ATOM     35  C   UNL     1      -0.449   4.231  24.352  0.00  0.00    +0.030 A 
ATOM     36  C   UNL     1      -0.647   4.724  24.984  0.00  0.00    +0.005 A 
ATOM     37  C   UNL     1      -1.220   4.487  25.528  0.00  0.00    +0.030 A 
ATOM     38  C   UNL     1      -1.595   3.758  25.440  0.00  0.00    +0.147 A 
ATOM     39  F   UNL     1      -2.169   3.521  25.985  0.00  0.00    -0.204 F 
ENDBRANCH  30  32
BRANCH   2   3
ATOM      3  C   UNL     1      -1.784  -2.121  24.739  0.00  0.00    +0.184 C 
ATOM      4  O   UNL     1      -1.245  -2.734  24.865  0.00  0.00    -0.220 OA
ENDBRANCH   2   3
BRANCH  11  12
ATOM     12  C   UNL     1      -4.044   0.125  24.184  0.00  0.00    +0.093 C 
BRANCH  12  13
ATOM     13  C   UNL     1      -4.508   0.430  24.795  0.00  0.00    +0.242 C 
ATOM     14  O   UNL     1      -4.551   0.032  25.516  0.00  0.00    -0.273 OA
ATOM     15  N   UNL     1      -4.927   1.130  24.685  0.00  0.00    -0.201 NA
BRANCH  15  16
ATOM     16  C   UNL     1      -5.391   1.435  25.295  0.00  0.00    +0.141 C 
BRANCH  16  17
ATOM     17  C   UNL     1      -5.455   2.251  25.397  0.00  0.00    -0.001 A 
ATOM     18  C   UNL     1      -5.423   2.575  26.154  0.00  0.00    -0.003 A 
ATOM     19  C   UNL     1      -5.488   3.392  26.256  0.00  0.00    -0.000 A 
ATOM     20  C   UNL     1      -5.585   3.883  25.601  0.00  0.00    -0.000 A 
ATOM     21  C   UNL     1      -5.617   3.558  24.844  0.00  0.00    -0.000 A 
ATOM     22  C   UNL     1      -5.552   2.742  24.742  0.00  0.00    -0.003 A 
ENDBRANCH  16  17
ENDBRANCH  15  16
ENDBRANCH  12  13
ENDBRANCH  11  12
TORSDOF 6
ENDMDL
MODEL 2
REMARK VINA RESULT:     -14.2      2.401      6.035
REMARK  Name = 
REMARK  6 active torsions:
REMARK  status: ('A' for Active; 'I' for Inactive)
REMARK    1  A    between atoms: C_2  and  C_3
REMARK    2  A    between atoms: C_11  and  C_12
REMARK    3  A    between atoms: C_12  and  C_13
REMARK    4  A    between atoms: N_15  and  C_16
REMARK    5  A    between atoms: C_16  and  C_17
REMARK    6  A    between atoms: C_30  and  C_32
REMARK                            x       y       z     vdW  Elec       q    Type
REMARK                         _______ _______ _______ _____ _____    ______ ____
ROOT
ATOM      1  C   UNL     1      -2.337   4.840  25.842  0.00  0.00    +0.005 C 
ATOM      2  C   UNL     1      -2.109   4.161  25.435  0.00  0.00    +0.059 C 
ATOM      5  C   UNL     1      -1.524   4.683  25.181  0.00  0.00    +0.154 C 
ATOM      6  O   UNL     1      -1.521   5.463  25.451  0.00  0.00    -0.223 OA
ATOM      7  C   UNL     1      -0.941   4.427  24.655  0.00  0.00    +0.033 C 
ATOM      8  C   UNL     1      -0.943   3.648  24.385  0.00  0.00    +0.003 C 
ATOM      9  C   UNL     1      -1.528   3.125  24.639  0.00  0.00    +0.006 C 
ATOM     10  C   UNL     1      -0.946   2.869  24.115  0.00  0.00    +0.000 C 
ATOM     11  C   UNL     1      -1.531   2.345  24.369  0.00  0.00    +0.050 C 
ATOM     23  C   UNL     1      -2.116   1.823  24.623  0.00  0.00    +0.063 A 
ATOM     24  C   UNL     1      -2.699   2.079  25.148  0.00  0.00    +0.023 A 
ATOM     25  C   UNL     1      -2.697   2.858  25.418  0.00  0.00    +0.034 C 
ATOM     26  C   UNL     1      -2.112   3.382  25.164  0.00  0.00    +0.010 C 
ATOM     27  S   UNL     1      -3.202   1.443  25.301  0.00  0.00    -0.054 S 
ATOM     28  C   UNL     1      -2.930   0.794  24.871  0.00  0.00    +0.185 A 
ATOM     29  N   UNL     1      -3.269   0.042  24.862  0.00  0.00    -0.150 NA
ATOM     30  C   UNL     1      -2.934  -0.556  24.403  0.00  0.00    +0.275 C 
ATOM     31  O   UNL     1      -2.260  -0.403  23.953  0.00  0.00    -0.268 OA
ATOM     40  N   UNL     1      -2.259   1.028  24.453  0.00  0.00    -0.227 NA
ENDROOT
BRANCH  30  32
ATOM     32  C   UNL     1      -3.274  -1.308  24.394  0.00  0.00    +0.110 A 
ATOM     33  C   UNL     1      -3.904  -1.470  23.885  0.00  0.00    +0.147 A 
ATOM     34  F   UNL     1      -4.193  -0.881  23.387  0.00  0.00    -0.204 F 
ATOM     35  C   UNL     1      -4.243  -2.222  23.876  0.00  0.00    +0.030 A 
ATOM     36  C   UNL     1      -3.953  -2.812  24.375  0.00  0.00    +0.005 A 
ATOM     37  C   UNL     1      -3.324  -2.650  24.883  0.00  0.00    +0.030 A 
ATOM     38  C   UNL     1      -2.984  -1.898  24.893  0.00  0.00    +0.147 A 
ATOM     39  F   UNL     1      -2.355  -1.735  25.401  0.00  0.00    -0.204 F 
ENDBRANCH  30  32
BRANCH   2   3
ATOM      3  C   UNL     1      -2.773   3.874  25.830  0.00  0.00    +0.184 C 
ATOM      4  O   UNL     1      -3.176   4.358  26.365  0.00  0.00    -0.220 OA
ENDBRANCH   2   3
BRANCH  11  12
ATOM     12  C   UNL     1      -0.948   2.089  23.845  0.00  0.00    +0.093 C 
BRANCH  12  13
ATOM     13  C   UNL     1      -0.326   1.619  24.116  0.00  0.00    +0.242 C 
ATOM     14  O   UNL     1      -0.190   1.543  24.926  0.00  0.00    -0.273 OA
ATOM     15  N   UNL     1       0.159   1.226  23.578  0.00  0.00    -0.201 NA
BRANCH  15  16
ATOM     16  C   UNL     1       0.781   0.757  23.849  0.00  0.00    +0.141 C 
BRANCH  16  17
ATOM     17  C   UNL     1       1.347   0.476  23.319  0.00  0.00    -0.001 A 
ATOM     18  C   UNL     1       2.112   0.782  23.332  0.00  0.00    -0.003 A 
ATOM     19  C   UNL     1       2.679   0.501  22.802  0.00  0.00    -0.000 A 
ATOM     20  C   UNL     1       2.480  -0.087  22.259  0.00  0.00    -0.000 A 
ATOM     21  C   UNL     1       1.714  -0.394  22.247  0.00  0.00    -0.000 A 
ATOM     22  C   UNL     1       1.148  -0.112  22.777  0.00  0.00    -0.003 A 
ENDBRANCH  16  17
ENDBRANCH  15  16
ENDBRANCH  12  13
ENDBRANCH  11  12
TORSDOF 6
ENDMDL
MODEL 3
REMARK VINA RESULT:     -14.2      1.336      3.312
REMARK  Name = 
REMARK  6 active torsions:
REMARK  status: ('A' for Active; 'I' for Inactive)
REMARK    1  A    between atoms: C_2  and  C_3
REMARK    2  A    between atoms: C_11  and  C_12
REMARK    3  A    between atoms: C_12  and  C_13
REMARK    4  A    between atoms: N_15  and  C_16
REMARK    5  A    between atoms: C_16  and  C_17
REMARK    6  A    between atoms: C_30  and  C_32
REMARK                            x       y       z     vdW  Elec       q    Type
REMARK                         _______ _______ _______ _____ _____    ______ ____
ROOT
ATOM      1  C   UNL     1      -3.825  -3.132  23.919  0.00  0.00    +0.005 C 
ATOM      2  C   UNL     1      -3.542  -2.424  24.234  0.00  0.00    +0.059 C 
ATOM      5  C   UNL     1      -2.896  -2.914  24.382  0.00  0.00    +0.154 C 
ATOM      6  O   UNL     1      -2.920  -3.708  24.157  0.00  0.00    -0.223 OA
ATOM      7  C   UNL     1      -2.225  -2.612  24.756  0.00  0.00    +0.033 C 
ATOM      8  C   UNL     1      -2.201  -1.819  24.981  0.00  0.00    +0.003 C 
ATOM      9  C   UNL     1      -2.847  -1.328  24.833  0.00  0.00    +0.006 C 
ATOM     10  C   UNL     1      -2.177  -1.026  25.206  0.00  0.00    +0.000 C 
ATOM     11  C   UNL     1      -2.823  -0.535  25.058  0.00  0.00    +0.050 C 
ATOM     23  C   UNL     1      -3.469  -0.044  24.910  0.00  0.00    +0.063 A 
ATOM     24  C   UNL     1      -4.140  -0.347  24.536  0.00  0.00    +0.023 A 
ATOM     25  C   UNL     1      -4.164  -1.140  24.311  0.00  0.00    +0.034 C 
ATOM     26  C   UNL     1      -3.518  -1.631  24.459  0.00  0.00    +0.010 C 
ATOM     27  S   UNL     1      -4.688   0.265  24.463  0.00  0.00    -0.054 S 
ATOM     28  C   UNL     1      -4.357   0.946  24.791  0.00  0.00    +0.185 A 
ATOM     29  N   UNL     1      -4.717   1.687  24.836  0.00  0.00    -0.150 NA
ATOM     30  C   UNL     1      -4.316   2.319  25.181  0.00  0.00    +0.275 C 
ATOM     31  O   UNL     1      -3.555   2.211  25.483  0.00  0.00    -0.268 OA
ATOM     40  N   UNL     1      -3.604   0.754  25.067  0.00  0.00    -0.227 NA
ENDROOT
BRANCH  30  32
ATOM     32  C   UNL     1      -4.675   3.060  25.226  0.00  0.00    +0.110 A 
ATOM     33  C   UNL     1      -4.415   3.675  24.740  0.00  0.00    +0.147 A 
ATOM     34  F   UNL     1      -3.796   3.547  24.210  0.00  0.00    -0.204 F 
ATOM     35  C   UNL     1      -4.774   4.416  24.784  0.00  0.00    +0.030 A 
ATOM     36  C   UNL     1      -5.393   4.543  25.315  0.00  0.00    +0.005 A 
ATOM     37  C   UNL     1      -5.653   3.930  25.801  0.00  0.00    +0.030 A 
ATOM     38  C   UNL     1      -5.294   3.188  25.756  0.00  0.00    +0.147 A 
ATOM     39  F   UNL     1      -5.554   2.574  26.242  0.00  0.00    -0.204 F 
ENDBRANCH  30  32
BRANCH   2   3
ATOM      3  C   UNL     1      -4.286  -2.179  23.976  0.00  0.00    +0.184 C 
ATOM      4  O   UNL     1      -4.766  -2.698  23.549  0.00  0.00    -0.220 OA
ENDBRANCH   2   3
BRANCH  11  12
ATOM     12  C   UNL     1      -2.153  -0.232  25.432  0.00  0.00    +0.093 C 
BRANCH  12  13
ATOM     13  C   UNL     1      -1.600   0.202  24.999  0.00  0.00    +0.242 C 
ATOM     14  O   UNL     1      -1.468   0.026  24.204  0.00  0.00    -0.273 OA
ATOM     15  N   UNL     1      -1.179   0.811  25.362  0.00  0.00    -0.201 NA
BRANCH  15  16
ATOM     16  C   UNL     1      -0.627   1.246  24.931  0.00  0.00    +0.141 C 
BRANCH  16  17
ATOM     17  C   UNL     1      -0.471   2.030  25.131  0.00  0.00    -0.001 A 
ATOM     18  C   UNL     1      -0.232   2.221  25.897  0.00  0.00    -0.003 A 
ATOM     19  C   UNL     1      -0.076   3.006  26.097  0.00  0.00    -0.000 A 
ATOM     20  C   UNL     1      -0.159   3.600  25.532  0.00  0.00    -0.000 A 
ATOM     21  C   UNL     1      -0.397   3.409  24.766  0.00  0.00    -0.000 A 
ATOM     22  C   UNL     1      -0.553   2.624  24.565  0.00  0.00    -0.003 A 
ENDBRANCH  16  17
ENDBRANCH  15  16
ENDBRANCH  12  13
ENDBRANCH  11  12
TORSDOF 6
ENDMDL
MODEL 4
REMARK VINA RESULT:     -14.0      2.168      5.700
REMARK  Name = 
REMARK  6 active torsions:
REMARK  status: ('A' for Active; 'I' for Inactive)
REMARK    1  A    between atoms: C_2  and  C_3
REMARK    2  A    between atoms: C_11  and  C_12
REMARK    3  A    between atoms: C_12  and  C_13
REMARK    4  A    between atoms: N_15  and  C_16
REMARK    5  A    between atoms: C_16  and  C_17
REMARK    6  A    between atoms: C_30  and  C_32
REMARK                            x       y       z     vdW  Elec       q    Type
REMARK                         _______ _______ _______ _____ _____    ______ ____
ROOT
ATOM      1  C   UNL     1      -5.517   4.074  25.611  0.00  0.00    +0.005 C 
ATOM      2  C   UNL     1      -4.963   3.549  25.300  0.00  0.00    +0.059 C 
ATOM      5  C   UNL     1      -4.594   4.265  25.128  0.00  0.00    +0.154 C 
ATOM      6  O   UNL     1      -4.952   4.977  25.342  0.00  0.00    -0.223 OA
ATOM      7  C   UNL     1      -3.864   4.271  24.740  0.00  0.00    +0.033 C 
ATOM      8  C   UNL     1      -3.506   3.561  24.526  0.00  0.00    +0.003 C 
ATOM      9  C   UNL     1      -3.875   2.844  24.699  0.00  0.00    +0.006 C 
ATOM     10  C   UNL     1      -3.147   2.850  24.312  0.00  0.00    +0.000 C 
ATOM     11  C   UNL     1      -3.516   2.132  24.484  0.00  0.00    +0.050 C 
ATOM     23  C   UNL     1      -3.886   1.416  24.657  0.00  0.00    +0.063 A 
ATOM     24  C   UNL     1      -4.615   1.410  25.044  0.00  0.00    +0.023 A 
ATOM     25  C   UNL     1      -4.974   2.121  25.258  0.00  0.00    +0.034 C 
ATOM     26  C   UNL     1      -4.605   2.838  25.086  0.00  0.00    +0.010 C 
ATOM     27  S   UNL     1      -4.846   0.623  25.140  0.00  0.00    -0.054 S 
ATOM     28  C   UNL     1      -4.260   0.143  24.813  0.00  0.00    +0.185 A 
ATOM     29  N   UNL     1      -4.267  -0.681  24.789  0.00  0.00    -0.150 NA
ATOM     30  C   UNL     1      -3.639  -1.088  24.442  0.00  0.00    +0.275 C 
ATOM     31  O   UNL     1      -3.004  -0.671  24.119  0.00  0.00    -0.268 OA
ATOM     40  N   UNL     1      -3.667   0.633  24.514  0.00  0.00    -0.227 NA
ENDROOT
BRANCH  30  32
ATOM     32  C   UNL     1      -3.645  -1.913  24.418  0.00  0.00    +0.110 A 
ATOM     33  C   UNL     1      -3.256  -2.346  25.003  0.00  0.00    +0.147 A 
ATOM     34  F   UNL     1      -2.862  -1.954  25.612  0.00  0.00    -0.204 F 
ATOM     35  C   UNL     1      -3.263  -3.171  24.979  0.00  0.00    +0.030 A 
ATOM     36  C   UNL     1      -3.658  -3.562  24.369  0.00  0.00    +0.005 A 
ATOM     37  C   UNL     1      -4.046  -3.130  23.785  0.00  0.00    +0.030 A 
ATOM     38  C   UNL     1      -4.040  -2.305  23.809  0.00  0.00    +0.147 A 
ATOM     39  F   UNL     1      -4.429  -1.872  23.223  0.00  0.00    -0.204 F 
ENDBRANCH  30  32
BRANCH   2   3
ATOM      3  C   UNL     1      -5.525   3.015  25.580  0.00  0.00    +0.184 C 
ATOM      4  O   UNL     1      -6.181   3.288  26.001  0.00  0.00    -0.220 OA
ENDBRANCH   2   3
BRANCH  11  12
ATOM     12  C   UNL     1      -2.788   2.138  24.098  0.00  0.00    +0.093 C 
BRANCH  12  13
ATOM     13  C   UNL     1      -2.101   1.935  24.508  0.00  0.00    +0.242 C 
ATOM     14  O   UNL     1      -2.073   2.014  25.329  0.00  0.00    -0.273 OA
ATOM     15  N   UNL     1      -1.444   1.653  24.099  0.00  0.00    -0.201 NA
BRANCH  15  16
ATOM     16  C   UNL     1      -0.757   1.450  24.508  0.00  0.00    +0.141 C 
BRANCH  16  17
ATOM     17  C   UNL     1      -0.121   1.112  24.106  0.00  0.00    -0.001 A 
ATOM     18  C   UNL     1       0.564   1.552  23.976  0.00  0.00    -0.003 A 
ATOM     19  C   UNL     1       1.200   1.214  23.574  0.00  0.00    -0.000 A 
ATOM     20  C   UNL     1       1.152   0.437  23.302  0.00  0.00    -0.000 A 
ATOM     21  C   UNL     1       0.466  -0.002  23.433  0.00  0.00    -0.000 A 
ATOM     22  C   UNL     1      -0.170   0.335  23.835  0.00  0.00    -0.003 A 
ENDBRANCH  16  17
ENDBRANCH  15  16
ENDBRANCH  12  13
ENDBRANCH  11  12
TORSDOF 6
ENDMDL
MODEL 5
REMARK VINA RESULT:     -13.9      1.772      4.607
REMARK  Name = 
REMARK  6 active torsions:
REMARK  status: ('A' for Active; 'I' for Inactive)
REMARK    1  A    between atoms: C_2  and  C_3
REMARK    2  A    between atoms: C_11  and  C_12
REMARK    3  A    between atoms: C_12  and  C_13
REMARK    4  A    between atoms: N_15  and  C_16
REMARK    5  A    between atoms: C_16  and  C_17
REMARK    6  A    between atoms: C_30  and  C_32
REMARK                            x       y       z     vdW  Elec       q    Type
REMARK                         _______ _______ _______ _____ _____    ______ ____
ROOT
ATOM      1  C   UNL     1      -4.748   4.323  25.843  0.00  0.00    +0.005 C 
ATOM      2  C   UNL     1      -4.547   3.593  25.515  0.00  0.00    +0.059 C 
ATOM      5  C   UNL     1      -5.368   3.522  25.532  0.00  0.00    +0.154 C 
ATOM      6  O   UNL     1      -5.831   4.138  25.826  0.00  0.00    -0.223 OA
ATOM      7  C   UNL     1      -5.728   2.832  25.253  0.00  0.00    +0.033 C 
ATOM      8  C   UNL     1      -5.266   2.216  24.959  0.00  0.00    +0.003 C 
ATOM      9  C   UNL     1      -4.445   2.288  24.942  0.00  0.00    +0.006 C 
ATOM     10  C   UNL     1      -4.804   1.600  24.665  0.00  0.00    +0.000 C 
ATOM     11  C   UNL     1      -3.982   1.671  24.648  0.00  0.00    +0.050 C 
ATOM     23  C   UNL     1      -3.161   1.743  24.631  0.00  0.00    +0.063 A 
ATOM     24  C   UNL     1      -2.801   2.432  24.909  0.00  0.00    +0.023 A 
ATOM     25  C   UNL     1      -3.263   3.048  25.204  0.00  0.00    +0.034 C 
ATOM     26  C   UNL     1      -4.085   2.977  25.221  0.00  0.00    +0.010 C 
ATOM     27  S   UNL     1      -1.985   2.345  24.824  0.00  0.00    -0.054 S 
ATOM     28  C   UNL     1      -1.840   1.603  24.494  0.00  0.00    +0.185 A 
ATOM     29  N   UNL     1      -1.099   1.289  24.314  0.00  0.00    -0.150 NA
ATOM     30  C   UNL     1      -1.040   0.536  23.984  0.00  0.00    +0.275 C 
ATOM     31  O   UNL     1      -1.722   0.096  23.833  0.00  0.00    -0.268 OA
ATOM     40  N   UNL     1      -2.567   1.232  24.375  0.00  0.00    -0.227 NA
ENDROOT
BRANCH  30  32
ATOM     32  C   UNL     1      -0.299   0.221  23.804  0.00  0.00    +0.110 A 
ATOM     33  C   UNL     1       0.141   0.532  23.178  0.00  0.00    +0.147 A 
ATOM     34  F   UNL     1      -0.161   1.157  22.733  0.00  0.00    -0.204 F 
ATOM     35  C   UNL     1       0.882   0.217  22.999  0.00  0.00    +0.030 A 
ATOM     36  C   UNL     1       1.183  -0.408  23.445  0.00  0.00    +0.005 A 
ATOM     37  C   UNL     1       0.744  -0.719  24.070  0.00  0.00    +0.030 A 
ATOM     38  C   UNL     1       0.003  -0.404  24.249  0.00  0.00    +0.147 A 
ATOM     39  F   UNL     1      -0.437  -0.715  24.875  0.00  0.00    -0.204 F 
ENDBRANCH  30  32
BRANCH   2   3
ATOM      3  C   UNL     1      -3.795   3.919  25.612  0.00  0.00    +0.184 C 
ATOM      4  O   UNL     1      -3.704   4.631  26.019  0.00  0.00    -0.220 OA
ENDBRANCH   2   3
BRANCH  11  12
ATOM     12  C   UNL     1      -4.342   0.983  24.370  0.00  0.00    +0.093 C 
BRANCH  12  13
ATOM     13  C   UNL     1      -4.346   0.302  24.836  0.00  0.00    +0.242 C 
ATOM     14  O   UNL     1      -4.409   0.364  25.656  0.00  0.00    -0.273 OA
ATOM     15  N   UNL     1      -4.286  -0.440  24.483  0.00  0.00    -0.201 NA
BRANCH  15  16
ATOM     16  C   UNL     1      -4.290  -1.121  24.948  0.00  0.00    +0.141 C 
BRANCH  16  17
ATOM     17  C   UNL     1      -4.006  -1.833  24.642  0.00  0.00    -0.001 A 
ATOM     18  C   UNL     1      -3.442  -2.265  25.060  0.00  0.00    -0.003 A 
ATOM     19  C   UNL     1      -3.158  -2.977  24.753  0.00  0.00    -0.000 A 
ATOM     20  C   UNL     1      -3.438  -3.255  24.029  0.00  0.00    -0.000 A 
ATOM     21  C   UNL     1      -4.002  -2.822  23.612  0.00  0.00    -0.000 A 
ATOM     22  C   UNL     1      -4.286  -2.110  23.918  0.00  0.00    -0.003 A 
ENDBRANCH  16  17
ENDBRANCH  15  16
ENDBRANCH  12  13
ENDBRANCH  11  12
TORSDOF 6
ENDMDL
MODEL 6
REMARK VINA RESULT:     -13.4      1.669      4.881
REMARK  Name = 
REMARK  6 active torsions:
REMARK  status: ('A' for Active; 'I' for Inactive)
REMARK    1  A    between atoms: C_2  and  C_3
REMARK    2  A    between atoms: C_11  and  C_12
REMARK    3  A    between atoms: C_12  and  C_13
REMARK    4  A    between atoms: N_15  and  C_16
REMARK    5  A    between atoms: C_16  and  C_17
REMARK    6  A    between atoms: C_30  and  C_32
REMARK                            x       y       z     vdW  Elec       q    Type
REMARK                         _______ _______ _______ _____ _____    ______ ____
ROOT
ATOM      1  C   UNL     1       0.024   4.635  24.226  0.00  0.00    +0.005 C 
ATOM      2  C   UNL     1      -0.623   4.216  24.519  0.00  0.00    +0.059 C 
ATOM      5  C   UNL     1      -0.781   4.961  24.834  0.00  0.00    +0.154 C 
ATOM      6  O   UNL     1      -0.267   5.590  24.686  0.00  0.00    -0.223 OA
ATOM      7  C   UNL     1      -1.454   5.080  25.299  0.00  0.00    +0.033 C 
ATOM      8  C   UNL     1      -1.967   4.452  25.447  0.00  0.00    +0.003 C 
ATOM      9  C   UNL     1      -1.810   3.707  25.132  0.00  0.00    +0.006 C 
ATOM     10  C   UNL     1      -2.481   3.825  25.595  0.00  0.00    +0.000 C 
ATOM     11  C   UNL     1      -2.324   3.079  25.280  0.00  0.00    +0.050 C 
ATOM     23  C   UNL     1      -2.167   2.333  24.965  0.00  0.00    +0.063 A 
ATOM     24  C   UNL     1      -1.494   2.215  24.500  0.00  0.00    +0.023 A 
ATOM     25  C   UNL     1      -0.980   2.842  24.352  0.00  0.00    +0.034 C 
ATOM     26  C   UNL     1      -1.137   3.589  24.667  0.00  0.00    +0.010 C 
ATOM     27  S   UNL     1      -1.483   1.424  24.266  0.00  0.00    -0.054 S 
ATOM     28  C   UNL     1      -2.148   1.053  24.584  0.00  0.00    +0.185 A 
ATOM     29  N   UNL     1      -2.354   0.260  24.488  0.00  0.00    -0.150 NA
ATOM     30  C   UNL     1      -3.038  -0.033  24.841  0.00  0.00    +0.275 C 
ATOM     31  O   UNL     1      -3.518   0.465  25.291  0.00  0.00    -0.268 OA
ATOM     40  N   UNL     1      -2.570   1.615  25.016  0.00  0.00    -0.227 NA
ENDROOT
BRANCH  30  32
ATOM     32  C   UNL     1      -3.244  -0.826  24.744  0.00  0.00    +0.110 A 
ATOM     33  C   UNL     1      -2.942  -1.397  25.259  0.00  0.00    +0.147 A 
ATOM     34  F   UNL     1      -2.434  -1.173  25.869  0.00  0.00    -0.204 F 
ATOM     35  C   UNL     1      -3.148  -2.190  25.163  0.00  0.00    +0.030 A 
ATOM     36  C   UNL     1      -3.657  -2.412  24.552  0.00  0.00    +0.005 A 
ATOM     37  C   UNL     1      -3.958  -1.843  24.038  0.00  0.00    +0.030 A 
ATOM     38  C   UNL     1      -3.752  -1.050  24.134  0.00  0.00    +0.147 A 
ATOM     39  F   UNL     1      -4.055  -0.479  23.620  0.00  0.00    -0.204 F 
ENDBRANCH  30  32
BRANCH   2   3
ATOM      3  C   UNL     1      -0.241   3.616  24.102  0.00  0.00    +0.184 C 
ATOM      4  O   UNL     1       0.437   3.786  23.663  0.00  0.00    -0.220 OA
ENDBRANCH   2   3
BRANCH  11  12
ATOM     12  C   UNL     1      -2.996   3.197  25.743  0.00  0.00    +0.093 C 
BRANCH  12  13
ATOM     13  C   UNL     1      -3.733   3.300  25.385  0.00  0.00    +0.242 C 
ATOM     14  O   UNL     1      -3.785   3.671  24.650  0.00  0.00    -0.273 OA
ATOM     15  N   UNL     1      -4.415   3.032  25.761  0.00  0.00    -0.201 NA
BRANCH  15  16
ATOM     16  C   UNL     1      -5.151   3.134  25.403  0.00  0.00    +0.141 C 
BRANCH  16  17
ATOM     17  C   UNL     1      -5.731   2.551  25.475  0.00  0.00    -0.001 A 
ATOM     18  C   UNL     1      -6.034   2.186  24.801  0.00  0.00    -0.003 A 
ATOM     19  C   UNL     1      -6.613   1.603  24.873  0.00  0.00    -0.000 A 
ATOM     20  C   UNL     1      -6.889   1.385  25.619  0.00  0.00    -0.000 A 
ATOM     21  C   UNL     1      -6.585   1.751  26.293  0.00  0.00    -0.000 A 
ATOM     22  C   UNL     1      -6.006   2.334  26.221  0.00  0.00    -0.003 A 
ENDBRANCH  16  17
ENDBRANCH  15  16
ENDBRANCH  12  13
ENDBRANCH  11  12
TORSDOF 6
ENDMDL
