MODEL 1
REMARK VINA RESULT:      -8.6      0.000      0.000
REMARK  Name = 
REMARK  8 active torsions:
REMARK  status: ('A' for Active; 'I' for Inactive)
REMARK    1  A    between atoms: O_2  and  C_3
REMARK    2  A    between atoms: C_3  and  C_4
REMARK    3  A    between atoms: C_4  and  O_5
REMARK    4  A    between atoms: O_5  and  C_6
REMARK    5  A    between atoms: C_9  and  C_12
REMARK    6  A    between atoms: C_15  and  C_17
REMARK    7  A    between atoms: N_21  and  C_22
REMARK    8  A    between atoms: C_22  and  C_23
REMARK                            x       y       z     vdW  Elec       q    Type
REMARK                         _______ _______ _______ _____ _____    ______ ____
ROOT
ATOM     12  C   UNL     1      -1.177   0.091  24.544  0.00  0.00    +0.205 A 
ATOM     13  N   UNL     1      -1.219   0.018  25.365  0.00  0.00    -0.056 NA
ATOM     14  O   UNL     1      -2.013   0.074  25.585  0.00  0.00    -0.336 OA
ATOM     15  C   UNL     1      -2.460   0.182  24.900  0.00  0.00    +0.251 A 
ATOM     16  N   UNL     1      -1.944   0.192  24.257  0.00  0.00    -0.190 NA
ENDROOT
BRANCH  12   9
ATOM      6  C   UNL     1       0.889   0.020  23.183  0.00  0.00    +0.225 A 
ATOM      7  C   UNL     1       0.501   0.738  23.308  0.00  0.00    +0.058 A 
ATOM      8  C   UNL     1      -0.187   0.762  23.761  0.00  0.00    +0.010 A 
ATOM      9  C   UNL     1      -0.488   0.067  24.090  0.00  0.00    +0.058 A 
ATOM     10  C   UNL     1      -0.101  -0.650  23.966  0.00  0.00    +0.105 A 
ATOM     11  N   UNL     1       0.587  -0.674  23.512  0.00  0.00    -0.210 NA
BRANCH   6   5
ATOM      5  O   UNL     1       1.578  -0.004  22.729  0.00  0.00    -0.457 OA
BRANCH   5   4
ATOM      4  C   UNL     1       2.257   0.382  22.991  0.00  0.00    +0.239 C 
BRANCH   4   3
ATOM      3  C   UNL     1       2.973   0.270  22.597  0.00  0.00    +0.189 C 
BRANCH   3   2
ATOM      1  C   UNL     1       4.364   0.520  22.813  0.00  0.00    +0.174 C 
ATOM      2  O   UNL     1       3.595   0.801  22.711  0.00  0.00    -0.347 OA
ENDBRANCH   3   2
ENDBRANCH   4   3
ENDBRANCH   5   4
ENDBRANCH   6   5
ENDBRANCH  12   9
BRANCH  15  17
ATOM     17  C   UNL     1      -3.280   0.264  24.865  0.00  0.00    +0.138 C 
ATOM     18  C   UNL     1      -3.826  -0.350  24.787  0.00  0.00    +0.027 C 
ATOM     19  C   UNL     1      -4.582  -0.018  24.775  0.00  0.00    +0.019 C 
ATOM     20  C   UNL     1      -4.503   0.799  24.844  0.00  0.00    +0.073 C 
ATOM     21  N   UNL     1      -3.698   0.974  24.900  0.00  0.00    -0.263 NA
BRANCH  21  22
ATOM     22  C   UNL     1      -3.370   1.727  24.977  0.00  0.00    +0.101 C 
BRANCH  22  23
ATOM     23  C   UNL     1      -3.856   2.393  24.955  0.00  0.00    +0.013 A 
ATOM     24  C   UNL     1      -3.955   2.809  24.249  0.00  0.00    +0.000 A 
ATOM     25  C   UNL     1      -4.441   3.475  24.228  0.00  0.00    +0.020 A 
ATOM     26  C   UNL     1      -4.828   3.726  24.912  0.00  0.00    +0.099 A 
ATOM     27  N   UNL     1      -4.729   3.311  25.618  0.00  0.00    -0.243 NA
ATOM     28  C   UNL     1      -4.243   2.644  25.639  0.00  0.00    +0.096 A 
ENDBRANCH  22  23
ENDBRANCH  21  22
ENDBRANCH  15  17
TORSDOF 8
ENDMDL
MODEL 2
REMARK VINA RESULT:      -7.9      2.407      3.736
REMARK  Name = 
REMARK  8 active torsions:
REMARK  status: ('A' for Active; 'I' for Inactive)
REMARK    1  A    between atoms: O_2  and  C_3
REMARK    2  A    between atoms: C_3  and  C_4
REMARK    3  A    between atoms: C_4  and  O_5
REMARK    4  A    between atoms: O_5  and  C_6
REMARK    5  A    between atoms: C_9  and  C_12
REMARK    6  A    between atoms: C_15  and  C_17
REMARK    7  A    between atoms: N_21  and  C_22
REMARK    8  A    between atoms: C_22  and  C_23
REMARK                            x       y       z     vdW  Elec       q    Type
REMARK                         _______ _______ _______ _____ _____    ______ ____
ROOT
ATOM     12  C   UNL     1      -0.636   1.689  25.382  0.00  0.00    +0.205 A 
ATOM     13  N   UNL     1      -0.017   2.038  25.803  0.00  0.00    -0.056 NA
ATOM     14  O   UNL     1      -0.155   2.851  25.832  0.00  0.00    -0.336 OA
ATOM     15  C   UNL     1      -0.858   3.005  25.430  0.00  0.00    +0.251 A 
ATOM     16  N   UNL     1      -1.156   2.286  25.152  0.00  0.00    -0.190 NA
ENDROOT
BRANCH  12   9
ATOM      6  C   UNL     1      -0.887  -0.725  24.899  0.00  0.00    +0.225 A 
ATOM      7  C   UNL     1      -1.101  -0.428  25.639  0.00  0.00    +0.058 A 
ATOM      8  C   UNL     1      -1.017   0.377  25.800  0.00  0.00    +0.010 A 
ATOM      9  C   UNL     1      -0.720   0.884  25.221  0.00  0.00    +0.058 A 
ATOM     10  C   UNL     1      -0.506   0.588  24.482  0.00  0.00    +0.105 A 
ATOM     11  N   UNL     1      -0.590  -0.217  24.321  0.00  0.00    -0.210 NA
BRANCH   6   5
ATOM      5  O   UNL     1      -0.971  -1.530  24.737  0.00  0.00    -0.457 OA
BRANCH   5   4
ATOM      4  C   UNL     1      -1.655  -1.807  24.370  0.00  0.00    +0.239 C 
BRANCH   4   3
ATOM      3  C   UNL     1      -1.923  -2.573  24.522  0.00  0.00    +0.189 C 
BRANCH   3   2
ATOM      1  C   UNL     1      -3.277  -3.029  24.487  0.00  0.00    +0.174 C 
ATOM      2  O   UNL     1      -2.565  -2.877  24.101  0.00  0.00    -0.347 OA
ENDBRANCH   3   2
ENDBRANCH   4   3
ENDBRANCH   5   4
ENDBRANCH   6   5
ENDBRANCH  12   9
BRANCH  15  17
ATOM     17  C   UNL     1      -1.204   3.746  25.324  0.00  0.00    +0.138 C 
ATOM     18  C   UNL     1      -0.822   4.425  25.053  0.00  0.00    +0.027 C 
ATOM     19  C   UNL     1      -1.375   5.038  25.031  0.00  0.00    +0.019 C 
ATOM     20  C   UNL     1      -2.098   4.737  25.290  0.00  0.00    +0.073 C 
ATOM     21  N   UNL     1      -1.993   3.938  25.470  0.00  0.00    -0.263 NA
BRANCH  21  22
ATOM     22  C   UNL     1      -2.574   3.424  25.749  0.00  0.00    +0.101 C 
BRANCH  22  23
ATOM     23  C   UNL     1      -3.371   3.590  25.615  0.00  0.00    +0.013 A 
ATOM     24  C   UNL     1      -3.720   3.388  24.895  0.00  0.00    +0.000 A 
ATOM     25  C   UNL     1      -4.516   3.554  24.762  0.00  0.00    +0.020 A 
ATOM     26  C   UNL     1      -4.965   3.923  25.348  0.00  0.00    +0.099 A 
ATOM     27  N   UNL     1      -4.617   4.125  26.068  0.00  0.00    -0.243 NA
ATOM     28  C   UNL     1      -3.819   3.958  26.201  0.00  0.00    +0.096 A 
ENDBRANCH  22  23
ENDBRANCH  21  22
ENDBRANCH  15  17
TORSDOF 8
ENDMDL
MODEL 3
REMARK VINA RESULT:      -7.6      1.635      2.814
REMARK  Name = 
REMARK  8 active torsions:
REMARK  status: ('A' for Active; 'I' for Inactive)
REMARK    1  A    between atoms: O_2  and  C_3
REMARK    2  A    between atoms: C_3  and  C_4
REMARK    3  A    between atoms: C_4  and  O_5
REMARK    4  A    between atoms: O_5  and  C_6
REMARK    5  A    between atoms: C_9  and  C_12
REMARK    6  A    between atoms: C_15  and  C_17
REMARK    7  A    between atoms: N_21  and  C_22
REMARK    8  A    between atoms: C_22  and  C_23
REMARK                            x       y       z     vdW  Elec       q    Type
REMARK                         _______ _______ _______ _____ _____    ______ ____
ROOT
ATOM     12  C   UNL     1      -0.148   0.915  24.020  0.00  0.00    +0.205 A 
ATOM     13  N   UNL     1      -0.288   1.305  24.734  0.00  0.00    -0.056 NA
ATOM     14  O   UNL     1      -1.102   1.293  24.875  0.00  0.00    -0.336 OA
ATOM     15  C   UNL     1      -1.463   0.896  24.248  0.00  0.00    +0.251 A 
ATOM     16  N   UNL     1      -0.873   0.663  23.720  0.00  0.00    -0.190 NA
ENDROOT
BRANCH  12   9
ATOM      6  C   UNL     1       2.064   0.567  22.965  0.00  0.00    +0.225 A 
ATOM      7  C   UNL     1       1.464   0.009  22.861  0.00  0.00    +0.058 A 
ATOM      8  C   UNL     1       0.727   0.125  23.212  0.00  0.00    +0.010 A 
ATOM      9  C   UNL     1       0.590   0.799  23.668  0.00  0.00    +0.058 A 
ATOM     10  C   UNL     1       1.188   1.356  23.773  0.00  0.00    +0.105 A 
ATOM     11  N   UNL     1       1.925   1.240  23.421  0.00  0.00    -0.210 NA
BRANCH   6   5
ATOM      5  O   UNL     1       2.801   0.451  22.613  0.00  0.00    -0.457 OA
BRANCH   5   4
ATOM      4  C   UNL     1       3.490   0.614  23.036  0.00  0.00    +0.239 C 
BRANCH   4   3
ATOM      3  C   UNL     1       4.218   0.344  22.758  0.00  0.00    +0.189 C 
BRANCH   3   2
ATOM      1  C   UNL     1       5.448   0.067  23.433  0.00  0.00    +0.174 C 
ATOM      2  O   UNL     1       4.918   0.609  23.108  0.00  0.00    -0.347 OA
ENDBRANCH   3   2
ENDBRANCH   4   3
ENDBRANCH   5   4
ENDBRANCH   6   5
ENDBRANCH  12   9
BRANCH  15  17
ATOM     17  C   UNL     1      -2.271   0.757  24.164  0.00  0.00    +0.138 C 
ATOM     18  C   UNL     1      -2.809   1.243  23.769  0.00  0.00    +0.027 C 
ATOM     19  C   UNL     1      -3.555   0.894  23.821  0.00  0.00    +0.019 C 
ATOM     20  C   UNL     1      -3.478   0.192  24.248  0.00  0.00    +0.073 C 
ATOM     21  N   UNL     1      -2.685   0.108  24.460  0.00  0.00    -0.263 NA
BRANCH  21  22
ATOM     22  C   UNL     1      -2.364  -0.517  24.892  0.00  0.00    +0.101 C 
BRANCH  22  23
ATOM     23  C   UNL     1      -2.771  -1.231  24.952  0.00  0.00    +0.013 A 
ATOM     24  C   UNL     1      -2.637  -1.830  24.401  0.00  0.00    +0.000 A 
ATOM     25  C   UNL     1      -3.045  -2.544  24.461  0.00  0.00    +0.020 A 
ATOM     26  C   UNL     1      -3.588  -2.660  25.071  0.00  0.00    +0.099 A 
ATOM     27  N   UNL     1      -3.722  -2.061  25.623  0.00  0.00    -0.243 NA
ATOM     28  C   UNL     1      -3.314  -1.346  25.562  0.00  0.00    +0.096 A 
ENDBRANCH  22  23
ENDBRANCH  21  22
ENDBRANCH  15  17
TORSDOF 8
ENDMDL
MODEL 4
REMARK VINA RESULT:      -7.6      1.295      1.943
REMARK  Name = 
REMARK  8 active torsions:
REMARK  status: ('A' for Active; 'I' for Inactive)
REMARK    1  A    between atoms: O_2  and  C_3
REMARK    2  A    between atoms: C_3  and  C_4
REMARK    3  A    between atoms: C_4  and  O_5
REMARK    4  A    between atoms: O_5  and  C_6
REMARK    5  A    between atoms: C_9  and  C_12
REMARK    6  A    between atoms: C_15  and  C_17
REMARK    7  A    between atoms: N_21  and  C_22
REMARK    8  A    between atoms: C_22  and  C_23
REMARK                            x       y       z     vdW  Elec       q    Type
REMARK                         _______ _______ _______ _____ _____    ______ ____
ROOT
ATOM     12  C   UNL     1      -0.645   1.413  24.711  0.00  0.00    +0.205 A 
ATOM     13  N   UNL     1      -0.947   1.022  25.371  0.00  0.00    -0.056 NA
ATOM     14  O   UNL     1      -1.554   1.484  25.687  0.00  0.00    -0.336 OA
ATOM     15  C   UNL     1      -1.626   2.162  25.222  0.00  0.00    +0.251 A 
ATOM     16  N   UNL     1      -1.064   2.118  24.618  0.00  0.00    -0.190 NA
ENDROOT
BRANCH  12   9
ATOM      6  C   UNL     1       1.196   0.615  23.262  0.00  0.00    +0.225 A 
ATOM      7  C   UNL     1       0.515   0.157  23.355  0.00  0.00    +0.058 A 
ATOM      8  C   UNL     1      -0.099   0.423  23.838  0.00  0.00    +0.010 A 
ATOM      9  C   UNL     1      -0.032   1.147  24.228  0.00  0.00    +0.058 A 
ATOM     10  C   UNL     1       0.648   1.605  24.135  0.00  0.00    +0.105 A 
ATOM     11  N   UNL     1       1.262   1.338  23.652  0.00  0.00    -0.210 NA
BRANCH   6   5
ATOM      5  O   UNL     1       1.809   0.348  22.779  0.00  0.00    -0.457 OA
BRANCH   5   4
ATOM      4  C   UNL     1       2.587   0.565  22.945  0.00  0.00    +0.239 C 
BRANCH   4   3
ATOM      3  C   UNL     1       3.205   0.263  22.488  0.00  0.00    +0.189 C 
BRANCH   3   2
ATOM      1  C   UNL     1       4.546   0.429  22.957  0.00  0.00    +0.174 C 
ATOM      2  O   UNL     1       3.929   0.660  22.460  0.00  0.00    -0.347 OA
ENDBRANCH   3   2
ENDBRANCH   4   3
ENDBRANCH   5   4
ENDBRANCH   6   5
ENDBRANCH  12   9
BRANCH  15  17
ATOM     17  C   UNL     1      -2.165   2.775  25.338  0.00  0.00    +0.138 C 
ATOM     18  C   UNL     1      -2.000   3.505  25.687  0.00  0.00    +0.027 C 
ATOM     19  C   UNL     1      -2.697   3.948  25.691  0.00  0.00    +0.019 C 
ATOM     20  C   UNL     1      -3.291   3.492  25.346  0.00  0.00    +0.073 C 
ATOM     21  N   UNL     1      -2.962   2.767  25.128  0.00  0.00    -0.263 NA
BRANCH  21  22
ATOM     22  C   UNL     1      -3.361   2.144  24.763  0.00  0.00    +0.101 C 
BRANCH  22  23
ATOM     23  C   UNL     1      -4.182   2.089  24.823  0.00  0.00    +0.013 A 
ATOM     24  C   UNL     1      -4.522   1.550  25.348  0.00  0.00    +0.000 A 
ATOM     25  C   UNL     1      -5.342   1.495  25.408  0.00  0.00    +0.020 A 
ATOM     26  C   UNL     1      -5.824   1.976  24.943  0.00  0.00    +0.099 A 
ATOM     27  N   UNL     1      -5.484   2.515  24.417  0.00  0.00    -0.243 NA
ATOM     28  C   UNL     1      -4.663   2.570  24.358  0.00  0.00    +0.096 A 
ENDBRANCH  22  23
ENDBRANCH  21  22
ENDBRANCH  15  17
TORSDOF 8
ENDMDL
MODEL 5
REMARK VINA RESULT:      -7.4      2.753      3.957
REMARK  Name = 
REMARK  8 active torsions:
REMARK  status: ('A' for Active; 'I' for Inactive)
REMARK    1  A    between atoms: O_2  and  C_3
REMARK    2  A    between atoms: C_3  and  C_4
REMARK    3  A    between atoms: C_4  and  O_5
REMARK    4  A    between atoms: O_5  and  C_6
REMARK    5  A    between atoms: C_9  and  C_12
REMARK    6  A    between atoms: C_15  and  C_17
REMARK    7  A    between atoms: N_21  and  C_22
REMARK    8  A    between atoms: C_22  and  C_23
REMARK                            x       y       z     vdW  Elec       q    Type
REMARK                         _______ _______ _______ _____ _____    ______ ____
ROOT
ATOM     12  C   UNL     1      -1.942   1.981  24.966  0.00  0.00    +0.205 A 
ATOM     13  N   UNL     1      -2.087   2.180  24.178  0.00  0.00    -0.056 NA
ATOM     14  O   UNL     1      -2.830   1.884  23.973  0.00  0.00    -0.336 OA
ATOM     15  C   UNL     1      -3.144   1.503  24.634  0.00  0.00    +0.251 A 
ATOM     16  N   UNL     1      -2.595   1.563  25.248  0.00  0.00    -0.190 NA
ENDROOT
BRANCH  12   9
ATOM      6  C   UNL     1       0.094   2.543  26.257  0.00  0.00    +0.225 A 
ATOM      7  C   UNL     1      -0.538   3.074  26.229  0.00  0.00    +0.058 A 
ATOM      8  C   UNL     1      -1.216   2.887  25.799  0.00  0.00    +0.010 A 
ATOM      9  C   UNL     1      -1.264   2.168  25.396  0.00  0.00    +0.058 A 
ATOM     10  C   UNL     1      -0.634   1.638  25.424  0.00  0.00    +0.105 A 
ATOM     11  N   UNL     1       0.045   1.825  25.854  0.00  0.00    -0.210 NA
BRANCH   6   5
ATOM      5  O   UNL     1       0.772   2.730  26.687  0.00  0.00    -0.457 OA
BRANCH   5   4
ATOM      4  C   UNL     1       0.796   2.594  27.499  0.00  0.00    +0.239 C 
BRANCH   4   3
ATOM      3  C   UNL     1       1.495   2.719  27.919  0.00  0.00    +0.189 C 
BRANCH   3   2
ATOM      1  C   UNL     1       2.228   2.646  29.144  0.00  0.00    +0.174 C 
ATOM      2  O   UNL     1       1.511   2.612  28.737  0.00  0.00    -0.347 OA
ENDBRANCH   3   2
ENDBRANCH   4   3
ENDBRANCH   5   4
ENDBRANCH   6   5
ENDBRANCH  12   9
BRANCH  15  17
ATOM     17  C   UNL     1      -3.877   1.128  24.675  0.00  0.00    +0.138 C 
ATOM     18  C   UNL     1      -4.591   1.480  24.892  0.00  0.00    +0.027 C 
ATOM     19  C   UNL     1      -5.181   0.904  24.857  0.00  0.00    +0.019 C 
ATOM     20  C   UNL     1      -4.832   0.196  24.619  0.00  0.00    +0.073 C 
ATOM     21  N   UNL     1      -4.026   0.334  24.506  0.00  0.00    -0.263 NA
BRANCH  21  22
ATOM     22  C   UNL     1      -3.468  -0.224  24.266  0.00  0.00    +0.101 C 
BRANCH  22  23
ATOM     23  C   UNL     1      -3.634  -1.029  24.332  0.00  0.00    +0.013 A 
ATOM     24  C   UNL     1      -4.028  -1.420  23.722  0.00  0.00    +0.000 A 
ATOM     25  C   UNL     1      -4.194  -2.225  23.788  0.00  0.00    +0.020 A 
ATOM     26  C   UNL     1      -3.967  -2.640  24.464  0.00  0.00    +0.099 A 
ATOM     27  N   UNL     1      -3.573  -2.249  25.075  0.00  0.00    -0.243 NA
ATOM     28  C   UNL     1      -3.406  -1.443  25.008  0.00  0.00    +0.096 A 
ENDBRANCH  22  23
ENDBRANCH  21  22
ENDBRANCH  15  17
TORSDOF 8
ENDMDL
MODEL 6
REMARK VINA RESULT:      -7.4      3.451      4.718
REMARK  Name = 
REMARK  8 active torsions:
REMARK  status: ('A' for Active; 'I' for Inactive)
REMARK    1  A    between atoms: O_2  and  C_3
REMARK    2  A    between atoms: C_3  and  C_4
REMARK    3  A    between atoms: C_4  and  O_5
REMARK    4  A    between atoms: O_5  and  C_6
REMARK    5  A    between atoms: C_9  and  C_12
REMARK    6  A    between atoms: C_15  and  C_17
REMARK    7  A    between atoms: N_21  and  C_22
REMARK    8  A    between atoms: C_22  and  C_23
REMARK                            x       y       z     vdW  Elec       q    Type
REMARK                         _______ _______ _______ _____ _____    ______ ____
ROOT
ATOM     12  C   UNL     1      -4.281   1.751  24.650  0.00  0.00    +0.205 A 
ATOM     13  N   UNL     1      -4.749   2.304  24.255  0.00  0.00    -0.056 NA
ATOM     14  O   UNL     1      -4.605   3.045  24.589  0.00  0.00    -0.336 OA
ATOM     15  C   UNL     1      -4.048   2.950  25.190  0.00  0.00    +0.251 A 
ATOM     16  N   UNL     1      -3.847   2.150  25.228  0.00  0.00    -0.190 NA
ENDROOT
BRANCH  12   9
ATOM      6  C   UNL     1      -4.192  -0.678  24.183  0.00  0.00    +0.225 A 
ATOM      7  C   UNL     1      -4.671  -0.392  24.792  0.00  0.00    +0.058 A 
ATOM      8  C   UNL     1      -4.700   0.418  24.948  0.00  0.00    +0.010 A 
ATOM      9  C   UNL     1      -4.251   0.941  24.495  0.00  0.00    +0.058 A 
ATOM     10  C   UNL     1      -3.774   0.656  23.886  0.00  0.00    +0.105 A 
ATOM     11  N   UNL     1      -3.744  -0.154  23.731  0.00  0.00    -0.210 NA
BRANCH   6   5
ATOM      5  O   UNL     1      -4.163  -1.488  24.028  0.00  0.00    -0.457 OA
BRANCH   5   4
ATOM      4  C   UNL     1      -3.546  -1.943  24.330  0.00  0.00    +0.239 C 
BRANCH   4   3
ATOM      3  C   UNL     1      -3.511  -2.751  24.166  0.00  0.00    +0.189 C 
BRANCH   3   2
ATOM      1  C   UNL     1      -2.153  -3.121  24.415  0.00  0.00    +0.174 C 
ATOM      2  O   UNL     1      -2.959  -3.228  24.553  0.00  0.00    -0.347 OA
ENDBRANCH   3   2
ENDBRANCH   4   3
ENDBRANCH   5   4
ENDBRANCH   6   5
ENDBRANCH  12   9
BRANCH  15  17
ATOM     17  C   UNL     1      -3.744   3.548  25.669  0.00  0.00    +0.138 C 
ATOM     18  C   UNL     1      -4.070   3.814  26.379  0.00  0.00    +0.027 C 
ATOM     19  C   UNL     1      -3.588   4.416  26.672  0.00  0.00    +0.019 C 
ATOM     20  C   UNL     1      -2.965   4.524  26.143  0.00  0.00    +0.073 C 
ATOM     21  N   UNL     1      -3.061   3.987  25.523  0.00  0.00    -0.263 NA
BRANCH  21  22
ATOM     22  C   UNL     1      -2.561   3.904  24.872  0.00  0.00    +0.101 C 
BRANCH  22  23
ATOM     23  C   UNL     1      -1.785   4.181  24.910  0.00  0.00    +0.013 A 
ATOM     24  C   UNL     1      -1.622   4.975  24.757  0.00  0.00    +0.000 A 
ATOM     25  C   UNL     1      -0.846   5.252  24.795  0.00  0.00    +0.020 A 
ATOM     26  C   UNL     1      -0.233   4.734  24.984  0.00  0.00    +0.099 A 
ATOM     27  N   UNL     1      -0.395   3.940  25.137  0.00  0.00    -0.243 NA
ATOM     28  C   UNL     1      -1.172   3.663  25.099  0.00  0.00    +0.096 A 
ENDBRANCH  22  23
ENDBRANCH  21  22
ENDBRANCH  15  17
TORSDOF 8
ENDMDL
MODEL 7
REMARK VINA RESULT:      -7.3      2.809      4.886
REMARK  Name = 
REMARK  8 active torsions:
REMARK  status: ('A' for Active; 'I' for Inactive)
REMARK    1  A    between atoms: O_2  and  C_3
REMARK    2  A    between atoms: C_3  and  C_4
REMARK    3  A    between atoms: C_4  and  O_5
REMARK    4  A    between atoms: O_5  and  C_6
REMARK    5  A    between atoms: C_9  and  C_12
REMARK    6  A    between atoms: C_15  and  C_17
REMARK    7  A    between atoms: N_21  and  C_22
REMARK    8  A    between atoms: C_22  and  C_23
REMARK                            x       y       z     vdW  Elec       q    Type
REMARK                         _______ _______ _______ _____ _____    ______ ____
ROOT
ATOM     12  C   UNL     1      -4.178   1.123  24.747  0.00  0.00    +0.205 A 
ATOM     13  N   UNL     1      -4.887   0.851  25.069  0.00  0.00    -0.056 NA
ATOM     14  O   UNL     1      -4.923   0.034  24.954  0.00  0.00    -0.336 OA
ATOM     15  C   UNL     1      -4.235  -0.198  24.560  0.00  0.00    +0.251 A 
ATOM     16  N   UNL     1      -3.775   0.476  24.433  0.00  0.00    -0.190 NA
ENDROOT
BRANCH  12   9
ATOM      6  C   UNL     1      -3.397   3.472  24.728  0.00  0.00    +0.225 A 
ATOM      7  C   UNL     1      -3.422   3.039  24.025  0.00  0.00    +0.058 A 
ATOM      8  C   UNL     1      -3.682   2.256  24.031  0.00  0.00    +0.010 A 
ATOM      9  C   UNL     1      -3.917   1.906  24.740  0.00  0.00    +0.058 A 
ATOM     10  C   UNL     1      -3.892   2.338  25.442  0.00  0.00    +0.105 A 
ATOM     11  N   UNL     1      -3.632   3.120  25.436  0.00  0.00    -0.210 NA
BRANCH   6   5
ATOM      5  O   UNL     1      -3.136   4.254  24.721  0.00  0.00    -0.457 OA
BRANCH   5   4
ATOM      4  C   UNL     1      -2.415   4.452  25.069  0.00  0.00    +0.239 C 
BRANCH   4   3
ATOM      3  C   UNL     1      -2.056   5.173  24.893  0.00  0.00    +0.189 C 
BRANCH   3   2
ATOM      1  C   UNL     1      -0.645   5.368  24.779  0.00  0.00    +0.174 C 
ATOM      2  O   UNL     1      -1.331   5.368  25.236  0.00  0.00    -0.347 OA
ENDBRANCH   3   2
ENDBRANCH   4   3
ENDBRANCH   5   4
ENDBRANCH   6   5
ENDBRANCH  12   9
BRANCH  15  17
ATOM     17  C   UNL     1      -4.042  -0.967  24.334  0.00  0.00    +0.138 C 
ATOM     18  C   UNL     1      -4.473  -1.442  23.815  0.00  0.00    +0.027 C 
ATOM     19  C   UNL     1      -4.081  -2.166  23.748  0.00  0.00    +0.019 C 
ATOM     20  C   UNL     1      -3.409  -2.137  24.225  0.00  0.00    +0.073 C 
ATOM     21  N   UNL     1      -3.384  -1.396  24.587  0.00  0.00    -0.263 NA
BRANCH  21  22
ATOM     22  C   UNL     1      -2.805  -1.131  25.111  0.00  0.00    +0.101 C 
BRANCH  22  23
ATOM     23  C   UNL     1      -2.033  -1.416  25.050  0.00  0.00    +0.013 A 
ATOM     24  C   UNL     1      -1.446  -0.946  24.711  0.00  0.00    +0.000 A 
ATOM     25  C   UNL     1      -0.674  -1.230  24.650  0.00  0.00    +0.020 A 
ATOM     26  C   UNL     1      -0.489  -1.984  24.929  0.00  0.00    +0.099 A 
ATOM     27  N   UNL     1      -1.076  -2.454  25.268  0.00  0.00    -0.243 NA
ATOM     28  C   UNL     1      -1.848  -2.170  25.329  0.00  0.00    +0.096 A 
ENDBRANCH  22  23
ENDBRANCH  21  22
ENDBRANCH  15  17
TORSDOF 8
ENDMDL
