MODEL 1
REMARK VINA RESULT:     -12.2      0.000      0.000
REMARK  Name = 
REMARK  4 active torsions:
REMARK  status: ('A' for Active; 'I' for Inactive)
REMARK    1  A    between atoms: C_5  and  C_6
REMARK    2  A    between atoms: C_6  and  N_7
REMARK    3  A    between atoms: N_10  and  C_11
REMARK    4  A    between atoms: C_11  and  C_12
REMARK                            x       y       z     vdW  Elec       q    Type
REMARK                         _______ _______ _______ _____ _____    ______ ____
ROOT
ATOM      7  N   UNL     1      -2.603  -0.135  25.175  0.00  0.00    -0.271 N 
ATOM      8  C   UNL     1      -2.772   0.587  24.813  0.00  0.00    +0.120 C 
ATOM      9  C   UNL     1      -3.484   0.971  24.649  0.00  0.00    +0.095 C 
ATOM     10  N   UNL     1      -3.309   1.685  24.276  0.00  0.00    -0.264 NA
ATOM     18  C   UNL     1      -2.488   1.743  24.208  0.00  0.00    +0.104 C 
ATOM     19  C   UNL     1      -2.156   1.064  24.540  0.00  0.00    +0.151 C 
ATOM     20  O   UNL     1      -1.373   0.819  24.630  0.00  0.00    -0.344 OA
ATOM     21  C   UNL     1      -1.206   0.097  24.992  0.00  0.00    +0.227 C 
ATOM     22  C   UNL     1      -1.821  -0.380  25.264  0.00  0.00    +0.256 C 
ATOM     23  O   UNL     1      -1.654  -1.102  25.626  0.00  0.00    -0.272 OA
ENDROOT
BRANCH   7   6
ATOM      6  C   UNL     1      -3.219  -0.613  25.448  0.00  0.00    +0.120 C 
BRANCH   6   5
ATOM      1  F   UNL     1      -4.226  -3.191  23.652  0.00  0.00    -0.204 F 
ATOM      2  C   UNL     1      -3.975  -2.546  24.101  0.00  0.00    +0.140 A 
ATOM      3  C   UNL     1      -3.442  -2.659  24.722  0.00  0.00    +0.029 A 
ATOM      4  C   UNL     1      -3.191  -2.014  25.170  0.00  0.00    -0.000 A 
ATOM      5  C   UNL     1      -3.471  -1.257  24.999  0.00  0.00    -0.002 A 
ATOM     24  C   UNL     1      -4.003  -1.145  24.379  0.00  0.00    -0.000 A 
ATOM     25  C   UNL     1      -4.255  -1.790  23.930  0.00  0.00    +0.029 A 
ENDBRANCH   6   5
ENDBRANCH   7   6
BRANCH  10  11
ATOM     11  C   UNL     1      -3.857   2.243  24.015  0.00  0.00    +0.119 C 
BRANCH  11  12
ATOM     12  C   UNL     1      -4.329   2.643  24.561  0.00  0.00    +0.075 A 
ATOM     13  N   UNL     1      -4.031   3.300  24.960  0.00  0.00    -0.247 NA
ATOM     14  C   UNL     1      -4.502   3.700  25.506  0.00  0.00    +0.098 A 
ATOM     15  C   UNL     1      -5.273   3.443  25.653  0.00  0.00    +0.021 A 
ATOM     16  C   UNL     1      -5.571   2.786  25.254  0.00  0.00    +0.003 A 
ATOM     17  C   UNL     1      -5.099   2.386  24.708  0.00  0.00    +0.016 A 
ENDBRANCH  11  12
ENDBRANCH  10  11
TORSDOF 4
ENDMDL
MODEL 2
REMARK VINA RESULT:     -12.0      2.693      4.889
REMARK  Name = 
REMARK  4 active torsions:
REMARK  status: ('A' for Active; 'I' for Inactive)
REMARK    1  A    between atoms: C_5  and  C_6
REMARK    2  A    between atoms: C_6  and  N_7
REMARK    3  A    between atoms: N_10  and  C_11
REMARK    4  A    between atoms: C_11  and  C_12
REMARK                            x       y       z     vdW  Elec       q    Type
REMARK                         _______ _______ _______ _____ _____    ______ ____
ROOT
ATOM      7  N   UNL     1      -3.335   3.113  25.508  0.00  0.00    -0.271 N 
ATOM      8  C   UNL     1      -3.452   2.460  25.016  0.00  0.00    +0.120 C 
ATOM      9  C   UNL     1      -2.960   1.832  24.805  0.00  0.00    +0.095 C 
ATOM     10  N   UNL     1      -3.379   1.341  24.292  0.00  0.00    -0.264 NA
ATOM     18  C   UNL     1      -4.131   1.665  24.185  0.00  0.00    +0.104 C 
ATOM     19  C   UNL     1      -4.176   2.357  24.633  0.00  0.00    +0.151 C 
ATOM     20  O   UNL     1      -4.782   2.907  24.742  0.00  0.00    -0.344 OA
ATOM     21  C   UNL     1      -4.664   3.559  25.233  0.00  0.00    +0.227 C 
ATOM     22  C   UNL     1      -3.941   3.662  25.616  0.00  0.00    +0.256 C 
ATOM     23  O   UNL     1      -3.823   4.313  26.107  0.00  0.00    -0.272 OA
ENDROOT
BRANCH   7   6
ATOM      6  C   UNL     1      -2.611   3.216  25.891  0.00  0.00    +0.120 C 
BRANCH   6   5
ATOM      1  F   UNL     1      -0.333   5.224  24.601  0.00  0.00    -0.204 F 
ATOM      2  C   UNL     1      -0.903   4.722  24.924  0.00  0.00    +0.140 A 
ATOM      3  C   UNL     1      -0.758   3.910  24.970  0.00  0.00    +0.029 A 
ATOM      4  C   UNL     1      -1.328   3.409  25.293  0.00  0.00    -0.000 A 
ATOM      5  C   UNL     1      -2.042   3.718  25.569  0.00  0.00    -0.002 A 
ATOM     24  C   UNL     1      -2.186   4.528  25.522  0.00  0.00    -0.000 A 
ATOM     25  C   UNL     1      -1.616   5.031  25.199  0.00  0.00    +0.029 A 
ENDBRANCH   6   5
ENDBRANCH   7   6
BRANCH  10  11
ATOM     11  C   UNL     1      -3.097   0.647  23.945  0.00  0.00    +0.119 C 
BRANCH  11  12
ATOM     12  C   UNL     1      -3.266  -0.083  24.290  0.00  0.00    +0.075 A 
ATOM     13  N   UNL     1      -2.803  -0.362  24.913  0.00  0.00    -0.247 NA
ATOM     14  C   UNL     1      -2.972  -1.092  25.257  0.00  0.00    +0.098 A 
ATOM     15  C   UNL     1      -3.603  -1.544  24.979  0.00  0.00    +0.021 A 
ATOM     16  C   UNL     1      -4.066  -1.266  24.355  0.00  0.00    +0.003 A 
ATOM     17  C   UNL     1      -3.897  -0.535  24.011  0.00  0.00    +0.016 A 
ENDBRANCH  11  12
ENDBRANCH  10  11
TORSDOF 4
ENDMDL
MODEL 3
REMARK VINA RESULT:     -11.7      2.031      3.495
REMARK  Name = 
REMARK  4 active torsions:
REMARK  status: ('A' for Active; 'I' for Inactive)
REMARK    1  A    between atoms: C_5  and  C_6
REMARK    2  A    between atoms: C_6  and  N_7
REMARK    3  A    between atoms: N_10  and  C_11
REMARK    4  A    between atoms: C_11  and  C_12
REMARK                            x       y       z     vdW  Elec       q    Type
REMARK                         _______ _______ _______ _____ _____    ______ ____
ROOT
ATOM      7  N   UNL     1      -4.454   2.368  24.752  0.00  0.00    -0.271 N 
ATOM      8  C   UNL     1      -3.808   2.850  24.930  0.00  0.00    +0.120 C 
ATOM      9  C   UNL     1      -3.035   2.868  24.640  0.00  0.00    +0.095 C 
ATOM     10  N   UNL     1      -2.632   3.475  25.027  0.00  0.00    -0.264 NA
ATOM     18  C   UNL     1      -3.155   3.832  25.556  0.00  0.00    +0.104 C 
ATOM     19  C   UNL     1      -3.882   3.446  25.496  0.00  0.00    +0.151 C 
ATOM     20  O   UNL     1      -4.602   3.560  25.883  0.00  0.00    -0.344 OA
ATOM     21  C   UNL     1      -5.247   3.078  25.704  0.00  0.00    +0.227 C 
ATOM     22  C   UNL     1      -5.173   2.482  25.138  0.00  0.00    +0.256 C 
ATOM     23  O   UNL     1      -5.818   2.000  24.960  0.00  0.00    -0.272 OA
ENDROOT
BRANCH   7   6
ATOM      6  C   UNL     1      -4.379   1.772  24.185  0.00  0.00    +0.120 C 
BRANCH   6   5
ATOM      1  F   UNL     1      -3.490  -1.271  25.100  0.00  0.00    -0.204 F 
ATOM      2  C   UNL     1      -3.713  -0.510  24.872  0.00  0.00    +0.140 A 
ATOM      3  C   UNL     1      -3.357  -0.156  24.217  0.00  0.00    +0.029 A 
ATOM      4  C   UNL     1      -3.579   0.605  23.988  0.00  0.00    -0.000 A 
ATOM      5  C   UNL     1      -4.157   1.012  24.414  0.00  0.00    -0.002 A 
ATOM     24  C   UNL     1      -4.513   0.658  25.068  0.00  0.00    -0.000 A 
ATOM     25  C   UNL     1      -4.291  -0.103  25.298  0.00  0.00    +0.029 A 
ENDBRANCH   6   5
ENDBRANCH   7   6
BRANCH  10  11
ATOM     11  C   UNL     1      -1.844   3.688  24.907  0.00  0.00    +0.119 C 
BRANCH  11  12
ATOM     12  C   UNL     1      -1.239   3.173  25.131  0.00  0.00    +0.075 A 
ATOM     13  N   UNL     1      -0.849   2.722  24.561  0.00  0.00    -0.247 NA
ATOM     14  C   UNL     1      -0.245   2.207  24.785  0.00  0.00    +0.098 A 
ATOM     15  C   UNL     1      -0.030   2.143  25.579  0.00  0.00    +0.021 A 
ATOM     16  C   UNL     1      -0.420   2.594  26.149  0.00  0.00    +0.003 A 
ATOM     17  C   UNL     1      -1.025   3.109  25.925  0.00  0.00    +0.016 A 
ENDBRANCH  11  12
ENDBRANCH  10  11
TORSDOF 4
ENDMDL
MODEL 4
REMARK VINA RESULT:     -11.6      2.046      4.414
REMARK  Name = 
REMARK  4 active torsions:
REMARK  status: ('A' for Active; 'I' for Inactive)
REMARK    1  A    between atoms: C_5  and  C_6
REMARK    2  A    between atoms: C_6  and  N_7
REMARK    3  A    between atoms: N_10  and  C_11
REMARK    4  A    between atoms: C_11  and  C_12
REMARK                            x       y       z     vdW  Elec       q    Type
REMARK                         _______ _______ _______ _____ _____    ______ ____
ROOT
ATOM      7  N   UNL     1      -1.650   1.627  24.568  0.00  0.00    -0.271 N 
ATOM      8  C   UNL     1      -1.924   0.910  24.870  0.00  0.00    +0.120 C 
ATOM      9  C   UNL     1      -2.686   0.620  24.998  0.00  0.00    +0.095 C 
ATOM     10  N   UNL     1      -2.620  -0.139  25.315  0.00  0.00    -0.264 NA
ATOM     18  C   UNL     1      -1.817  -0.318  25.383  0.00  0.00    +0.104 C 
ATOM     19  C   UNL     1      -1.387   0.331  25.108  0.00  0.00    +0.151 C 
ATOM     20  O   UNL     1      -0.576   0.469  25.043  0.00  0.00    -0.344 OA
ATOM     21  C   UNL     1      -0.303   1.186  24.741  0.00  0.00    +0.227 C 
ATOM     22  C   UNL     1      -0.840   1.765  24.503  0.00  0.00    +0.256 C 
ATOM     23  O   UNL     1      -0.566   2.482  24.201  0.00  0.00    -0.272 OA
ENDROOT
BRANCH   7   6
ATOM      6  C   UNL     1      -2.188   2.208  24.330  0.00  0.00    +0.120 C 
BRANCH   6   5
ATOM      1  F   UNL     1      -3.121   4.559  26.448  0.00  0.00    -0.204 F 
ATOM      2  C   UNL     1      -2.887   3.971  25.918  0.00  0.00    +0.140 A 
ATOM      3  C   UNL     1      -3.455   3.499  25.550  0.00  0.00    +0.029 A 
ATOM      4  C   UNL     1      -3.221   2.911  25.020  0.00  0.00    -0.000 A 
ATOM      5  C   UNL     1      -2.421   2.795  24.859  0.00  0.00    -0.002 A 
ATOM     24  C   UNL     1      -1.854   3.267  25.227  0.00  0.00    -0.000 A 
ATOM     25  C   UNL     1      -2.087   3.856  25.757  0.00  0.00    +0.029 A 
ENDBRANCH   6   5
ENDBRANCH   7   6
BRANCH  10  11
ATOM     11  C   UNL     1      -3.246  -0.633  25.527  0.00  0.00    +0.119 C 
BRANCH  11  12
ATOM     12  C   UNL     1      -3.495  -1.227  25.011  0.00  0.00    +0.075 A 
ATOM     13  N   UNL     1      -3.172  -1.984  25.069  0.00  0.00    -0.247 NA
ATOM     14  C   UNL     1      -3.420  -2.578  24.554  0.00  0.00    +0.098 A 
ATOM     15  C   UNL     1      -3.991  -2.416  23.981  0.00  0.00    +0.021 A 
ATOM     16  C   UNL     1      -4.314  -1.660  23.923  0.00  0.00    +0.003 A 
ATOM     17  C   UNL     1      -4.065  -1.065  24.439  0.00  0.00    +0.016 A 
ENDBRANCH  11  12
ENDBRANCH  10  11
TORSDOF 4
ENDMDL
MODEL 5
REMARK VINA RESULT:     -11.6      1.800      4.045
REMARK  Name = 
REMARK  4 active torsions:
REMARK  status: ('A' for Active; 'I' for Inactive)
REMARK    1  A    between atoms: C_5  and  C_6
REMARK    2  A    between atoms: C_6  and  N_7
REMARK    3  A    between atoms: N_10  and  C_11
REMARK    4  A    between atoms: C_11  and  C_12
REMARK                            x       y       z     vdW  Elec       q    Type
REMARK                         _______ _______ _______ _____ _____    ______ ____
ROOT
ATOM      7  N   UNL     1      -2.651   2.847  24.793  0.00  0.00    -0.271 N 
ATOM      8  C   UNL     1      -2.299   2.101  24.819  0.00  0.00    +0.120 C 
ATOM      9  C   UNL     1      -2.505   1.381  24.473  0.00  0.00    +0.095 C 
ATOM     10  N   UNL     1      -1.942   0.821  24.695  0.00  0.00    -0.264 NA
ATOM     18  C   UNL     1      -1.387   1.195  25.179  0.00  0.00    +0.104 C 
ATOM     19  C   UNL     1      -1.608   1.986  25.255  0.00  0.00    +0.151 C 
ATOM     20  O   UNL     1      -1.269   2.617  25.666  0.00  0.00    -0.344 OA
ATOM     21  C   UNL     1      -1.622   3.363  25.640  0.00  0.00    +0.227 C 
ATOM     22  C   UNL     1      -2.312   3.478  25.203  0.00  0.00    +0.256 C 
ATOM     23  O   UNL     1      -2.664   4.223  25.177  0.00  0.00    -0.272 OA
ENDROOT
BRANCH   7   6
ATOM      6  C   UNL     1      -3.342   2.963  24.356  0.00  0.00    +0.120 C 
BRANCH   6   5
ATOM      1  F   UNL     1      -6.285   2.474  25.765  0.00  0.00    -0.204 F 
ATOM      2  C   UNL     1      -5.549   2.596  25.413  0.00  0.00    +0.140 A 
ATOM      3  C   UNL     1      -5.359   2.209  24.709  0.00  0.00    +0.029 A 
ATOM      4  C   UNL     1      -4.624   2.332  24.357  0.00  0.00    -0.000 A 
ATOM      5  C   UNL     1      -4.077   2.841  24.708  0.00  0.00    -0.002 A 
ATOM     24  C   UNL     1      -4.267   3.226  25.412  0.00  0.00    -0.000 A 
ATOM     25  C   UNL     1      -5.002   3.105  25.765  0.00  0.00    +0.029 A 
ENDBRANCH   6   5
ENDBRANCH   7   6
BRANCH  10  11
ATOM     11  C   UNL     1      -1.934   0.026  24.474  0.00  0.00    +0.119 C 
BRANCH  11  12
ATOM     12  C   UNL     1      -2.511  -0.488  24.763  0.00  0.00    +0.075 A 
ATOM     13  N   UNL     1      -2.491  -0.726  25.553  0.00  0.00    -0.247 NA
ATOM     14  C   UNL     1      -3.067  -1.240  25.842  0.00  0.00    +0.098 A 
ATOM     15  C   UNL     1      -3.664  -1.517  25.343  0.00  0.00    +0.021 A 
ATOM     16  C   UNL     1      -3.683  -1.278  24.554  0.00  0.00    +0.003 A 
ATOM     17  C   UNL     1      -3.106  -0.764  24.264  0.00  0.00    +0.016 A 
ENDBRANCH  11  12
ENDBRANCH  10  11
TORSDOF 4
ENDMDL
MODEL 6
REMARK VINA RESULT:     -11.5      1.501      3.343
REMARK  Name = 
REMARK  4 active torsions:
REMARK  status: ('A' for Active; 'I' for Inactive)
REMARK    1  A    between atoms: C_5  and  C_6
REMARK    2  A    between atoms: C_6  and  N_7
REMARK    3  A    between atoms: N_10  and  C_11
REMARK    4  A    between atoms: C_11  and  C_12
REMARK                            x       y       z     vdW  Elec       q    Type
REMARK                         _______ _______ _______ _____ _____    ______ ____
ROOT
ATOM      7  N   UNL     1      -3.745   0.623  24.988  0.00  0.00    -0.271 N 
ATOM      8  C   UNL     1      -2.964   0.871  24.889  0.00  0.00    +0.120 C 
ATOM      9  C   UNL     1      -2.247   0.550  25.142  0.00  0.00    +0.095 C 
ATOM     10  N   UNL     1      -1.640   1.043  24.878  0.00  0.00    -0.264 NA
ATOM     18  C   UNL     1      -1.983   1.668  24.462  0.00  0.00    +0.104 C 
ATOM     19  C   UNL     1      -2.801   1.562  24.469  0.00  0.00    +0.151 C 
ATOM     20  O   UNL     1      -3.419   2.005  24.148  0.00  0.00    -0.344 OA
ATOM     21  C   UNL     1      -4.199   1.756  24.246  0.00  0.00    +0.227 C 
ATOM     22  C   UNL     1      -4.362   1.065  24.666  0.00  0.00    +0.256 C 
ATOM     23  O   UNL     1      -5.142   0.817  24.765  0.00  0.00    -0.272 OA
ENDROOT
BRANCH   7   6
ATOM      6  C   UNL     1      -3.909  -0.069  25.408  0.00  0.00    +0.120 C 
BRANCH   6   5
ATOM      1  F   UNL     1      -3.876  -2.984  23.864  0.00  0.00    -0.204 F 
ATOM      2  C   UNL     1      -3.884  -2.255  24.249  0.00  0.00    +0.140 A 
ATOM      3  C   UNL     1      -3.516  -2.173  24.984  0.00  0.00    +0.029 A 
ATOM      4  C   UNL     1      -3.525  -1.444  25.370  0.00  0.00    -0.000 A 
ATOM      5  C   UNL     1      -3.901  -0.797  25.022  0.00  0.00    -0.002 A 
ATOM     24  C   UNL     1      -4.268  -0.880  24.289  0.00  0.00    -0.000 A 
ATOM     25  C   UNL     1      -4.260  -1.609  23.902  0.00  0.00    +0.029 A 
ENDBRANCH   6   5
ENDBRANCH   7   6
BRANCH  10  11
ATOM     11  C   UNL     1      -0.833   0.930  25.007  0.00  0.00    +0.119 C 
BRANCH  11  12
ATOM     12  C   UNL     1      -0.384   0.505  24.460  0.00  0.00    +0.075 A 
ATOM     13  N   UNL     1       0.008   0.901  23.852  0.00  0.00    -0.247 NA
ATOM     14  C   UNL     1       0.457   0.477  23.306  0.00  0.00    +0.098 A 
ATOM     15  C   UNL     1       0.514  -0.344  23.367  0.00  0.00    +0.021 A 
ATOM     16  C   UNL     1       0.122  -0.740  23.975  0.00  0.00    +0.003 A 
ATOM     17  C   UNL     1      -0.327  -0.315  24.522  0.00  0.00    +0.016 A 
ENDBRANCH  11  12
ENDBRANCH  10  11
TORSDOF 4
ENDMDL
