REMARK  Name = 
REMARK  6 active torsions:
REMARK  status: ('A' for Active; 'I' for Inactive)
REMARK    1  A    between atoms: C_2  and  C_5
REMARK    2  A    between atoms: C_5  and  N_6
REMARK    3  A    between atoms: N_6  and  C_7
REMARK    4  A    between atoms: C_10  and  C_11
REMARK    5  A    between atoms: C_11  and  N_12
REMARK    6  A    between atoms: N_12  and  S_13
REMARK                            x       y       z     vdW  Elec       q    Type
REMARK                         _______ _______ _______ _____ _____    ______ ____
ROOT
ATOM      7  C   UNL     1       0.568   1.114   0.000  0.00  0.00    +0.135 C 
ATOM      8  C   UNL     1       1.235   0.629   0.000  0.00  0.00    +0.162 C 
ATOM      9  O   UNL     1       0.980  -0.155   0.000  0.00  0.00    -0.350 OA
ATOM     10  C   UNL     1       0.155  -0.155   0.000  0.00  0.00    +0.166 C 
ATOM     17  C   UNL     1      -0.100   0.629   0.000  0.00  0.00    +0.199 C 
ATOM     18  O   UNL     1      -0.884   0.884   0.000  0.00  0.00    -0.219 OA
ENDROOT
BRANCH   7   6
ATOM      6  N   UNL     1       0.568   1.939   0.000  0.00  0.00    -0.214 NA
BRANCH   6   5
ATOM      5  C   UNL     1       1.282   2.352   0.000  0.00  0.00    +0.089 C 
BRANCH   5   2
ATOM      1  C   UNL     1       1.282   4.002   0.000  0.00  0.00    +0.001 C 
ATOM      2  C   UNL     1       1.282   3.177   0.000  0.00  0.00    +0.016 C 
ATOM      3  C   UNL     1       0.457   3.177   0.000  0.00  0.00    +0.001 C 
ATOM      4  C   UNL     1       2.107   3.177   0.000  0.00  0.00    +0.001 C 
ENDBRANCH   5   2
ENDBRANCH   6   5
ENDBRANCH   7   6
BRANCH  10  11
ATOM     11  C   UNL     1      -0.330  -0.823   0.000  0.00  0.00    +0.147 C 
BRANCH  11  12
ATOM     12  N   UNL     1      -1.150  -0.737   0.000  0.00  0.00    -0.079 NA
BRANCH  12  13
ATOM     13  S   UNL     1      -1.635  -1.404   0.000  0.00  0.00    +0.059 S 
ATOM     14  C   UNL     1      -2.120  -2.071   0.000  0.00  0.00    +0.197 C 
ATOM     15  O   UNL     1      -2.303  -0.919   0.000  0.00  0.00    -0.156 OA
ATOM     16  O   UNL     1      -0.968  -1.889   0.000  0.00  0.00    -0.156 OA
ENDBRANCH  12  13
ENDBRANCH  11  12
ENDBRANCH  10  11
TORSDOF 6
