MODEL 1
REMARK VINA RESULT:      -9.6      0.000      0.000
REMARK  Name = 
REMARK  4 active torsions:
REMARK  status: ('A' for Active; 'I' for Inactive)
REMARK    1  A    between atoms: N_2  and  C_4
REMARK    2  A    between atoms: C_7  and  C_10
REMARK    3  A    between atoms: C_13  and  C_15
REMARK    4  A    between atoms: N_18  and  C_20
REMARK                            x       y       z     vdW  Elec       q    Type
REMARK                         _______ _______ _______ _____ _____    ______ ____
ROOT
ATOM     10  C   UNL     1      -4.442   0.056  24.898  0.00  0.00    +0.250 A 
ATOM     11  N   UNL     1      -5.231   0.270  25.015  0.00  0.00    -0.107 NA
ATOM     12  N   UNL     1      -5.258   1.086  25.132  0.00  0.00    -0.111 NA
ATOM     13  C   UNL     1      -4.487   1.376  25.087  0.00  0.00    +0.227 A 
ATOM     14  O   UNL     1      -3.983   0.739  24.943  0.00  0.00    -0.419 OA
ENDROOT
BRANCH  10   7
ATOM      4  C   UNL     1      -3.604  -2.236  24.486  0.00  0.00    +0.048 A 
ATOM      5  C   UNL     1      -4.043  -1.847  23.905  0.00  0.00    +0.015 A 
ATOM      6  C   UNL     1      -4.323  -1.083  24.043  0.00  0.00    +0.006 A 
ATOM      7  C   UNL     1      -4.163  -0.708  24.761  0.00  0.00    +0.055 A 
ATOM      8  C   UNL     1      -3.724  -1.097  25.341  0.00  0.00    +0.006 A 
ATOM      9  C   UNL     1      -3.445  -1.861  25.203  0.00  0.00    +0.015 A 
BRANCH   4   2
ATOM      1  C   UNL     1      -2.513  -3.145  24.330  0.00  0.00    +0.112 C 
ATOM      2  N   UNL     1      -3.325  -3.000  24.348  0.00  0.00    -0.304 N 
ATOM      3  C   UNL     1      -3.858  -3.619  24.230  0.00  0.00    +0.112 C 
ENDBRANCH   4   2
ENDBRANCH  10   7
BRANCH  13  15
ATOM     15  C   UNL     1      -4.260   2.165  25.172  0.00  0.00    +0.096 C 
ATOM     16  C   UNL     1      -4.749   2.789  25.399  0.00  0.00    +0.028 C 
ATOM     17  C   UNL     1      -4.296   3.478  25.412  0.00  0.00    +0.073 C 
ATOM     18  N   UNL     1      -3.525   3.279  25.193  0.00  0.00    -0.273 NA
ATOM     19  C   UNL     1      -3.503   2.468  25.045  0.00  0.00    +0.081 C 
BRANCH  18  20
ATOM     20  C   UNL     1      -2.888   3.801  25.133  0.00  0.00    +0.061 C 
ATOM     21  C   UNL     1      -2.133   3.512  24.969  0.00  0.00    +0.038 C 
ATOM     22  C   UNL     1      -1.496   4.033  24.908  0.00  0.00    +0.095 C 
ATOM     23  N   UNL     1      -1.615   4.843  25.012  0.00  0.00    -0.279 N 
ATOM     24  C   UNL     1      -2.370   5.131  25.177  0.00  0.00    +0.095 C 
ATOM     25  C   UNL     1      -3.007   4.610  25.237  0.00  0.00    +0.038 C 
ATOM     26  C   UNL     1      -0.978   5.364  24.952  0.00  0.00    +0.226 C 
ATOM     27  C   UNL     1      -0.223   5.076  24.788  0.00  0.00    +0.095 C 
ATOM     28  O   UNL     1      -1.097   6.173  25.056  0.00  0.00    -0.275 OA
ENDBRANCH  18  20
ENDBRANCH  13  15
TORSDOF 4
ENDMDL
MODEL 2
REMARK VINA RESULT:      -8.9      1.119      6.057
REMARK  Name = 
REMARK  4 active torsions:
REMARK  status: ('A' for Active; 'I' for Inactive)
REMARK    1  A    between atoms: N_2  and  C_4
REMARK    2  A    between atoms: C_7  and  C_10
REMARK    3  A    between atoms: C_13  and  C_15
REMARK    4  A    between atoms: N_18  and  C_20
REMARK                            x       y       z     vdW  Elec       q    Type
REMARK                         _______ _______ _______ _____ _____    ______ ____
ROOT
ATOM     10  C   UNL     1      -3.607   3.316  25.165  0.00  0.00    +0.250 A 
ATOM     11  N   UNL     1      -4.376   3.526  25.374  0.00  0.00    -0.107 NA
ATOM     12  N   UNL     1      -4.839   2.843  25.359  0.00  0.00    -0.111 NA
ATOM     13  C   UNL     1      -4.355   2.212  25.141  0.00  0.00    +0.227 A 
ATOM     14  O   UNL     1      -3.592   2.505  25.021  0.00  0.00    -0.419 OA
ENDROOT
BRANCH  10   7
ATOM      4  C   UNL     1      -1.676   4.856  24.998  0.00  0.00    +0.048 A 
ATOM      5  C   UNL     1      -1.953   4.621  25.739  0.00  0.00    +0.015 A 
ATOM      6  C   UNL     1      -2.596   4.108  25.795  0.00  0.00    +0.006 A 
ATOM      7  C   UNL     1      -2.963   3.829  25.109  0.00  0.00    +0.055 A 
ATOM      8  C   UNL     1      -2.685   4.065  24.369  0.00  0.00    +0.006 A 
ATOM      9  C   UNL     1      -2.041   4.578  24.313  0.00  0.00    +0.015 A 
BRANCH   4   2
ATOM      1  C   UNL     1      -1.149   6.184  24.989  0.00  0.00    +0.112 C 
ATOM      2  N   UNL     1      -1.031   5.370  24.942  0.00  0.00    -0.304 N 
ATOM      3  C   UNL     1      -0.271   5.067  24.840  0.00  0.00    +0.112 C 
ENDBRANCH   4   2
ENDBRANCH  10   7
BRANCH  13  15
ATOM     15  C   UNL     1      -4.590   1.426  25.058  0.00  0.00    +0.096 C 
ATOM     16  C   UNL     1      -5.366   1.147  25.087  0.00  0.00    +0.028 C 
ATOM     17  C   UNL     1      -5.348   0.329  24.978  0.00  0.00    +0.073 C 
ATOM     18  N   UNL     1      -4.560   0.103  24.882  0.00  0.00    -0.273 NA
ATOM     19  C   UNL     1      -4.092   0.781  24.932  0.00  0.00    +0.081 C 
BRANCH  18  20
ATOM     20  C   UNL     1      -4.287  -0.667  24.759  0.00  0.00    +0.061 C 
ATOM     21  C   UNL     1      -3.836  -1.042  25.338  0.00  0.00    +0.038 C 
ATOM     22  C   UNL     1      -3.564  -1.811  25.214  0.00  0.00    +0.095 C 
ATOM     23  N   UNL     1      -3.743  -2.204  24.512  0.00  0.00    -0.279 N 
ATOM     24  C   UNL     1      -4.195  -1.828  23.933  0.00  0.00    +0.095 C 
ATOM     25  C   UNL     1      -4.467  -1.060  24.056  0.00  0.00    +0.038 C 
ATOM     26  C   UNL     1      -3.471  -2.973  24.388  0.00  0.00    +0.226 C 
ATOM     27  C   UNL     1      -3.019  -3.349  24.967  0.00  0.00    +0.095 C 
ATOM     28  O   UNL     1      -3.650  -3.366  23.685  0.00  0.00    -0.275 OA
ENDBRANCH  18  20
ENDBRANCH  13  15
TORSDOF 4
ENDMDL
MODEL 3
REMARK VINA RESULT:      -8.6      3.830      5.071
REMARK  Name = 
REMARK  4 active torsions:
REMARK  status: ('A' for Active; 'I' for Inactive)
REMARK    1  A    between atoms: N_2  and  C_4
REMARK    2  A    between atoms: C_7  and  C_10
REMARK    3  A    between atoms: C_13  and  C_15
REMARK    4  A    between atoms: N_18  and  C_20
REMARK                            x       y       z     vdW  Elec       q    Type
REMARK                         _______ _______ _______ _____ _____    ______ ____
ROOT
ATOM     10  C   UNL     1       0.143   0.459  23.574  0.00  0.00    +0.250 A 
ATOM     11  N   UNL     1      -0.197  -0.078  24.100  0.00  0.00    -0.107 NA
ATOM     12  N   UNL     1      -0.985   0.141  24.213  0.00  0.00    -0.111 NA
ATOM     13  C   UNL     1      -1.131   0.813  23.757  0.00  0.00    +0.227 A 
ATOM     14  O   UNL     1      -0.433   1.009  23.362  0.00  0.00    -0.419 OA
ENDROOT
BRANCH  10   7
ATOM      4  C   UNL     1       2.484   0.424  22.774  0.00  0.00    +0.048 A 
ATOM      5  C   UNL     1       1.950  -0.148  22.511  0.00  0.00    +0.015 A 
ATOM      6  C   UNL     1       1.170  -0.136  22.777  0.00  0.00    +0.006 A 
ATOM      7  C   UNL     1       0.923   0.447  23.308  0.00  0.00    +0.055 A 
ATOM      8  C   UNL     1       1.458   1.018  23.570  0.00  0.00    +0.006 A 
ATOM      9  C   UNL     1       2.239   1.006  23.303  0.00  0.00    +0.015 A 
BRANCH   4   2
ATOM      1  C   UNL     1       3.429   0.231  21.719  0.00  0.00    +0.112 C 
ATOM      2  N   UNL     1       3.266   0.412  22.507  0.00  0.00    -0.304 N 
ATOM      3  C   UNL     1       3.882   0.580  23.029  0.00  0.00    +0.112 C 
ENDBRANCH   4   2
ENDBRANCH  10   7
BRANCH  13  15
ATOM     15  C   UNL     1      -1.848   1.218  23.705  0.00  0.00    +0.096 C 
ATOM     16  C   UNL     1      -2.159   1.567  23.024  0.00  0.00    +0.028 C 
ATOM     17  C   UNL     1      -2.883   1.909  23.222  0.00  0.00    +0.073 C 
ATOM     18  N   UNL     1      -3.019   1.772  24.024  0.00  0.00    -0.273 NA
ATOM     19  C   UNL     1      -2.379   1.345  24.322  0.00  0.00    +0.081 C 
BRANCH  18  20
ATOM     20  C   UNL     1      -3.680   2.019  24.453  0.00  0.00    +0.061 C 
ATOM     21  C   UNL     1      -4.252   1.470  24.681  0.00  0.00    +0.038 C 
ATOM     22  C   UNL     1      -4.912   1.717  25.110  0.00  0.00    +0.095 C 
ATOM     23  N   UNL     1      -5.000   2.512  25.310  0.00  0.00    -0.279 N 
ATOM     24  C   UNL     1      -4.428   3.061  25.082  0.00  0.00    +0.095 C 
ATOM     25  C   UNL     1      -3.768   2.814  24.654  0.00  0.00    +0.038 C 
ATOM     26  C   UNL     1      -5.660   2.758  25.739  0.00  0.00    +0.226 C 
ATOM     27  C   UNL     1      -6.233   2.210  25.967  0.00  0.00    +0.095 C 
ATOM     28  O   UNL     1      -5.748   3.554  25.939  0.00  0.00    -0.275 OA
ENDBRANCH  18  20
ENDBRANCH  13  15
TORSDOF 4
ENDMDL
MODEL 4
REMARK VINA RESULT:      -8.6      3.588      5.074
REMARK  Name = 
REMARK  4 active torsions:
REMARK  status: ('A' for Active; 'I' for Inactive)
REMARK    1  A    between atoms: N_2  and  C_4
REMARK    2  A    between atoms: C_7  and  C_10
REMARK    3  A    between atoms: C_13  and  C_15
REMARK    4  A    between atoms: N_18  and  C_20
REMARK                            x       y       z     vdW  Elec       q    Type
REMARK                         _______ _______ _______ _____ _____    ______ ____
ROOT
ATOM     10  C   UNL     1      -3.397   0.752  24.514  0.00  0.00    +0.250 A 
ATOM     11  N   UNL     1      -3.577   0.059  24.103  0.00  0.00    -0.107 NA
ATOM     12  N   UNL     1      -2.871  -0.345  23.965  0.00  0.00    -0.111 NA
ATOM     13  C   UNL     1      -2.256   0.098  24.289  0.00  0.00    +0.227 A 
ATOM     14  O   UNL     1      -2.582   0.776  24.629  0.00  0.00    -0.419 OA
ENDROOT
BRANCH  10   7
ATOM      4  C   UNL     1      -5.024   2.458  25.267  0.00  0.00    +0.048 A 
ATOM      5  C   UNL     1      -5.185   1.657  25.382  0.00  0.00    +0.015 A 
ATOM      6  C   UNL     1      -4.642   1.088  25.131  0.00  0.00    +0.006 A 
ATOM      7  C   UNL     1      -3.939   1.320  24.765  0.00  0.00    +0.055 A 
ATOM      8  C   UNL     1      -3.780   2.122  24.651  0.00  0.00    +0.006 A 
ATOM      9  C   UNL     1      -4.322   2.691  24.902  0.00  0.00    +0.015 A 
BRANCH   4   2
ATOM      1  C   UNL     1      -6.308   2.796  25.795  0.00  0.00    +0.112 C 
ATOM      2  N   UNL     1      -5.567   3.027  25.519  0.00  0.00    -0.304 N 
ATOM      3  C   UNL     1      -5.366   3.827  25.493  0.00  0.00    +0.112 C 
ENDBRANCH   4   2
ENDBRANCH  10   7
BRANCH  13  15
ATOM     15  C   UNL     1      -1.456  -0.101  24.277  0.00  0.00    +0.096 C 
ATOM     16  C   UNL     1      -1.084  -0.644  24.775  0.00  0.00    +0.028 C 
ATOM     17  C   UNL     1      -0.285  -0.672  24.571  0.00  0.00    +0.073 C 
ATOM     18  N   UNL     1      -0.163  -0.145  23.947  0.00  0.00    -0.273 NA
ATOM     19  C   UNL     1      -0.887   0.208  23.766  0.00  0.00    +0.081 C 
BRANCH  18  20
ATOM     20  C   UNL     1       0.557   0.003  23.571  0.00  0.00    +0.061 C 
ATOM     21  C   UNL     1       1.060   0.589  23.860  0.00  0.00    +0.038 C 
ATOM     22  C   UNL     1       1.780   0.737  23.484  0.00  0.00    +0.095 C 
ATOM     23  N   UNL     1       1.995   0.299  22.819  0.00  0.00    -0.279 N 
ATOM     24  C   UNL     1       1.491  -0.287  22.530  0.00  0.00    +0.095 C 
ATOM     25  C   UNL     1       0.772  -0.435  22.906  0.00  0.00    +0.038 C 
ATOM     26  C   UNL     1       2.714   0.448  22.443  0.00  0.00    +0.226 C 
ATOM     27  C   UNL     1       3.218   1.034  22.732  0.00  0.00    +0.095 C 
ATOM     28  O   UNL     1       2.929   0.010  21.778  0.00  0.00    -0.275 OA
ENDBRANCH  18  20
ENDBRANCH  13  15
TORSDOF 4
ENDMDL
MODEL 5
REMARK VINA RESULT:      -8.4      2.079      6.572
REMARK  Name = 
REMARK  4 active torsions:
REMARK  status: ('A' for Active; 'I' for Inactive)
REMARK    1  A    between atoms: N_2  and  C_4
REMARK    2  A    between atoms: C_7  and  C_10
REMARK    3  A    between atoms: C_13  and  C_15
REMARK    4  A    between atoms: N_18  and  C_20
REMARK                            x       y       z     vdW  Elec       q    Type
REMARK                         _______ _______ _______ _____ _____    ______ ____
ROOT
ATOM     10  C   UNL     1      -0.895   2.369  25.582  0.00  0.00    +0.250 A 
ATOM     11  N   UNL     1      -0.388   2.071  26.161  0.00  0.00    -0.107 NA
ATOM     12  N   UNL     1      -0.378   1.249  26.090  0.00  0.00    -0.111 NA
ATOM     13  C   UNL     1      -0.879   1.040  25.469  0.00  0.00    +0.227 A 
ATOM     14  O   UNL     1      -1.199   1.733  25.155  0.00  0.00    -0.419 OA
ENDROOT
BRANCH  10   7
ATOM      4  C   UNL     1      -1.416   4.758  25.199  0.00  0.00    +0.048 A 
ATOM      5  C   UNL     1      -1.959   4.276  25.591  0.00  0.00    +0.015 A 
ATOM      6  C   UNL     1      -1.785   3.479  25.719  0.00  0.00    +0.006 A 
ATOM      7  C   UNL     1      -1.069   3.165  25.455  0.00  0.00    +0.055 A 
ATOM      8  C   UNL     1      -0.527   3.648  25.063  0.00  0.00    +0.006 A 
ATOM      9  C   UNL     1      -0.701   4.445  24.935  0.00  0.00    +0.015 A 
BRANCH   4   2
ATOM      1  C   UNL     1      -1.026   6.050  24.729  0.00  0.00    +0.112 C 
ATOM      2  N   UNL     1      -1.590   5.555  25.071  0.00  0.00    -0.304 N 
ATOM      3  C   UNL     1      -2.328   5.856  25.285  0.00  0.00    +0.112 C 
ENDBRANCH   4   2
ENDBRANCH  10   7
BRANCH  13  15
ATOM     15  C   UNL     1      -1.033   0.273  25.207  0.00  0.00    +0.096 C 
ATOM     16  C   UNL     1      -0.468  -0.304  25.035  0.00  0.00    +0.028 C 
ATOM     17  C   UNL     1      -0.864  -0.985  24.793  0.00  0.00    +0.073 C 
ATOM     18  N   UNL     1      -1.674  -0.830  24.815  0.00  0.00    -0.273 NA
ATOM     19  C   UNL     1      -1.778  -0.052  25.070  0.00  0.00    +0.081 C 
BRANCH  18  20
ATOM     20  C   UNL     1      -2.275  -1.360  24.615  0.00  0.00    +0.061 C 
ATOM     21  C   UNL     1      -2.974  -1.081  24.275  0.00  0.00    +0.038 C 
ATOM     22  C   UNL     1      -3.575  -1.611  24.076  0.00  0.00    +0.095 C 
ATOM     23  N   UNL     1      -3.477  -2.418  24.217  0.00  0.00    -0.279 N 
ATOM     24  C   UNL     1      -2.778  -2.695  24.557  0.00  0.00    +0.095 C 
ATOM     25  C   UNL     1      -2.177  -2.166  24.756  0.00  0.00    +0.038 C 
ATOM     26  C   UNL     1      -4.077  -2.946  24.018  0.00  0.00    +0.226 C 
ATOM     27  C   UNL     1      -4.776  -2.669  23.678  0.00  0.00    +0.095 C 
ATOM     28  O   UNL     1      -3.979  -3.753  24.158  0.00  0.00    -0.275 OA
ENDBRANCH  18  20
ENDBRANCH  13  15
TORSDOF 4
ENDMDL
MODEL 6
REMARK VINA RESULT:      -8.2      1.798      2.481
REMARK  Name = 
REMARK  4 active torsions:
REMARK  status: ('A' for Active; 'I' for Inactive)
REMARK    1  A    between atoms: N_2  and  C_4
REMARK    2  A    between atoms: C_7  and  C_10
REMARK    3  A    between atoms: C_13  and  C_15
REMARK    4  A    between atoms: N_18  and  C_20
REMARK                            x       y       z     vdW  Elec       q    Type
REMARK                         _______ _______ _______ _____ _____    ______ ____
ROOT
ATOM     10  C   UNL     1      -1.920  -0.763  25.342  0.00  0.00    +0.250 A 
ATOM     11  N   UNL     1      -1.395  -0.961  25.946  0.00  0.00    -0.107 NA
ATOM     12  N   UNL     1      -0.951  -0.289  26.127  0.00  0.00    -0.111 NA
ATOM     13  C   UNL     1      -1.202   0.323  25.634  0.00  0.00    +0.227 A 
ATOM     14  O   UNL     1      -1.802   0.029  25.149  0.00  0.00    -0.419 OA
ENDROOT
BRANCH  10   7
ATOM      4  C   UNL     1      -3.565  -2.285  24.290  0.00  0.00    +0.048 A 
ATOM      5  C   UNL     1      -2.761  -2.469  24.269  0.00  0.00    +0.015 A 
ATOM      6  C   UNL     1      -2.213  -1.962  24.620  0.00  0.00    +0.006 A 
ATOM      7  C   UNL     1      -2.469  -1.270  24.991  0.00  0.00    +0.055 A 
ATOM      8  C   UNL     1      -3.273  -1.087  25.012  0.00  0.00    +0.006 A 
ATOM      9  C   UNL     1      -3.821  -1.594  24.661  0.00  0.00    +0.015 A 
BRANCH   4   2
ATOM      1  C   UNL     1      -4.022  -3.609  24.008  0.00  0.00    +0.112 C 
ATOM      2  N   UNL     1      -4.114  -2.793  23.940  0.00  0.00    -0.304 N 
ATOM      3  C   UNL     1      -4.754  -2.482  23.521  0.00  0.00    +0.112 C 
ENDBRANCH   4   2
ENDBRANCH  10   7
BRANCH  13  15
ATOM     15  C   UNL     1      -0.907   1.093  25.628  0.00  0.00    +0.096 C 
ATOM     16  C   UNL     1      -0.127   1.314  25.780  0.00  0.00    +0.028 C 
ATOM     17  C   UNL     1      -0.076   2.134  25.715  0.00  0.00    +0.073 C 
ATOM     18  N   UNL     1      -0.826   2.421  25.522  0.00  0.00    -0.273 NA
ATOM     19  C   UNL     1      -1.339   1.777  25.468  0.00  0.00    +0.081 C 
BRANCH  18  20
ATOM     20  C   UNL     1      -1.027   3.213  25.403  0.00  0.00    +0.061 C 
ATOM     21  C   UNL     1      -1.759   3.495  25.659  0.00  0.00    +0.038 C 
ATOM     22  C   UNL     1      -1.960   4.286  25.540  0.00  0.00    +0.095 C 
ATOM     23  N   UNL     1      -1.430   4.795  25.166  0.00  0.00    -0.279 N 
ATOM     24  C   UNL     1      -0.698   4.512  24.911  0.00  0.00    +0.095 C 
ATOM     25  C   UNL     1      -0.496   3.722  25.029  0.00  0.00    +0.038 C 
ATOM     26  C   UNL     1      -1.631   5.586  25.048  0.00  0.00    +0.226 C 
ATOM     27  C   UNL     1      -2.363   5.869  25.303  0.00  0.00    +0.095 C 
ATOM     28  O   UNL     1      -1.100   6.095  24.674  0.00  0.00    -0.275 OA
ENDBRANCH  18  20
ENDBRANCH  13  15
TORSDOF 4
ENDMDL
MODEL 7
REMARK VINA RESULT:      -7.9     14.504     17.186
REMARK  Name = 
REMARK  4 active torsions:
REMARK  status: ('A' for Active; 'I' for Inactive)
REMARK    1  A    between atoms: N_2  and  C_4
REMARK    2  A    between atoms: C_7  and  C_10
REMARK    3  A    between atoms: C_13  and  C_15
REMARK    4  A    between atoms: N_18  and  C_20
REMARK                            x       y       z     vdW  Elec       q    Type
REMARK                         _______ _______ _______ _____ _____    ______ ____
ROOT
ATOM     10  C   UNL     1      -2.893 -10.076  11.769  0.00  0.00    +0.250 A 
ATOM     11  N   UNL     1      -2.074 -10.115  11.861  0.00  0.00    -0.107 NA
ATOM     12  N   UNL     1      -1.915 -10.266  12.656  0.00  0.00    -0.111 NA
ATOM     13  C   UNL     1      -2.635 -10.320  13.055  0.00  0.00    +0.227 A 
ATOM     14  O   UNL     1      -3.240 -10.202  12.505  0.00  0.00    -0.419 OA
ENDROOT
BRANCH  10   7
ATOM      4  C   UNL     1      -4.097  -9.652   9.648  0.00  0.00    +0.048 A 
ATOM      5  C   UNL     1      -4.341 -10.264  10.145  0.00  0.00    +0.015 A 
ATOM      6  C   UNL     1      -3.939 -10.405  10.852  0.00  0.00    +0.006 A 
ATOM      7  C   UNL     1      -3.294  -9.934  11.062  0.00  0.00    +0.055 A 
ATOM      8  C   UNL     1      -3.052  -9.323  10.564  0.00  0.00    +0.006 A 
ATOM      9  C   UNL     1      -3.453  -9.181   9.858  0.00  0.00    +0.015 A 
BRANCH   4   2
ATOM      1  C   UNL     1      -4.419 -10.034   8.310  0.00  0.00    +0.112 C 
ATOM      2  N   UNL     1      -4.499  -9.510   8.941  0.00  0.00    -0.304 N 
ATOM      3  C   UNL     1      -4.981  -8.844   8.867  0.00  0.00    +0.112 C 
ENDBRANCH   4   2
ENDBRANCH  10   7
BRANCH  13  15
ATOM     15  C   UNL     1      -2.734 -10.466  13.860  0.00  0.00    +0.096 C 
ATOM     16  C   UNL     1      -2.142 -10.695  14.388  0.00  0.00    +0.028 C 
ATOM     17  C   UNL     1      -2.484 -10.779  15.134  0.00  0.00    +0.073 C 
ATOM     18  N   UNL     1      -3.287 -10.602  15.068  0.00  0.00    -0.273 NA
ATOM     19  C   UNL     1      -3.442 -10.409  14.280  0.00  0.00    +0.081 C 
BRANCH  18  20
ATOM     20  C   UNL     1      -3.839 -10.617  15.681  0.00  0.00    +0.061 C 
ATOM     21  C   UNL     1      -3.584 -10.638  16.465  0.00  0.00    +0.038 C 
ATOM     22  C   UNL     1      -4.136 -10.653  17.078  0.00  0.00    +0.095 C 
ATOM     23  N   UNL     1      -4.943 -10.645  16.907  0.00  0.00    -0.279 N 
ATOM     24  C   UNL     1      -5.198 -10.623  16.123  0.00  0.00    +0.095 C 
ATOM     25  C   UNL     1      -4.646 -10.609  15.510  0.00  0.00    +0.038 C 
ATOM     26  C   UNL     1      -5.494 -10.659  17.520  0.00  0.00    +0.226 C 
ATOM     27  C   UNL     1      -5.239 -10.681  18.305  0.00  0.00    +0.095 C 
ATOM     28  O   UNL     1      -6.301 -10.652  17.349  0.00  0.00    -0.275 OA
ENDBRANCH  18  20
ENDBRANCH  13  15
TORSDOF 4
ENDMDL
MODEL 8
REMARK VINA RESULT:      -7.8      5.077      6.257
REMARK  Name = 
REMARK  4 active torsions:
REMARK  status: ('A' for Active; 'I' for Inactive)
REMARK    1  A    between atoms: N_2  and  C_4
REMARK    2  A    between atoms: C_7  and  C_10
REMARK    3  A    between atoms: C_13  and  C_15
REMARK    4  A    between atoms: N_18  and  C_20
REMARK                            x       y       z     vdW  Elec       q    Type
REMARK                         _______ _______ _______ _____ _____    ______ ____
ROOT
ATOM     10  C   UNL     1       2.176   0.057  22.900  0.00  0.00    +0.250 A 
ATOM     11  N   UNL     1       1.789  -0.134  22.197  0.00  0.00    -0.107 NA
ATOM     12  N   UNL     1       0.976  -0.088  22.334  0.00  0.00    -0.111 NA
ATOM     13  C   UNL     1       0.863   0.131  23.122  0.00  0.00    +0.227 A 
ATOM     14  O   UNL     1       1.605   0.220  23.471  0.00  0.00    -0.419 OA
ENDROOT
BRANCH  10   7
ATOM      4  C   UNL     1       4.628   0.126  23.234  0.00  0.00    +0.048 A 
ATOM      5  C   UNL     1       4.203  -0.551  23.439  0.00  0.00    +0.015 A 
ATOM      6  C   UNL     1       3.386  -0.574  23.328  0.00  0.00    +0.006 A 
ATOM      7  C   UNL     1       2.994   0.080  23.011  0.00  0.00    +0.055 A 
ATOM      8  C   UNL     1       3.419   0.756  22.806  0.00  0.00    +0.006 A 
ATOM      9  C   UNL     1       4.236   0.779  22.917  0.00  0.00    +0.015 A 
BRANCH   4   2
ATOM      1  C   UNL     1       5.948  -0.181  22.781  0.00  0.00    +0.112 C 
ATOM      2  N   UNL     1       5.446   0.150  23.345  0.00  0.00    -0.304 N 
ATOM      3  C   UNL     1       5.760   0.504  24.021  0.00  0.00    +0.112 C 
ENDBRANCH   4   2
ENDBRANCH  10   7
BRANCH  13  15
ATOM     15  C   UNL     1       0.135   0.240  23.495  0.00  0.00    +0.096 C 
ATOM     16  C   UNL     1      -0.275  -0.326  23.932  0.00  0.00    +0.028 C 
ATOM     17  C   UNL     1      -0.974   0.019  24.204  0.00  0.00    +0.073 C 
ATOM     18  N   UNL     1      -0.995   0.799  23.934  0.00  0.00    -0.273 NA
ATOM     19  C   UNL     1      -0.309   0.935  23.496  0.00  0.00    +0.081 C 
BRANCH  18  20
ATOM     20  C   UNL     1      -1.596   1.346  24.077  0.00  0.00    +0.061 C 
ATOM     21  C   UNL     1      -2.181   1.473  23.510  0.00  0.00    +0.038 C 
ATOM     22  C   UNL     1      -2.783   2.020  23.653  0.00  0.00    +0.095 C 
ATOM     23  N   UNL     1      -2.798   2.439  24.364  0.00  0.00    -0.279 N 
ATOM     24  C   UNL     1      -2.212   2.311  24.931  0.00  0.00    +0.095 C 
ATOM     25  C   UNL     1      -1.612   1.765  24.788  0.00  0.00    +0.038 C 
ATOM     26  C   UNL     1      -3.399   2.985  24.507  0.00  0.00    +0.226 C 
ATOM     27  C   UNL     1      -3.984   3.113  23.940  0.00  0.00    +0.095 C 
ATOM     28  O   UNL     1      -3.414   3.404  25.217  0.00  0.00    -0.275 OA
ENDBRANCH  18  20
ENDBRANCH  13  15
TORSDOF 4
ENDMDL
MODEL 9
REMARK VINA RESULT:      -7.6     14.356     15.732
REMARK  Name = 
REMARK  4 active torsions:
REMARK  status: ('A' for Active; 'I' for Inactive)
REMARK    1  A    between atoms: N_2  and  C_4
REMARK    2  A    between atoms: C_7  and  C_10
REMARK    3  A    between atoms: C_13  and  C_15
REMARK    4  A    between atoms: N_18  and  C_20
REMARK                            x       y       z     vdW  Elec       q    Type
REMARK                         _______ _______ _______ _____ _____    ______ ____
ROOT
ATOM     10  C   UNL     1      -5.797 -10.383  17.284  0.00  0.00    +0.250 A 
ATOM     11  N   UNL     1      -5.324 -10.642  17.907  0.00  0.00    -0.107 NA
ATOM     12  N   UNL     1      -4.563 -10.769  17.613  0.00  0.00    -0.111 NA
ATOM     13  C   UNL     1      -4.568 -10.588  16.808  0.00  0.00    +0.227 A 
ATOM     14  O   UNL     1      -5.331 -10.349  16.605  0.00  0.00    -0.419 OA
ENDROOT
BRANCH  10   7
ATOM      4  C   UNL     1      -8.200  -9.806  17.427  0.00  0.00    +0.048 A 
ATOM      5  C   UNL     1      -7.930 -10.524  17.732  0.00  0.00    +0.015 A 
ATOM      6  C   UNL     1      -7.129 -10.716  17.684  0.00  0.00    +0.006 A 
ATOM      7  C   UNL     1      -6.598 -10.191  17.332  0.00  0.00    +0.055 A 
ATOM      8  C   UNL     1      -6.870  -9.473  17.028  0.00  0.00    +0.006 A 
ATOM      9  C   UNL     1      -7.670  -9.281  17.076  0.00  0.00    +0.015 A 
BRANCH   4   2
ATOM      1  C   UNL     1      -9.231  -8.830  17.588  0.00  0.00    +0.112 C 
ATOM      2  N   UNL     1      -9.002  -9.614  17.475  0.00  0.00    -0.304 N 
ATOM      3  C   UNL     1      -9.572 -10.207  17.410  0.00  0.00    +0.112 C 
ENDBRANCH   4   2
ENDBRANCH  10   7
BRANCH  13  15
ATOM     15  C   UNL     1      -3.923 -10.636  16.297  0.00  0.00    +0.096 C 
ATOM     16  C   UNL     1      -3.139 -10.777  16.515  0.00  0.00    +0.028 C 
ATOM     17  C   UNL     1      -2.680 -10.781  15.831  0.00  0.00    +0.073 C 
ATOM     18  N   UNL     1      -3.179 -10.642  15.188  0.00  0.00    -0.273 NA
ATOM     19  C   UNL     1      -3.947 -10.553  15.476  0.00  0.00    +0.081 C 
BRANCH  18  20
ATOM     20  C   UNL     1      -2.950 -10.601  14.396  0.00  0.00    +0.061 C 
ATOM     21  C   UNL     1      -2.174 -10.398  14.201  0.00  0.00    +0.038 C 
ATOM     22  C   UNL     1      -1.945 -10.357  13.409  0.00  0.00    +0.095 C 
ATOM     23  N   UNL     1      -2.492 -10.517  12.813  0.00  0.00    -0.279 N 
ATOM     24  C   UNL     1      -3.268 -10.719  13.009  0.00  0.00    +0.095 C 
ATOM     25  C   UNL     1      -3.497 -10.761  13.800  0.00  0.00    +0.038 C 
ATOM     26  C   UNL     1      -2.264 -10.475  12.022  0.00  0.00    +0.226 C 
ATOM     27  C   UNL     1      -1.488 -10.273  11.827  0.00  0.00    +0.095 C 
ATOM     28  O   UNL     1      -2.811 -10.635  11.426  0.00  0.00    -0.275 OA
ENDBRANCH  18  20
ENDBRANCH  13  15
TORSDOF 4
ENDMDL
MODEL 10
REMARK VINA RESULT:      -7.4     14.103     16.481
REMARK  Name = 
REMARK  4 active torsions:
REMARK  status: ('A' for Active; 'I' for Inactive)
REMARK    1  A    between atoms: N_2  and  C_4
REMARK    2  A    between atoms: C_7  and  C_10
REMARK    3  A    between atoms: C_13  and  C_15
REMARK    4  A    between atoms: N_18  and  C_20
REMARK                            x       y       z     vdW  Elec       q    Type
REMARK                         _______ _______ _______ _____ _____    ______ ____
ROOT
ATOM     10  C   UNL     1      -3.998 -10.661  16.369  0.00  0.00    +0.250 A 
ATOM     11  N   UNL     1      -3.199 -10.758  16.550  0.00  0.00    -0.107 NA
ATOM     12  N   UNL     1      -2.776 -10.761  15.842  0.00  0.00    -0.111 NA
ATOM     13  C   UNL     1      -3.314 -10.666  15.224  0.00  0.00    +0.227 A 
ATOM     14  O   UNL     1      -4.069 -10.604  15.550  0.00  0.00    -0.419 OA
ENDROOT
BRANCH  10   7
ATOM      4  C   UNL     1      -5.855 -10.560  18.002  0.00  0.00    +0.048 A 
ATOM      5  C   UNL     1      -5.999 -10.407  17.204  0.00  0.00    +0.015 A 
ATOM      6  C   UNL     1      -5.380 -10.441  16.660  0.00  0.00    +0.006 A 
ATOM      7  C   UNL     1      -4.617 -10.628  16.914  0.00  0.00    +0.055 A 
ATOM      8  C   UNL     1      -4.474 -10.780  17.712  0.00  0.00    +0.006 A 
ATOM      9  C   UNL     1      -5.093 -10.746  18.256  0.00  0.00    +0.015 A 
BRANCH   4   2
ATOM      1  C   UNL     1      -6.312 -10.481  19.354  0.00  0.00    +0.112 C 
ATOM      2  N   UNL     1      -6.475 -10.526  18.547  0.00  0.00    -0.304 N 
ATOM      3  C   UNL     1      -7.256 -10.537  18.283  0.00  0.00    +0.112 C 
ENDBRANCH   4   2
ENDBRANCH  10   7
BRANCH  13  15
ATOM     15  C   UNL     1      -3.130 -10.637  14.420  0.00  0.00    +0.096 C 
ATOM     16  C   UNL     1      -2.385 -10.764  14.089  0.00  0.00    +0.028 C 
ATOM     17  C   UNL     1      -2.452 -10.682  13.271  0.00  0.00    +0.073 C 
ATOM     18  N   UNL     1      -3.239 -10.505  13.096  0.00  0.00    -0.273 NA
ATOM     19  C   UNL     1      -3.658 -10.478  13.807  0.00  0.00    +0.081 C 
BRANCH  18  20
ATOM     20  C   UNL     1      -3.552 -10.378  12.343  0.00  0.00    +0.061 C 
ATOM     21  C   UNL     1      -3.058 -10.397  11.683  0.00  0.00    +0.038 C 
ATOM     22  C   UNL     1      -3.372 -10.270  10.930  0.00  0.00    +0.095 C 
ATOM     23  N   UNL     1      -4.178 -10.124  10.838  0.00  0.00    -0.279 N 
ATOM     24  C   UNL     1      -4.672 -10.105  11.499  0.00  0.00    +0.095 C 
ATOM     25  C   UNL     1      -4.359 -10.232  12.251  0.00  0.00    +0.038 C 
ATOM     26  C   UNL     1      -4.491  -9.998  10.086  0.00  0.00    +0.226 C 
ATOM     27  C   UNL     1      -3.998 -10.017   9.425  0.00  0.00    +0.095 C 
ATOM     28  O   UNL     1      -5.298  -9.852   9.994  0.00  0.00    -0.275 OA
ENDBRANCH  18  20
ENDBRANCH  13  15
TORSDOF 4
ENDMDL
