MODEL 1
REMARK VINA RESULT:     -11.6      0.000      0.000
REMARK  Name = 
REMARK  5 active torsions:
REMARK  status: ('A' for Active; 'I' for Inactive)
REMARK    1  A    between atoms: C_2  and  C_5
REMARK    2  A    between atoms: N_10  and  C_11
REMARK    3  A    between atoms: C_15  and  O_19
REMARK    4  A    between atoms: O_19  and  C_20
REMARK    5  A    between atoms: N_22  and  C_23
REMARK                            x       y       z     vdW  Elec       q    Type
REMARK                         _______ _______ _______ _____ _____    ______ ____
ROOT
ATOM     11  C   UNL     1      -1.179  -0.273  24.921  0.00  0.00    +0.155 C 
ATOM     12  C   UNL     1      -1.092  -0.081  25.719  0.00  0.00    +0.166 C 
ATOM     13  O   UNL     1      -0.727   0.657  25.764  0.00  0.00    -0.348 OA
ATOM     14  C   UNL     1      -0.588   0.921  24.996  0.00  0.00    +0.186 C 
ATOM     15  C   UNL     1      -0.276   1.540  24.549  0.00  0.00    +0.229 C 
ATOM     16  C   UNL     1      -0.363   1.349  23.751  0.00  0.00    +0.188 C 
ATOM     17  O   UNL     1      -0.728   0.611  23.705  0.00  0.00    -0.348 OA
ATOM     18  C   UNL     1      -0.867   0.346  24.475  0.00  0.00    +0.168 C 
ENDROOT
BRANCH  11  10
ATOM      5  C   UNL     1      -3.447  -1.984  24.613  0.00  0.00    +0.063 A 
ATOM      6  C   UNL     1      -3.904  -1.459  25.057  0.00  0.00    +0.035 A 
ATOM      7  C   UNL     1      -3.564  -0.768  25.355  0.00  0.00    +0.103 A 
ATOM      8  N   UNL     1      -2.769  -0.603  25.211  0.00  0.00    -0.211 NA
ATOM      9  C   UNL     1      -2.313  -1.129  24.767  0.00  0.00    +0.236 A 
ATOM     10  N   UNL     1      -1.518  -0.964  24.622  0.00  0.00    -0.200 NA
ATOM     29  N   UNL     1      -2.652  -1.819  24.469  0.00  0.00    -0.217 NA
BRANCH   5   2
ATOM      1  C   UNL     1      -4.126  -3.365  24.016  0.00  0.00    +0.006 C 
ATOM      2  C   UNL     1      -3.786  -2.674  24.315  0.00  0.00    +0.036 C 
ATOM      3  C   UNL     1      -4.176  -2.233  23.738  0.00  0.00    +0.006 C 
ATOM      4  C   UNL     1      -3.397  -3.116  24.893  0.00  0.00    +0.006 C 
ENDBRANCH   5   2
ENDBRANCH  11  10
BRANCH  15  19
ATOM     19  O   UNL     1       0.063   2.231  24.847  0.00  0.00    -0.432 OA
BRANCH  19  20
ATOM     20  C   UNL     1      -0.312   2.958  24.734  0.00  0.00    +0.421 C 
ATOM     21  O   UNL     1      -0.444   3.238  23.969  0.00  0.00    -0.225 OA
ATOM     22  N   UNL     1      -0.554   3.403  25.384  0.00  0.00    -0.170 NA
BRANCH  22  23
ATOM     23  C   UNL     1      -0.928   4.130  25.270  0.00  0.00    +0.099 C 
ATOM     24  C   UNL     1      -0.509   4.766  24.955  0.00  0.00    +0.022 C 
ATOM     25  C   UNL     1      -0.883   5.491  24.841  0.00  0.00    +0.002 C 
ATOM     26  C   UNL     1      -1.678   5.582  25.043  0.00  0.00    +0.000 C 
ATOM     27  C   UNL     1      -2.098   4.946  25.359  0.00  0.00    +0.002 C 
ATOM     28  C   UNL     1      -1.723   4.220  25.472  0.00  0.00    +0.022 C 
ENDBRANCH  22  23
ENDBRANCH  19  20
ENDBRANCH  15  19
TORSDOF 5
ENDMDL
MODEL 2
REMARK VINA RESULT:     -10.8      2.033      2.417
REMARK  Name = 
REMARK  5 active torsions:
REMARK  status: ('A' for Active; 'I' for Inactive)
REMARK    1  A    between atoms: C_2  and  C_5
REMARK    2  A    between atoms: N_10  and  C_11
REMARK    3  A    between atoms: C_15  and  O_19
REMARK    4  A    between atoms: O_19  and  C_20
REMARK    5  A    between atoms: N_22  and  C_23
REMARK                            x       y       z     vdW  Elec       q    Type
REMARK                         _______ _______ _______ _____ _____    ______ ____
ROOT
ATOM     11  C   UNL     1      -4.419   0.650  24.573  0.00  0.00    +0.155 C 
ATOM     12  C   UNL     1      -4.731   0.844  25.311  0.00  0.00    +0.166 C 
ATOM     13  O   UNL     1      -4.605   1.649  25.437  0.00  0.00    -0.348 OA
ATOM     14  C   UNL     1      -4.215   1.953  24.778  0.00  0.00    +0.186 C 
ATOM     15  C   UNL     1      -3.896   2.638  24.447  0.00  0.00    +0.229 C 
ATOM     16  C   UNL     1      -3.583   2.444  23.709  0.00  0.00    +0.188 C 
ATOM     17  O   UNL     1      -3.709   1.639  23.583  0.00  0.00    -0.348 OA
ATOM     18  C   UNL     1      -4.100   1.335  24.243  0.00  0.00    +0.168 C 
ENDROOT
BRANCH  11  10
ATOM      5  C   UNL     1      -3.691  -2.114  24.635  0.00  0.00    +0.063 A 
ATOM      6  C   UNL     1      -3.316  -1.999  25.361  0.00  0.00    +0.035 A 
ATOM      7  C   UNL     1      -3.311  -1.250  25.709  0.00  0.00    +0.103 A 
ATOM      8  N   UNL     1      -3.680  -0.617  25.330  0.00  0.00    -0.211 NA
ATOM      9  C   UNL     1      -4.055  -0.732  24.604  0.00  0.00    +0.236 A 
ATOM     10  N   UNL     1      -4.424  -0.099  24.226  0.00  0.00    -0.200 NA
ATOM     29  N   UNL     1      -4.060  -1.480  24.257  0.00  0.00    -0.217 NA
BRANCH   5   2
ATOM      1  C   UNL     1      -3.702  -3.610  23.941  0.00  0.00    +0.006 C 
ATOM      2  C   UNL     1      -3.697  -2.862  24.288  0.00  0.00    +0.036 C 
ATOM      3  C   UNL     1      -4.433  -2.701  23.954  0.00  0.00    +0.006 C 
ATOM      4  C   UNL     1      -2.959  -3.023  24.623  0.00  0.00    +0.006 C 
ENDBRANCH   5   2
ENDBRANCH  11  10
BRANCH  15  19
ATOM     19  O   UNL     1      -3.890   3.386  24.794  0.00  0.00    -0.432 OA
BRANCH  19  20
ATOM     20  C   UNL     1      -3.242   3.886  24.688  0.00  0.00    +0.421 C 
ATOM     21  O   UNL     1      -3.178   4.338  24.001  0.00  0.00    -0.225 OA
ATOM     22  N   UNL     1      -2.658   3.934  25.269  0.00  0.00    -0.170 NA
BRANCH  22  23
ATOM     23  C   UNL     1      -2.010   4.433  25.163  0.00  0.00    +0.099 C 
ATOM     24  C   UNL     1      -2.109   5.251  25.201  0.00  0.00    +0.022 C 
ATOM     25  C   UNL     1      -1.461   5.750  25.096  0.00  0.00    +0.002 C 
ATOM     26  C   UNL     1      -0.714   5.431  24.951  0.00  0.00    +0.000 C 
ATOM     27  C   UNL     1      -0.615   4.613  24.912  0.00  0.00    +0.002 C 
ATOM     28  C   UNL     1      -1.263   4.114  25.018  0.00  0.00    +0.022 C 
ENDBRANCH  22  23
ENDBRANCH  19  20
ENDBRANCH  15  19
TORSDOF 5
ENDMDL
MODEL 3
REMARK VINA RESULT:     -10.8      0.905      5.662
REMARK  Name = 
REMARK  5 active torsions:
REMARK  status: ('A' for Active; 'I' for Inactive)
REMARK    1  A    between atoms: C_2  and  C_5
REMARK    2  A    between atoms: N_10  and  C_11
REMARK    3  A    between atoms: C_15  and  O_19
REMARK    4  A    between atoms: O_19  and  C_20
REMARK    5  A    between atoms: N_22  and  C_23
REMARK                            x       y       z     vdW  Elec       q    Type
REMARK                         _______ _______ _______ _____ _____    ______ ____
ROOT
ATOM     11  C   UNL     1      -0.570   1.528  25.395  0.00  0.00    +0.155 C 
ATOM     12  C   UNL     1      -0.852   1.257  26.122  0.00  0.00    +0.166 C 
ATOM     13  O   UNL     1      -0.982   0.445  26.056  0.00  0.00    -0.348 OA
ATOM     14  C   UNL     1      -0.781   0.215  25.291  0.00  0.00    +0.186 C 
ATOM     15  C   UNL     1      -0.737  -0.429  24.777  0.00  0.00    +0.229 C 
ATOM     16  C   UNL     1      -0.455  -0.158  24.051  0.00  0.00    +0.188 C 
ATOM     17  O   UNL     1      -0.325   0.654  24.116  0.00  0.00    -0.348 OA
ATOM     18  C   UNL     1      -0.526   0.884  24.882  0.00  0.00    +0.168 C 
ENDROOT
BRANCH  11  10
ATOM      5  C   UNL     1      -1.312   4.271  25.082  0.00  0.00    +0.063 A 
ATOM      6  C   UNL     1      -2.089   4.084  25.287  0.00  0.00    +0.035 A 
ATOM      7  C   UNL     1      -2.292   3.304  25.468  0.00  0.00    +0.103 A 
ATOM      8  N   UNL     1      -1.718   2.712  25.444  0.00  0.00    -0.211 NA
ATOM      9  C   UNL     1      -0.941   2.900  25.239  0.00  0.00    +0.236 A 
ATOM     10  N   UNL     1      -0.367   2.308  25.214  0.00  0.00    -0.200 NA
ATOM     29  N   UNL     1      -0.738   3.678  25.058  0.00  0.00    -0.217 NA
BRANCH   5   2
ATOM      1  C   UNL     1      -0.908   5.829  24.721  0.00  0.00    +0.006 C 
ATOM      2  C   UNL     1      -1.110   5.049  24.901  0.00  0.00    +0.036 C 
ATOM      3  C   UNL     1      -1.758   5.318  25.334  0.00  0.00    +0.006 C 
ATOM      4  C   UNL     1      -0.461   4.780  24.468  0.00  0.00    +0.006 C 
ENDBRANCH   5   2
ENDBRANCH  11  10
BRANCH  15  19
ATOM     19  O   UNL     1      -0.940  -1.208  24.958  0.00  0.00    -0.432 OA
BRANCH  19  20
ATOM     20  C   UNL     1      -1.595  -1.558  24.599  0.00  0.00    +0.421 C 
ATOM     21  O   UNL     1      -1.532  -1.866  23.836  0.00  0.00    -0.225 OA
ATOM     22  N   UNL     1      -2.313  -1.601  25.002  0.00  0.00    -0.170 NA
BRANCH  22  23
ATOM     23  C   UNL     1      -2.969  -1.951  24.642  0.00  0.00    +0.099 C 
ATOM     24  C   UNL     1      -3.043  -2.772  24.630  0.00  0.00    +0.022 C 
ATOM     25  C   UNL     1      -3.697  -3.122  24.271  0.00  0.00    +0.002 C 
ATOM     26  C   UNL     1      -4.279  -2.650  23.924  0.00  0.00    +0.000 C 
ATOM     27  C   UNL     1      -4.205  -1.828  23.936  0.00  0.00    +0.002 C 
ATOM     28  C   UNL     1      -3.549  -1.479  24.295  0.00  0.00    +0.022 C 
ENDBRANCH  22  23
ENDBRANCH  19  20
ENDBRANCH  15  19
TORSDOF 5
ENDMDL
MODEL 4
REMARK VINA RESULT:     -10.5      2.017      6.155
REMARK  Name = 
REMARK  5 active torsions:
REMARK  status: ('A' for Active; 'I' for Inactive)
REMARK    1  A    between atoms: C_2  and  C_5
REMARK    2  A    between atoms: N_10  and  C_11
REMARK    3  A    between atoms: C_15  and  O_19
REMARK    4  A    between atoms: O_19  and  C_20
REMARK    5  A    between atoms: N_22  and  C_23
REMARK                            x       y       z     vdW  Elec       q    Type
REMARK                         _______ _______ _______ _____ _____    ______ ____
ROOT
ATOM     11  C   UNL     1      -3.719   2.621  24.710  0.00  0.00    +0.155 C 
ATOM     12  C   UNL     1      -4.177   2.479  25.381  0.00  0.00    +0.166 C 
ATOM     13  O   UNL     1      -4.445   1.700  25.346  0.00  0.00    -0.348 OA
ATOM     14  C   UNL     1      -4.154   1.361  24.653  0.00  0.00    +0.186 C 
ATOM     15  C   UNL     1      -4.139   0.670  24.202  0.00  0.00    +0.229 C 
ATOM     16  C   UNL     1      -3.681   0.813  23.531  0.00  0.00    +0.188 C 
ATOM     17  O   UNL     1      -3.413   1.592  23.567  0.00  0.00    -0.348 OA
ATOM     18  C   UNL     1      -3.705   1.931  24.261  0.00  0.00    +0.168 C 
ENDROOT
BRANCH  11  10
ATOM      5  C   UNL     1      -1.598   4.488  25.145  0.00  0.00    +0.063 A 
ATOM      6  C   UNL     1      -1.292   4.002  25.738  0.00  0.00    +0.035 A 
ATOM      7  C   UNL     1      -1.670   3.293  25.926  0.00  0.00    +0.103 A 
ATOM      8  N   UNL     1      -2.353   3.069  25.521  0.00  0.00    -0.211 NA
ATOM      9  C   UNL     1      -2.659   3.555  24.928  0.00  0.00    +0.236 A 
ATOM     10  N   UNL     1      -3.342   3.331  24.523  0.00  0.00    -0.200 NA
ATOM     29  N   UNL     1      -2.281   4.264  24.740  0.00  0.00    -0.217 NA
BRANCH   5   2
ATOM      1  C   UNL     1      -0.843   5.906  24.770  0.00  0.00    +0.006 C 
ATOM      2  C   UNL     1      -1.221   5.196  24.958  0.00  0.00    +0.036 C 
ATOM      3  C   UNL     1      -1.871   5.617  25.241  0.00  0.00    +0.006 C 
ATOM      4  C   UNL     1      -0.570   4.775  24.674  0.00  0.00    +0.006 C 
ENDBRANCH   5   2
ENDBRANCH  11  10
BRANCH  15  19
ATOM     19  O   UNL     1      -4.516  -0.039  24.390  0.00  0.00    -0.432 OA
BRANCH  19  20
ATOM     20  C   UNL     1      -4.133  -0.758  24.259  0.00  0.00    +0.421 C 
ATOM     21  O   UNL     1      -4.057  -1.050  23.491  0.00  0.00    -0.225 OA
ATOM     22  N   UNL     1      -3.827  -1.185  24.894  0.00  0.00    -0.170 NA
BRANCH  22  23
ATOM     23  C   UNL     1      -3.444  -1.904  24.763  0.00  0.00    +0.099 C 
ATOM     24  C   UNL     1      -3.882  -2.579  24.588  0.00  0.00    +0.022 C 
ATOM     25  C   UNL     1      -3.500  -3.298  24.457  0.00  0.00    +0.002 C 
ATOM     26  C   UNL     1      -2.677  -3.341  24.500  0.00  0.00    +0.000 C 
ATOM     27  C   UNL     1      -2.237  -2.665  24.675  0.00  0.00    +0.002 C 
ATOM     28  C   UNL     1      -2.621  -1.946  24.806  0.00  0.00    +0.022 C 
ENDBRANCH  22  23
ENDBRANCH  19  20
ENDBRANCH  15  19
TORSDOF 5
ENDMDL
MODEL 5
REMARK VINA RESULT:      -9.0      3.266      4.586
REMARK  Name = 
REMARK  5 active torsions:
REMARK  status: ('A' for Active; 'I' for Inactive)
REMARK    1  A    between atoms: C_2  and  C_5
REMARK    2  A    between atoms: N_10  and  C_11
REMARK    3  A    between atoms: C_15  and  O_19
REMARK    4  A    between atoms: O_19  and  C_20
REMARK    5  A    between atoms: N_22  and  C_23
REMARK                            x       y       z     vdW  Elec       q    Type
REMARK                         _______ _______ _______ _____ _____    ______ ____
ROOT
ATOM     11  C   UNL     1      -0.249   0.651  24.071  0.00  0.00    +0.155 C 
ATOM     12  C   UNL     1      -0.011   1.428  24.210  0.00  0.00    +0.166 C 
ATOM     13  O   UNL     1       0.718   1.541  23.842  0.00  0.00    -0.348 OA
ATOM     14  C   UNL     1       0.932   0.834  23.476  0.00  0.00    +0.186 C 
ATOM     15  C   UNL     1       1.514   0.466  23.022  0.00  0.00    +0.229 C 
ATOM     16  C   UNL     1       1.277  -0.311  22.883  0.00  0.00    +0.188 C 
ATOM     17  O   UNL     1       0.547  -0.424  23.251  0.00  0.00    -0.348 OA
ATOM     18  C   UNL     1       0.334   0.284  23.617  0.00  0.00    +0.168 C 
ENDROOT
BRANCH  11  10
ATOM      5  C   UNL     1      -3.105   0.581  24.162  0.00  0.00    +0.063 A 
ATOM      6  C   UNL     1      -3.136   1.244  23.672  0.00  0.00    +0.035 A 
ATOM      7  C   UNL     1      -2.438   1.594  23.404  0.00  0.00    +0.103 A 
ATOM      8  N   UNL     1      -1.708   1.280  23.626  0.00  0.00    -0.211 NA
ATOM      9  C   UNL     1      -1.677   0.616  24.116  0.00  0.00    +0.236 A 
ATOM     10  N   UNL     1      -0.947   0.302  24.338  0.00  0.00    -0.200 NA
ATOM     29  N   UNL     1      -2.375   0.267  24.384  0.00  0.00    -0.217 NA
BRANCH   5   2
ATOM      1  C   UNL     1      -4.501  -0.116  24.696  0.00  0.00    +0.006 C 
ATOM      2  C   UNL     1      -3.802   0.233  24.429  0.00  0.00    +0.036 C 
ATOM      3  C   UNL     1      -3.678  -0.405  23.922  0.00  0.00    +0.006 C 
ATOM      4  C   UNL     1      -3.928   0.872  24.936  0.00  0.00    +0.006 C 
ENDBRANCH   5   2
ENDBRANCH  11  10
BRANCH  15  19
ATOM     19  O   UNL     1       2.213   0.815  22.755  0.00  0.00    -0.432 OA
BRANCH  19  20
ATOM     20  C   UNL     1       2.939   0.456  22.909  0.00  0.00    +0.421 C 
ATOM     21  O   UNL     1       2.998  -0.367  22.923  0.00  0.00    -0.225 OA
ATOM     22  N   UNL     1       3.607   0.919  23.050  0.00  0.00    -0.170 NA
BRANCH  22  23
ATOM     23  C   UNL     1       4.334   0.560  23.204  0.00  0.00    +0.099 C 
ATOM     24  C   UNL     1       4.790   0.267  22.583  0.00  0.00    +0.022 C 
ATOM     25  C   UNL     1       5.516  -0.092  22.737  0.00  0.00    +0.002 C 
ATOM     26  C   UNL     1       5.787  -0.158  23.514  0.00  0.00    +0.000 C 
ATOM     27  C   UNL     1       5.330   0.135  24.136  0.00  0.00    +0.002 C 
ATOM     28  C   UNL     1       4.604   0.494  23.981  0.00  0.00    +0.022 C 
ENDBRANCH  22  23
ENDBRANCH  19  20
ENDBRANCH  15  19
TORSDOF 5
ENDMDL
MODEL 6
REMARK VINA RESULT:      -9.0      2.961      4.878
REMARK  Name = 
REMARK  5 active torsions:
REMARK  status: ('A' for Active; 'I' for Inactive)
REMARK    1  A    between atoms: C_2  and  C_5
REMARK    2  A    between atoms: N_10  and  C_11
REMARK    3  A    between atoms: C_15  and  O_19
REMARK    4  A    between atoms: O_19  and  C_20
REMARK    5  A    between atoms: N_22  and  C_23
REMARK                            x       y       z     vdW  Elec       q    Type
REMARK                         _______ _______ _______ _____ _____    ______ ____
ROOT
ATOM     11  C   UNL     1       0.182   0.753  23.891  0.00  0.00    +0.155 C 
ATOM     12  C   UNL     1      -0.158   0.005  23.829  0.00  0.00    +0.166 C 
ATOM     13  O   UNL     1      -0.977   0.098  23.812  0.00  0.00    -0.348 OA
ATOM     14  C   UNL     1      -1.144   0.903  23.863  0.00  0.00    +0.186 C 
ATOM     15  C   UNL     1      -1.753   1.460  23.884  0.00  0.00    +0.229 C 
ATOM     16  C   UNL     1      -1.413   2.209  23.946  0.00  0.00    +0.188 C 
ATOM     17  O   UNL     1      -0.594   2.115  23.964  0.00  0.00    -0.348 OA
ATOM     18  C   UNL     1      -0.427   1.309  23.912  0.00  0.00    +0.168 C 
ENDROOT
BRANCH  11  10
ATOM      5  C   UNL     1       2.819   0.445  22.834  0.00  0.00    +0.063 A 
ATOM      6  C   UNL     1       2.523  -0.038  22.234  0.00  0.00    +0.035 A 
ATOM      7  C   UNL     1       1.715  -0.202  22.199  0.00  0.00    +0.103 A 
ATOM      8  N   UNL     1       1.203   0.116  22.763  0.00  0.00    -0.211 NA
ATOM      9  C   UNL     1       1.501   0.600  23.363  0.00  0.00    +0.236 A 
ATOM     10  N   UNL     1       0.990   0.918  23.927  0.00  0.00    -0.200 NA
ATOM     29  N   UNL     1       2.308   0.764  23.398  0.00  0.00    -0.217 NA
BRANCH   5   2
ATOM      1  C   UNL     1       4.435   0.774  22.903  0.00  0.00    +0.006 C 
ATOM      2  C   UNL     1       3.627   0.609  22.868  0.00  0.00    +0.036 C 
ATOM      3  C   UNL     1       3.483   1.375  22.598  0.00  0.00    +0.006 C 
ATOM      4  C   UNL     1       3.771  -0.157  23.139  0.00  0.00    +0.006 C 
ENDBRANCH   5   2
ENDBRANCH  11  10
BRANCH  15  19
ATOM     19  O   UNL     1      -2.561   1.295  23.849  0.00  0.00    -0.432 OA
BRANCH  19  20
ATOM     20  C   UNL     1      -3.082   1.677  24.362  0.00  0.00    +0.421 C 
ATOM     21  O   UNL     1      -2.857   1.829  25.141  0.00  0.00    -0.225 OA
ATOM     22  N   UNL     1      -3.829   1.906  24.097  0.00  0.00    -0.170 NA
BRANCH  22  23
ATOM     23  C   UNL     1      -4.350   2.287  24.609  0.00  0.00    +0.099 C 
ATOM     24  C   UNL     1      -4.323   3.107  24.692  0.00  0.00    +0.022 C 
ATOM     25  C   UNL     1      -4.844   3.488  25.204  0.00  0.00    +0.002 C 
ATOM     26  C   UNL     1      -5.394   3.049  25.636  0.00  0.00    +0.000 C 
ATOM     27  C   UNL     1      -5.422   2.228  25.553  0.00  0.00    +0.002 C 
ATOM     28  C   UNL     1      -4.900   1.848  25.040  0.00  0.00    +0.022 C 
ENDBRANCH  22  23
ENDBRANCH  19  20
ENDBRANCH  15  19
TORSDOF 5
ENDMDL
MODEL 7
REMARK VINA RESULT:      -9.0      2.961      4.695
REMARK  Name = 
REMARK  5 active torsions:
REMARK  status: ('A' for Active; 'I' for Inactive)
REMARK    1  A    between atoms: C_2  and  C_5
REMARK    2  A    between atoms: N_10  and  C_11
REMARK    3  A    between atoms: C_15  and  O_19
REMARK    4  A    between atoms: O_19  and  C_20
REMARK    5  A    between atoms: N_22  and  C_23
REMARK                            x       y       z     vdW  Elec       q    Type
REMARK                         _______ _______ _______ _____ _____    ______ ____
ROOT
ATOM     11  C   UNL     1      -1.405   1.104  24.501  0.00  0.00    +0.155 C 
ATOM     12  C   UNL     1      -1.559   0.353  24.198  0.00  0.00    +0.166 C 
ATOM     13  O   UNL     1      -0.888   0.101  23.789  0.00  0.00    -0.348 OA
ATOM     14  C   UNL     1      -0.320   0.696  23.839  0.00  0.00    +0.186 C 
ATOM     15  C   UNL     1       0.446   0.910  23.618  0.00  0.00    +0.229 C 
ATOM     16  C   UNL     1       0.599   1.661  23.921  0.00  0.00    +0.188 C 
ATOM     17  O   UNL     1      -0.071   1.913  24.329  0.00  0.00    -0.348 OA
ATOM     18  C   UNL     1      -0.640   1.317  24.279  0.00  0.00    +0.168 C 
ENDROOT
BRANCH  11  10
ATOM      5  C   UNL     1      -3.869   2.534  24.733  0.00  0.00    +0.063 A 
ATOM      6  C   UNL     1      -4.060   2.332  23.956  0.00  0.00    +0.035 A 
ATOM      7  C   UNL     1      -3.539   1.873  23.510  0.00  0.00    +0.103 A 
ATOM      8  N   UNL     1      -2.827   1.616  23.840  0.00  0.00    -0.211 NA
ATOM      9  C   UNL     1      -2.637   1.819  24.617  0.00  0.00    +0.236 A 
ATOM     10  N   UNL     1      -1.926   1.563  24.947  0.00  0.00    -0.200 NA
ATOM     29  N   UNL     1      -3.158   2.278  25.063  0.00  0.00    -0.217 NA
BRANCH   5   2
ATOM      1  C   UNL     1      -4.911   3.451  25.625  0.00  0.00    +0.006 C 
ATOM      2  C   UNL     1      -4.390   2.992  25.179  0.00  0.00    +0.036 C 
ATOM      3  C   UNL     1      -4.837   2.321  25.346  0.00  0.00    +0.006 C 
ATOM      4  C   UNL     1      -3.941   3.665  25.011  0.00  0.00    +0.006 C 
ENDBRANCH   5   2
ENDBRANCH  11  10
BRANCH  15  19
ATOM     19  O   UNL     1       0.967   0.451  23.171  0.00  0.00    -0.432 OA
BRANCH  19  20
ATOM     20  C   UNL     1       1.781   0.567  23.238  0.00  0.00    +0.421 C 
ATOM     21  O   UNL     1       2.074   1.139  23.756  0.00  0.00    -0.225 OA
ATOM     22  N   UNL     1       2.301   0.113  22.789  0.00  0.00    -0.170 NA
BRANCH  22  23
ATOM     23  C   UNL     1       3.115   0.229  22.856  0.00  0.00    +0.099 C 
ATOM     24  C   UNL     1       3.574  -0.304  23.286  0.00  0.00    +0.022 C 
ATOM     25  C   UNL     1       4.388  -0.188  23.353  0.00  0.00    +0.002 C 
ATOM     26  C   UNL     1       4.743   0.463  22.989  0.00  0.00    +0.000 C 
ATOM     27  C   UNL     1       4.284   0.996  22.559  0.00  0.00    +0.002 C 
ATOM     28  C   UNL     1       3.470   0.879  22.492  0.00  0.00    +0.022 C 
ENDBRANCH  22  23
ENDBRANCH  19  20
ENDBRANCH  15  19
TORSDOF 5
ENDMDL
