MODEL 1
REMARK VINA RESULT:     -12.0      0.000      0.000
REMARK  Name = 
REMARK  6 active torsions:
REMARK  status: ('A' for Active; 'I' for Inactive)
REMARK    1  A    between atoms: O_2  and  C_3
REMARK    2  A    between atoms: C_6  and  C_9
REMARK    3  A    between atoms: C_12  and  C_13
REMARK    4  A    between atoms: C_13  and  C_14
REMARK    5  A    between atoms: C_16  and  C_17
REMARK    6  A    between atoms: C_20  and  C_21
REMARK                            x       y       z     vdW  Elec       q    Type
REMARK                         _______ _______ _______ _____ _____    ______ ____
ROOT
ATOM      9  C   UNL     1      -4.132   0.418  24.770  0.00  0.00    +0.250 A 
ATOM     10  N   UNL     1      -4.657   0.816  25.267  0.00  0.00    -0.107 NA
ATOM     11  N   UNL     1      -4.630   1.618  25.077  0.00  0.00    -0.111 NA
ATOM     12  C   UNL     1      -4.088   1.717  24.462  0.00  0.00    +0.227 A 
ATOM     26  O   UNL     1      -3.780   0.975  24.272  0.00  0.00    -0.420 OA
ENDROOT
BRANCH   9   6
ATOM      3  C   UNL     1      -3.689  -2.017  24.770  0.00  0.00    +0.139 A 
ATOM      4  C   UNL     1      -3.476  -1.558  25.422  0.00  0.00    +0.037 A 
ATOM      5  C   UNL     1      -3.623  -0.747  25.422  0.00  0.00    +0.008 A 
ATOM      6  C   UNL     1      -3.984  -0.393  24.770  0.00  0.00    +0.055 A 
ATOM      7  C   UNL     1      -4.198  -0.851  24.117  0.00  0.00    +0.008 A 
ATOM      8  C   UNL     1      -4.050  -1.663  24.117  0.00  0.00    +0.037 A 
BRANCH   3   2
ATOM      1  C   UNL     1      -2.818  -3.116  24.495  0.00  0.00    +0.252 C 
ATOM      2  O   UNL     1      -3.541  -2.828  24.770  0.00  0.00    -0.471 OA
ENDBRANCH   3   2
ENDBRANCH   9   6
BRANCH  12  13
ATOM     13  C   UNL     1      -3.889   2.431  24.101  0.00  0.00    +0.091 C 
BRANCH  13  14
ATOM     14  C   UNL     1      -3.287   2.899  24.415  0.00  0.00    +0.027 C 
ATOM     15  C   UNL     1      -2.547   2.570  24.568  0.00  0.00    +0.005 C 
ATOM     16  C   UNL     1      -1.944   3.038  24.883  0.00  0.00    +0.007 C 
ATOM     20  C   UNL     1      -2.083   3.835  25.043  0.00  0.00    +0.054 C 
ATOM     23  C   UNL     1      -2.823   4.164  24.890  0.00  0.00    -0.032 C 
ATOM     24  C   UNL     1      -3.425   3.697  24.576  0.00  0.00    -0.048 C 
ATOM     25  C   UNL     1      -4.166   4.025  24.422  0.00  0.00    +0.026 C 
BRANCH  16  17
ATOM     17  C   UNL     1      -1.203   2.709  25.036  0.00  0.00    +0.000 C 
ATOM     18  C   UNL     1      -1.017   2.450  25.797  0.00  0.00    +0.000 C 
ATOM     19  C   UNL     1      -0.649   2.638  24.429  0.00  0.00    +0.000 C 
ENDBRANCH  16  17
BRANCH  20  21
ATOM     21  C   UNL     1      -1.480   4.304  25.358  0.00  0.00    +0.186 C 
ATOM     22  O   UNL     1      -1.557   5.125  25.365  0.00  0.00    -0.220 OA
ENDBRANCH  20  21
ENDBRANCH  13  14
ENDBRANCH  12  13
TORSDOF 6
ENDMDL
MODEL 2
REMARK VINA RESULT:     -11.4      1.934      5.516
REMARK  Name = 
REMARK  6 active torsions:
REMARK  status: ('A' for Active; 'I' for Inactive)
REMARK    1  A    between atoms: O_2  and  C_3
REMARK    2  A    between atoms: C_6  and  C_9
REMARK    3  A    between atoms: C_12  and  C_13
REMARK    4  A    between atoms: C_13  and  C_14
REMARK    5  A    between atoms: C_16  and  C_17
REMARK    6  A    between atoms: C_20  and  C_21
REMARK                            x       y       z     vdW  Elec       q    Type
REMARK                         _______ _______ _______ _____ _____    ______ ____
ROOT
ATOM      9  C   UNL     1      -0.606   1.192  24.792  0.00  0.00    +0.250 A 
ATOM     10  N   UNL     1      -0.198   0.796  24.195  0.00  0.00    -0.107 NA
ATOM     11  N   UNL     1      -0.305  -0.015  24.306  0.00  0.00    -0.111 NA
ATOM     12  C   UNL     1      -0.780  -0.120  24.972  0.00  0.00    +0.227 A 
ATOM     26  O   UNL     1      -0.966   0.625  25.273  0.00  0.00    -0.420 OA
ENDROOT
BRANCH   9   6
ATOM      3  C   UNL     1      -0.731   3.645  25.092  0.00  0.00    +0.139 A 
ATOM      4  C   UNL     1      -0.950   3.305  24.373  0.00  0.00    +0.037 A 
ATOM      5  C   UNL     1      -0.908   2.488  24.273  0.00  0.00    +0.008 A 
ATOM      6  C   UNL     1      -0.648   2.010  24.892  0.00  0.00    +0.055 A 
ATOM      7  C   UNL     1      -0.428   2.348  25.612  0.00  0.00    +0.008 A 
ATOM      8  C   UNL     1      -0.470   3.166  25.712  0.00  0.00    +0.037 A 
BRANCH   3   2
ATOM      1  C   UNL     1      -1.507   4.838  25.217  0.00  0.00    +0.252 C 
ATOM      2  O   UNL     1      -0.772   4.463  25.192  0.00  0.00    -0.471 OA
ENDBRANCH   3   2
ENDBRANCH   9   6
BRANCH  12  13
ATOM     13  C   UNL     1      -1.025  -0.843  25.283  0.00  0.00    +0.091 C 
BRANCH  13  14
ATOM     14  C   UNL     1      -1.734  -1.182  25.031  0.00  0.00    +0.027 C 
ATOM     15  C   UNL     1      -2.417  -0.722  24.983  0.00  0.00    +0.005 C 
ATOM     16  C   UNL     1      -3.126  -1.061  24.730  0.00  0.00    +0.007 C 
ATOM     20  C   UNL     1      -3.151  -1.860  24.527  0.00  0.00    +0.054 C 
ATOM     23  C   UNL     1      -2.468  -2.320  24.576  0.00  0.00    -0.032 C 
ATOM     24  C   UNL     1      -1.760  -1.981  24.828  0.00  0.00    -0.048 C 
ATOM     25  C   UNL     1      -1.077  -2.441  24.876  0.00  0.00    +0.026 C 
BRANCH  16  17
ATOM     17  C   UNL     1      -3.809  -0.600  24.682  0.00  0.00    +0.000 C 
ATOM     18  C   UNL     1      -4.238  -0.427  25.365  0.00  0.00    +0.000 C 
ATOM     19  C   UNL     1      -4.062  -0.314  23.951  0.00  0.00    +0.000 C 
ENDBRANCH  16  17
BRANCH  20  21
ATOM     21  C   UNL     1      -3.860  -2.199  24.275  0.00  0.00    +0.186 C 
ATOM     22  O   UNL     1      -3.902  -3.011  24.131  0.00  0.00    -0.220 OA
ENDBRANCH  20  21
ENDBRANCH  13  14
ENDBRANCH  12  13
TORSDOF 6
ENDMDL
MODEL 3
REMARK VINA RESULT:     -11.3      1.255      4.917
REMARK  Name = 
REMARK  6 active torsions:
REMARK  status: ('A' for Active; 'I' for Inactive)
REMARK    1  A    between atoms: O_2  and  C_3
REMARK    2  A    between atoms: C_6  and  C_9
REMARK    3  A    between atoms: C_12  and  C_13
REMARK    4  A    between atoms: C_13  and  C_14
REMARK    5  A    between atoms: C_16  and  C_17
REMARK    6  A    between atoms: C_20  and  C_21
REMARK                            x       y       z     vdW  Elec       q    Type
REMARK                         _______ _______ _______ _____ _____    ______ ____
ROOT
ATOM      9  C   UNL     1      -3.220   2.117  24.579  0.00  0.00    +0.250 A 
ATOM     10  N   UNL     1      -3.512   1.960  23.823  0.00  0.00    -0.107 NA
ATOM     11  N   UNL     1      -3.819   1.194  23.822  0.00  0.00    -0.111 NA
ATOM     12  C   UNL     1      -3.717   0.878  24.577  0.00  0.00    +0.227 A 
ATOM     26  O   UNL     1      -3.347   1.448  25.045  0.00  0.00    -0.420 OA
ENDROOT
BRANCH   9   6
ATOM      3  C   UNL     1      -2.152   4.224  25.319  0.00  0.00    +0.139 A 
ATOM      4  C   UNL     1      -1.702   3.640  24.948  0.00  0.00    +0.037 A 
ATOM      5  C   UNL     1      -2.058   2.938  24.701  0.00  0.00    +0.008 A 
ATOM      6  C   UNL     1      -2.864   2.819  24.825  0.00  0.00    +0.055 A 
ATOM      7  C   UNL     1      -3.316   3.402  25.197  0.00  0.00    +0.008 A 
ATOM      8  C   UNL     1      -2.959   4.104  25.443  0.00  0.00    +0.037 A 
BRANCH   3   2
ATOM      1  C   UNL     1      -1.278   5.324  25.062  0.00  0.00    +0.252 C 
ATOM      2  O   UNL     1      -1.796   4.926  25.565  0.00  0.00    -0.471 OA
ENDBRANCH   3   2
ENDBRANCH   9   6
BRANCH  12  13
ATOM     13  C   UNL     1      -3.946   0.124  24.822  0.00  0.00    +0.091 C 
BRANCH  13  14
ATOM     14  C   UNL     1      -3.419  -0.507  24.758  0.00  0.00    +0.027 C 
ATOM     15  C   UNL     1      -2.640  -0.423  25.016  0.00  0.00    +0.005 C 
ATOM     16  C   UNL     1      -2.113  -1.055  24.952  0.00  0.00    +0.007 C 
ATOM     20  C   UNL     1      -2.366  -1.771  24.631  0.00  0.00    +0.054 C 
ATOM     23  C   UNL     1      -3.145  -1.856  24.374  0.00  0.00    -0.032 C 
ATOM     24  C   UNL     1      -3.671  -1.225  24.437  0.00  0.00    -0.048 C 
ATOM     25  C   UNL     1      -4.450  -1.310  24.180  0.00  0.00    +0.026 C 
BRANCH  16  17
ATOM     17  C   UNL     1      -1.333  -0.969  25.210  0.00  0.00    +0.000 C 
ATOM     18  C   UNL     1      -0.736  -0.802  24.666  0.00  0.00    +0.000 C 
ATOM     19  C   UNL     1      -1.153  -1.051  26.010  0.00  0.00    +0.000 C 
ENDBRANCH  16  17
BRANCH  20  21
ATOM     21  C   UNL     1      -1.839  -2.403  24.568  0.00  0.00    +0.186 C 
ATOM     22  O   UNL     1      -2.075  -3.102  24.197  0.00  0.00    -0.220 OA
ENDBRANCH  20  21
ENDBRANCH  13  14
ENDBRANCH  12  13
TORSDOF 6
ENDMDL
MODEL 4
REMARK VINA RESULT:     -11.2      1.471      2.317
REMARK  Name = 
REMARK  6 active torsions:
REMARK  status: ('A' for Active; 'I' for Inactive)
REMARK    1  A    between atoms: O_2  and  C_3
REMARK    2  A    between atoms: C_6  and  C_9
REMARK    3  A    between atoms: C_12  and  C_13
REMARK    4  A    between atoms: C_13  and  C_14
REMARK    5  A    between atoms: C_16  and  C_17
REMARK    6  A    between atoms: C_20  and  C_21
REMARK                            x       y       z     vdW  Elec       q    Type
REMARK                         _______ _______ _______ _____ _____    ______ ____
ROOT
ATOM      9  C   UNL     1      -1.807   0.013  24.793  0.00  0.00    +0.250 A 
ATOM     10  N   UNL     1      -1.247   0.235  24.230  0.00  0.00    -0.107 NA
ATOM     11  N   UNL     1      -0.830   0.883  24.527  0.00  0.00    -0.111 NA
ATOM     12  C   UNL     1      -1.132   1.060  25.274  0.00  0.00    +0.227 A 
ATOM     26  O   UNL     1      -1.737   0.522  25.438  0.00  0.00    -0.420 OA
ENDROOT
BRANCH   9   6
ATOM      3  C   UNL     1      -3.417  -1.856  24.585  0.00  0.00    +0.139 A 
ATOM      4  C   UNL     1      -2.628  -2.009  24.771  0.00  0.00    +0.037 A 
ATOM      5  C   UNL     1      -2.092  -1.386  24.840  0.00  0.00    +0.008 A 
ATOM      6  C   UNL     1      -2.344  -0.610  24.724  0.00  0.00    +0.055 A 
ATOM      7  C   UNL     1      -3.133  -0.456  24.537  0.00  0.00    +0.008 A 
ATOM      8  C   UNL     1      -3.669  -1.078  24.468  0.00  0.00    +0.037 A 
BRANCH   3   2
ATOM      1  C   UNL     1      -4.317  -2.631  23.790  0.00  0.00    +0.252 C 
ATOM      2  O   UNL     1      -3.954  -2.479  24.515  0.00  0.00    -0.471 OA
ENDBRANCH   3   2
ENDBRANCH   9   6
BRANCH  12  13
ATOM     13  C   UNL     1      -0.876   1.668  25.769  0.00  0.00    +0.091 C 
BRANCH  13  14
ATOM     14  C   UNL     1      -1.107   2.445  25.621  0.00  0.00    +0.027 C 
ATOM     15  C   UNL     1      -1.904   2.626  25.512  0.00  0.00    +0.005 C 
ATOM     16  C   UNL     1      -2.135   3.404  25.364  0.00  0.00    +0.007 C 
ATOM     20  C   UNL     1      -1.568   4.002  25.325  0.00  0.00    +0.054 C 
ATOM     23  C   UNL     1      -0.771   3.822  25.434  0.00  0.00    -0.032 C 
ATOM     24  C   UNL     1      -0.540   3.044  25.582  0.00  0.00    -0.048 C 
ATOM     25  C   UNL     1       0.257   2.864  25.691  0.00  0.00    +0.026 C 
BRANCH  16  17
ATOM     17  C   UNL     1      -2.934   3.584  25.255  0.00  0.00    +0.000 C 
ATOM     18  C   UNL     1      -3.402   3.788  25.903  0.00  0.00    +0.000 C 
ATOM     19  C   UNL     1      -3.262   3.560  24.499  0.00  0.00    +0.000 C 
ENDBRANCH  16  17
BRANCH  20  21
ATOM     21  C   UNL     1      -1.799   4.781  25.177  0.00  0.00    +0.186 C 
ATOM     22  O   UNL     1      -1.230   5.375  25.113  0.00  0.00    -0.220 OA
ENDBRANCH  20  21
ENDBRANCH  13  14
ENDBRANCH  12  13
TORSDOF 6
ENDMDL
MODEL 5
REMARK VINA RESULT:     -10.7      2.083      2.908
REMARK  Name = 
REMARK  6 active torsions:
REMARK  status: ('A' for Active; 'I' for Inactive)
REMARK    1  A    between atoms: O_2  and  C_3
REMARK    2  A    between atoms: C_6  and  C_9
REMARK    3  A    between atoms: C_12  and  C_13
REMARK    4  A    between atoms: C_13  and  C_14
REMARK    5  A    between atoms: C_16  and  C_17
REMARK    6  A    between atoms: C_20  and  C_21
REMARK                            x       y       z     vdW  Elec       q    Type
REMARK                         _______ _______ _______ _____ _____    ______ ____
ROOT
ATOM      9  C   UNL     1      -2.860  -0.093  24.860  0.00  0.00    +0.250 A 
ATOM     10  N   UNL     1      -3.267  -0.371  25.522  0.00  0.00    -0.107 NA
ATOM     11  N   UNL     1      -4.030  -0.058  25.503  0.00  0.00    -0.111 NA
ATOM     12  C   UNL     1      -4.095   0.414  24.829  0.00  0.00    +0.227 A 
ATOM     26  O   UNL     1      -3.372   0.392  24.431  0.00  0.00    -0.420 OA
ENDROOT
BRANCH   9   6
ATOM      3  C   UNL     1      -0.517  -0.621  24.263  0.00  0.00    +0.139 A 
ATOM      4  C   UNL     1      -1.042  -1.229  24.453  0.00  0.00    +0.037 A 
ATOM      5  C   UNL     1      -1.823  -1.053  24.652  0.00  0.00    +0.008 A 
ATOM      6  C   UNL     1      -2.079  -0.269  24.661  0.00  0.00    +0.055 A 
ATOM      7  C   UNL     1      -1.555   0.339  24.472  0.00  0.00    +0.008 A 
ATOM      8  C   UNL     1      -0.774   0.163  24.273  0.00  0.00    +0.037 A 
BRANCH   3   2
ATOM      1  C   UNL     1       0.649  -0.361  23.479  0.00  0.00    +0.252 C 
ATOM      2  O   UNL     1       0.264  -0.797  24.065  0.00  0.00    -0.471 OA
ENDBRANCH   3   2
ENDBRANCH   9   6
BRANCH  12  13
ATOM     13  C   UNL     1      -4.765   0.833  24.593  0.00  0.00    +0.091 C 
BRANCH  13  14
ATOM     14  C   UNL     1      -4.874   1.611  24.842  0.00  0.00    +0.027 C 
ATOM     15  C   UNL     1      -4.252   2.151  24.791  0.00  0.00    +0.005 C 
ATOM     16  C   UNL     1      -4.360   2.931  25.040  0.00  0.00    +0.007 C 
ATOM     20  C   UNL     1      -5.091   3.170  25.340  0.00  0.00    +0.054 C 
ATOM     23  C   UNL     1      -5.712   2.630  25.391  0.00  0.00    -0.032 C 
ATOM     24  C   UNL     1      -5.604   1.851  25.142  0.00  0.00    -0.048 C 
ATOM     25  C   UNL     1      -6.226   1.312  25.193  0.00  0.00    +0.026 C 
BRANCH  16  17
ATOM     17  C   UNL     1      -3.738   3.470  24.988  0.00  0.00    +0.000 C 
ATOM     18  C   UNL     1      -3.591   3.863  24.278  0.00  0.00    +0.000 C 
ATOM     19  C   UNL     1      -3.264   3.617  25.647  0.00  0.00    +0.000 C 
ENDBRANCH  16  17
BRANCH  20  21
ATOM     21  C   UNL     1      -5.199   3.949  25.589  0.00  0.00    +0.186 C 
ATOM     22  O   UNL     1      -5.955   4.220  25.780  0.00  0.00    -0.220 OA
ENDBRANCH  20  21
ENDBRANCH  13  14
ENDBRANCH  12  13
TORSDOF 6
ENDMDL
MODEL 6
REMARK VINA RESULT:     -10.6      1.851      5.023
REMARK  Name = 
REMARK  6 active torsions:
REMARK  status: ('A' for Active; 'I' for Inactive)
REMARK    1  A    between atoms: O_2  and  C_3
REMARK    2  A    between atoms: C_6  and  C_9
REMARK    3  A    between atoms: C_12  and  C_13
REMARK    4  A    between atoms: C_13  and  C_14
REMARK    5  A    between atoms: C_16  and  C_17
REMARK    6  A    between atoms: C_20  and  C_21
REMARK                            x       y       z     vdW  Elec       q    Type
REMARK                         _______ _______ _______ _____ _____    ______ ____
ROOT
ATOM      9  C   UNL     1      -2.544   2.071  24.625  0.00  0.00    +0.250 A 
ATOM     10  N   UNL     1      -2.113   2.066  23.923  0.00  0.00    -0.107 NA
ATOM     11  N   UNL     1      -1.562   1.452  23.965  0.00  0.00    -0.111 NA
ATOM     12  C   UNL     1      -1.654   1.078  24.695  0.00  0.00    +0.227 A 
ATOM     26  O   UNL     1      -2.260   1.461  25.103  0.00  0.00    -0.420 OA
ENDROOT
BRANCH   9   6
ATOM      3  C   UNL     1      -4.368   3.641  25.202  0.00  0.00    +0.139 A 
ATOM      4  C   UNL     1      -4.500   3.038  24.655  0.00  0.00    +0.037 A 
ATOM      5  C   UNL     1      -3.892   2.515  24.463  0.00  0.00    +0.008 A 
ATOM      6  C   UNL     1      -3.152   2.595  24.818  0.00  0.00    +0.055 A 
ATOM      7  C   UNL     1      -3.019   3.197  25.365  0.00  0.00    +0.008 A 
ATOM      8  C   UNL     1      -3.627   3.721  25.557  0.00  0.00    +0.037 A 
BRANCH   3   2
ATOM      1  C   UNL     1      -5.704   3.874  25.652  0.00  0.00    +0.252 C 
ATOM      2  O   UNL     1      -4.976   4.165  25.394  0.00  0.00    -0.471 OA
ENDBRANCH   3   2
ENDBRANCH   9   6
BRANCH  12  13
ATOM     13  C   UNL     1      -1.216   0.435  24.968  0.00  0.00    +0.091 C 
BRANCH  13  14
ATOM     14  C   UNL     1      -1.490  -0.333  24.846  0.00  0.00    +0.027 C 
ATOM     15  C   UNL     1      -2.280  -0.517  24.992  0.00  0.00    +0.005 C 
ATOM     16  C   UNL     1      -2.554  -1.286  24.870  0.00  0.00    +0.007 C 
ATOM     20  C   UNL     1      -2.037  -1.870  24.601  0.00  0.00    +0.054 C 
ATOM     23  C   UNL     1      -1.247  -1.685  24.454  0.00  0.00    -0.032 C 
ATOM     24  C   UNL     1      -0.973  -0.917  24.577  0.00  0.00    -0.048 C 
ATOM     25  C   UNL     1      -0.183  -0.733  24.430  0.00  0.00    +0.026 C 
BRANCH  16  17
ATOM     17  C   UNL     1      -3.346  -1.470  25.017  0.00  0.00    +0.000 C 
ATOM     18  C   UNL     1      -3.588  -1.666  25.780  0.00  0.00    +0.000 C 
ATOM     19  C   UNL     1      -3.893  -1.458  24.400  0.00  0.00    +0.000 C 
ENDBRANCH  16  17
BRANCH  20  21
ATOM     21  C   UNL     1      -2.312  -2.639  24.478  0.00  0.00    +0.186 C 
ATOM     22  O   UNL     1      -1.827  -3.196  24.109  0.00  0.00    -0.220 OA
ENDBRANCH  20  21
ENDBRANCH  13  14
ENDBRANCH  12  13
TORSDOF 6
ENDMDL
MODEL 7
REMARK VINA RESULT:     -10.5      1.609      2.613
REMARK  Name = 
REMARK  6 active torsions:
REMARK  status: ('A' for Active; 'I' for Inactive)
REMARK    1  A    between atoms: O_2  and  C_3
REMARK    2  A    between atoms: C_6  and  C_9
REMARK    3  A    between atoms: C_12  and  C_13
REMARK    4  A    between atoms: C_13  and  C_14
REMARK    5  A    between atoms: C_16  and  C_17
REMARK    6  A    between atoms: C_20  and  C_21
REMARK                            x       y       z     vdW  Elec       q    Type
REMARK                         _______ _______ _______ _____ _____    ______ ____
ROOT
ATOM      9  C   UNL     1      -2.697   0.228  24.888  0.00  0.00    +0.250 A 
ATOM     10  N   UNL     1      -2.105   0.648  25.279  0.00  0.00    -0.107 NA
ATOM     11  N   UNL     1      -2.200   1.448  25.103  0.00  0.00    -0.111 NA
ATOM     12  C   UNL     1      -2.852   1.523  24.602  0.00  0.00    +0.227 A 
ATOM     26  O   UNL     1      -3.159   0.769  24.469  0.00  0.00    -0.420 OA
ENDROOT
BRANCH   9   6
ATOM      3  C   UNL     1      -3.031  -2.224  24.956  0.00  0.00    +0.139 A 
ATOM      4  C   UNL     1      -2.416  -1.903  24.511  0.00  0.00    +0.037 A 
ATOM      5  C   UNL     1      -2.304  -1.086  24.488  0.00  0.00    +0.008 A 
ATOM      6  C   UNL     1      -2.809  -0.589  24.911  0.00  0.00    +0.055 A 
ATOM      7  C   UNL     1      -3.425  -0.909  25.356  0.00  0.00    +0.008 A 
ATOM      8  C   UNL     1      -3.536  -1.726  25.379  0.00  0.00    +0.037 A 
BRANCH   3   2
ATOM      1  C   UNL     1      -3.577  -3.414  24.385  0.00  0.00    +0.252 C 
ATOM      2  O   UNL     1      -3.143  -3.041  24.979  0.00  0.00    -0.471 OA
ENDBRANCH   3   2
ENDBRANCH   9   6
BRANCH  12  13
ATOM     13  C   UNL     1      -3.145   2.228  24.289  0.00  0.00    +0.091 C 
BRANCH  13  14
ATOM     14  C   UNL     1      -3.799   2.592  24.635  0.00  0.00    +0.027 C 
ATOM     15  C   UNL     1      -4.470   2.149  24.816  0.00  0.00    +0.005 C 
ATOM     16  C   UNL     1      -5.125   2.514  25.162  0.00  0.00    +0.007 C 
ATOM     20  C   UNL     1      -5.107   3.322  25.325  0.00  0.00    +0.054 C 
ATOM     23  C   UNL     1      -4.436   3.765  25.144  0.00  0.00    -0.032 C 
ATOM     24  C   UNL     1      -3.782   3.401  24.799  0.00  0.00    -0.048 C 
ATOM     25  C   UNL     1      -3.110   3.844  24.617  0.00  0.00    +0.026 C 
BRANCH  16  17
ATOM     17  C   UNL     1      -5.797   2.070  25.343  0.00  0.00    +0.000 C 
ATOM     18  C   UNL     1      -6.337   1.879  24.750  0.00  0.00    +0.000 C 
ATOM     19  C   UNL     1      -5.927   1.817  26.117  0.00  0.00    +0.000 C 
ENDBRANCH  16  17
BRANCH  20  21
ATOM     21  C   UNL     1      -5.762   3.687  25.671  0.00  0.00    +0.186 C 
ATOM     22  O   UNL     1      -5.793   4.510  25.730  0.00  0.00    -0.220 OA
ENDBRANCH  20  21
ENDBRANCH  13  14
ENDBRANCH  12  13
TORSDOF 6
ENDMDL
