REMARK  Name = 
REMARK  8 active torsions:
REMARK  status: ('A' for Active; 'I' for Inactive)
REMARK    1  A    between atoms: C_2  and  C_3
REMARK    2  A    between atoms: C_3  and  C_4
REMARK    3  A    between atoms: C_3  and  C_6
REMARK    4  A    between atoms: N_8  and  C_9
REMARK    5  A    between atoms: C_9  and  C_10
REMARK    6  A    between atoms: C_17  and  C_18
REMARK    7  A    between atoms: C_20  and  C_25
REMARK    8  A    between atoms: C_28  and  N_31
REMARK                            x       y       z     vdW  Elec       q    Type
REMARK                         _______ _______ _______ _____ _____    ______ ____
ROOT
ATOM     10  C   UNL     1       1.814  -2.106   0.000  0.00  0.00    +0.079 C 
ATOM     11  C   UNL     1       1.661  -1.343   0.000  0.00  0.00    +0.018 C 
ATOM     12  C   UNL     1       0.923  -1.010   0.000  0.00  0.00    +0.010 C 
ATOM     13  C   UNL     1       0.961  -0.114   0.000  0.00  0.00    +0.018 C 
ATOM     14  C   UNL     1       1.205  -0.720   0.000  0.00  0.00    +0.072 C 
ATOM     15  N   UNL     1       1.065  -1.759   0.000  0.00  0.00    -0.272 NA
ATOM     16  C   UNL     1       0.226  -2.118   0.000  0.00  0.00    +0.078 C 
ATOM     17  C   UNL     1       0.119  -1.362   0.000  0.00  0.00    +0.056 C 
ENDROOT
BRANCH  17  18
ATOM     18  C   UNL     1      -0.602  -0.960   0.000  0.00  0.00    +0.063 A 
ATOM     19  C   UNL     1      -1.310  -1.384   0.000  0.00  0.00    +0.034 A 
ATOM     20  C   UNL     1      -2.030  -0.982   0.000  0.00  0.00    +0.084 A 
ATOM     21  N   UNL     1      -2.043  -0.157   0.000  0.00  0.00    -0.231 NA
ATOM     22  C   UNL     1      -1.335   0.266   0.000  0.00  0.00    +0.139 A 
ATOM     23  C   UNL     1      -1.347   1.091   0.000  0.00  0.00    +0.074 C 
ATOM     24  N   UNL     1      -0.614  -0.136   0.000  0.00  0.00    -0.235 NA
BRANCH  20  25
ATOM     25  C   UNL     1      -2.739  -1.405   0.000  0.00  0.00    +0.018 A 
ATOM     26  C   UNL     1      -2.726  -2.230   0.000  0.00  0.00    +0.003 A 
ATOM     27  C   UNL     1      -3.434  -2.653   0.000  0.00  0.00    +0.015 A 
ATOM     28  C   UNL     1      -4.155  -2.251   0.000  0.00  0.00    +0.048 A 
ATOM     29  C   UNL     1      -4.167  -1.427   0.000  0.00  0.00    +0.015 A 
ATOM     30  C   UNL     1      -3.459  -1.003   0.000  0.00  0.00    +0.003 A 
BRANCH  28  31
ATOM     31  N   UNL     1      -4.863  -2.675   0.000  0.00  0.00    -0.304 N 
ATOM     32  C   UNL     1      -5.584  -2.273   0.000  0.00  0.00    +0.112 C 
ATOM     33  C   UNL     1      -4.851  -3.499   0.000  0.00  0.00    +0.112 C 
ENDBRANCH  28  31
ENDBRANCH  20  25
ENDBRANCH  17  18
BRANCH  10   9
ATOM      9  C   UNL     1       2.324  -2.754   0.000  0.00  0.00    +0.131 C 
BRANCH   9   8
ATOM      6  C   UNL     1       2.529  -4.168   0.000  0.00  0.00    +0.241 C 
ATOM      7  O   UNL     1       3.345  -4.050   0.000  0.00  0.00    -0.273 OA
ATOM      8  N   UNL     1       2.018  -3.520   0.000  0.00  0.00    -0.204 NA
BRANCH   6   3
ATOM      3  C   UNL     1       2.223  -4.934   0.000  0.00  0.00    +0.078 C 
BRANCH   3   2
ATOM      1  C   UNL     1       2.427  -6.348   0.000  0.00  0.00    +0.001 C 
ATOM      2  C   UNL     1       2.733  -5.582   0.000  0.00  0.00    +0.009 C 
ENDBRANCH   3   2
BRANCH   3   4
ATOM      4  C   UNL     1       1.406  -5.052   0.000  0.00  0.00    +0.009 C 
ATOM      5  C   UNL     1       0.896  -4.404   0.000  0.00  0.00    +0.001 C 
ENDBRANCH   3   4
ENDBRANCH   6   3
ENDBRANCH   9   8
ENDBRANCH  10   9
TORSDOF 8
