REMARK  Name = 
REMARK  8 active torsions:
REMARK  status: ('A' for Active; 'I' for Inactive)
REMARK    1  A    between atoms: C_5  and  C_6
REMARK    2  A    between atoms: C_6  and  C_7
REMARK    3  A    between atoms: C_10  and  C_11
REMARK    4  A    between atoms: C_11  and  O_12
REMARK    5  A    between atoms: O_12  and  C_13
REMARK    6  A    between atoms: C_21  and  C_22
REMARK    7  A    between atoms: C_22  and  N_23
REMARK    8  A    between atoms: N_26  and  C_27
REMARK                            x       y       z     vdW  Elec       q    Type
REMARK                         _______ _______ _______ _____ _____    ______ ____
ROOT
ATOM      1  O   UNL     1       3.572  -3.712   0.000  0.00  0.00    -0.220 OA
ATOM      2  C   UNL     1       2.858  -4.125   0.000  0.00  0.00    +0.181 C 
ATOM      3  C   UNL     1       2.858  -4.950   0.000  0.00  0.00    +0.038 C 
ATOM      4  C   UNL     1       2.143  -5.362   0.000  0.00  0.00    +0.033 C 
ATOM      5  C   UNL     1       1.429  -4.950   0.000  0.00  0.00    +0.121 C 
ATOM     20  O   UNL     1       1.429  -4.125   0.000  0.00  0.00    -0.354 OA
ATOM     21  C   UNL     1       2.143  -3.712   0.000  0.00  0.00    +0.167 C 
ENDROOT
BRANCH   5   6
ATOM      6  C   UNL     1       0.715  -5.362   0.000  0.00  0.00    +0.079 C 
BRANCH   6   7
ATOM      7  C   UNL     1       0.715  -6.188   0.000  0.00  0.00    +0.103 A 
ATOM      8  N   UNL     1       1.382  -6.672   0.000  0.00  0.00    -0.082 NA
ATOM      9  O   UNL     1       1.127  -7.457   0.000  0.00  0.00    -0.354 OA
ATOM     10  C   UNL     1       0.302  -7.457   0.000  0.00  0.00    +0.198 A 
ATOM     19  C   UNL     1       0.047  -6.672   0.000  0.00  0.00    +0.057 A 
BRANCH  10  11
ATOM     11  C   UNL     1      -0.183  -8.124   0.000  0.00  0.00    +0.272 C 
BRANCH  11  12
ATOM     12  O   UNL     1       0.153  -8.878   0.000  0.00  0.00    -0.467 OA
BRANCH  12  13
ATOM     13  C   UNL     1      -0.332  -9.546   0.000  0.00  0.00    +0.139 A 
ATOM     14  C   UNL     1       0.003 -10.299   0.000  0.00  0.00    +0.037 A 
ATOM     15  C   UNL     1      -0.482 -10.967   0.000  0.00  0.00    +0.003 A 
ATOM     16  C   UNL     1      -1.302 -10.880   0.000  0.00  0.00    +0.000 A 
ATOM     17  C   UNL     1      -1.638 -10.127   0.000  0.00  0.00    +0.003 A 
ATOM     18  C   UNL     1      -1.153  -9.459   0.000  0.00  0.00    +0.037 A 
ENDBRANCH  12  13
ENDBRANCH  11  12
ENDBRANCH  10  11
ENDBRANCH   6   7
ENDBRANCH   5   6
BRANCH  21  22
ATOM     22  C   UNL     1       2.143  -2.888   0.000  0.00  0.00    +0.149 C 
BRANCH  22  23
ATOM     23  N   UNL     1       1.429  -2.475   0.000  0.00  0.00    -0.184 NA
ATOM     24  C   UNL     1       1.429  -1.650   0.000  0.00  0.00    +0.344 C 
ATOM     25  O   UNL     1       2.143  -1.238   0.000  0.00  0.00    -0.249 OA
ATOM     26  N   UNL     1       0.715  -1.238   0.000  0.00  0.00    -0.161 NA
BRANCH  26  27
ATOM     27  C   UNL     1       0.715  -0.412   0.000  0.00  0.00    +0.077 A 
ATOM     28  C   UNL     1       0.000   0.000   0.000  0.00  0.00    +0.017 A 
ATOM     29  C   UNL     1       0.000   0.825   0.000  0.00  0.00    +0.004 A 
ATOM     30  C   UNL     1       0.715   1.238   0.000  0.00  0.00    +0.030 A 
ATOM     31  C   UNL     1       1.429   0.825   0.000  0.00  0.00    +0.141 A 
ATOM     32  F   UNL     1       2.143   1.238   0.000  0.00  0.00    -0.204 F 
ATOM     33  C   UNL     1       1.429   0.000   0.000  0.00  0.00    +0.046 A 
ENDBRANCH  26  27
ENDBRANCH  22  23
ENDBRANCH  21  22
TORSDOF 8
