MODEL 1
REMARK VINA RESULT:     -13.6      0.000      0.000
REMARK  Name = 
REMARK  7 active torsions:
REMARK  status: ('A' for Active; 'I' for Inactive)
REMARK    1  A    between atoms: C_2  and  C_3
REMARK    2  A    between atoms: C_3  and  C_4
REMARK    3  A    between atoms: C_9  and  C_10
REMARK    4  A    between atoms: C_10  and  C_11
REMARK    5  A    between atoms: C_14  and  C_16
REMARK    6  A    between atoms: N_22  and  C_23
REMARK    7  A    between atoms: C_23  and  C_24
REMARK                            x       y       z     vdW  Elec       q    Type
REMARK                         _______ _______ _______ _____ _____    ______ ____
ROOT
ATOM      4  C   UNL     1      -4.852   2.658  24.807  0.00  0.00    +0.012 C 
ATOM      5  C   UNL     1      -5.279   3.193  25.268  0.00  0.00    +0.019 C 
ATOM      6  C   UNL     1      -5.866   2.920  25.780  0.00  0.00    +0.089 C 
ATOM      7  N   UNL     1      -6.026   2.113  25.831  0.00  0.00    -0.218 NA
ATOM      8  C   UNL     1      -5.600   1.578  25.370  0.00  0.00    +0.089 C 
ATOM      9  C   UNL     1      -5.013   1.850  24.858  0.00  0.00    +0.024 C 
ENDROOT
BRANCH   4   3
ATOM      3  C   UNL     1      -4.265   2.931  24.296  0.00  0.00    +0.087 C 
BRANCH   3   2
ATOM      1  O   UNL     1      -3.981   4.291  24.626  0.00  0.00    -0.273 OA
ATOM      2  C   UNL     1      -3.733   3.508  24.548  0.00  0.00    +0.242 C 
ATOM     22  N   UNL     1      -2.954   3.302  24.723  0.00  0.00    -0.201 NA
BRANCH  22  23
ATOM     23  C   UNL     1      -2.422   3.879  24.976  0.00  0.00    +0.142 C 
BRANCH  23  24
ATOM     24  C   UNL     1      -1.654   3.666  25.194  0.00  0.00    +0.003 A 
ATOM     25  C   UNL     1      -1.007   4.013  24.818  0.00  0.00    +0.001 A 
ATOM     26  C   UNL     1      -0.241   3.800  25.036  0.00  0.00    +0.040 A 
ATOM     27  C   UNL     1      -0.121   3.239  25.629  0.00  0.00    +0.176 A 
ATOM     28  O   UNL     1       0.565   2.922  25.959  0.00  0.00    -0.435 OA
ATOM     29  C   UNL     1       0.342   2.378  26.537  0.00  0.00    +0.429 C 
ATOM     30  O   UNL     1      -0.482   2.359  26.565  0.00  0.00    -0.435 OA
ATOM     31  C   UNL     1      -0.768   2.892  26.005  0.00  0.00    +0.176 A 
ATOM     32  C   UNL     1      -1.535   3.105  25.787  0.00  0.00    +0.038 A 
ENDBRANCH  23  24
ENDBRANCH  22  23
ENDBRANCH   3   2
ENDBRANCH   4   3
BRANCH   9  10
ATOM     10  C   UNL     1      -4.586   1.315  24.398  0.00  0.00    +0.051 C 
BRANCH  10  11
ATOM     11  C   UNL     1      -4.381   0.578  24.706  0.00  0.00    +0.101 A 
ATOM     12  N   UNL     1      -4.244   0.405  25.500  0.00  0.00    -0.081 NA
ATOM     13  O   UNL     1      -4.055  -0.396  25.558  0.00  0.00    -0.354 OA
ATOM     14  C   UNL     1      -4.077  -0.719  24.800  0.00  0.00    +0.177 A 
ATOM     15  C   UNL     1      -4.278  -0.117  24.272  0.00  0.00    +0.058 A 
BRANCH  14  16
ATOM     16  C   UNL     1      -3.924  -1.505  24.602  0.00  0.00    +0.037 A 
ATOM     17  C   UNL     1      -4.259  -1.832  23.923  0.00  0.00    +0.003 A 
ATOM     18  C   UNL     1      -4.106  -2.618  23.726  0.00  0.00    +0.000 A 
ATOM     19  C   UNL     1      -3.618  -3.078  24.207  0.00  0.00    +0.000 A 
ATOM     20  C   UNL     1      -3.283  -2.751  24.885  0.00  0.00    +0.000 A 
ATOM     21  C   UNL     1      -3.436  -1.964  25.083  0.00  0.00    +0.003 A 
ENDBRANCH  14  16
ENDBRANCH  10  11
ENDBRANCH   9  10
TORSDOF 7
ENDMDL
MODEL 2
REMARK VINA RESULT:     -13.4      1.888      3.909
REMARK  Name = 
REMARK  7 active torsions:
REMARK  status: ('A' for Active; 'I' for Inactive)
REMARK    1  A    between atoms: C_2  and  C_3
REMARK    2  A    between atoms: C_3  and  C_4
REMARK    3  A    between atoms: C_9  and  C_10
REMARK    4  A    between atoms: C_10  and  C_11
REMARK    5  A    between atoms: C_14  and  C_16
REMARK    6  A    between atoms: N_22  and  C_23
REMARK    7  A    between atoms: C_23  and  C_24
REMARK                            x       y       z     vdW  Elec       q    Type
REMARK                         _______ _______ _______ _____ _____    ______ ____
ROOT
ATOM      4  C   UNL     1      -0.524   1.480  25.006  0.00  0.00    +0.012 C 
ATOM      5  C   UNL     1      -0.078   1.914  24.463  0.00  0.00    +0.019 C 
ATOM      6  C   UNL     1       0.338   1.523  23.867  0.00  0.00    +0.089 C 
ATOM      7  N   UNL     1       0.309   0.701  23.814  0.00  0.00    -0.218 NA
ATOM      8  C   UNL     1      -0.136   0.268  24.357  0.00  0.00    +0.089 C 
ATOM      9  C   UNL     1      -0.553   0.657  24.953  0.00  0.00    +0.024 C 
ENDROOT
BRANCH   4   3
ATOM      3  C   UNL     1      -0.940   1.871  25.602  0.00  0.00    +0.087 C 
BRANCH   3   2
ATOM      1  O   UNL     1      -1.029   3.252  25.247  0.00  0.00    -0.273 OA
ATOM      2  C   UNL     1      -1.396   2.534  25.421  0.00  0.00    +0.242 C 
ATOM     22  N   UNL     1      -2.219   2.478  25.413  0.00  0.00    -0.201 NA
BRANCH  22  23
ATOM     23  C   UNL     1      -2.675   3.141  25.232  0.00  0.00    +0.142 C 
BRANCH  23  24
ATOM     24  C   UNL     1      -3.499   3.100  25.273  0.00  0.00    +0.003 A 
ATOM     25  C   UNL     1      -3.925   3.704  25.639  0.00  0.00    +0.001 A 
ATOM     26  C   UNL     1      -4.747   3.662  25.680  0.00  0.00    +0.040 A 
ATOM     27  C   UNL     1      -5.144   3.016  25.355  0.00  0.00    +0.176 A 
ATOM     28  O   UNL     1      -5.945   2.825  25.311  0.00  0.00    -0.435 OA
ATOM     29  C   UNL     1      -6.014   2.103  24.918  0.00  0.00    +0.429 C 
ATOM     30  O   UNL     1      -5.256   1.848  24.719  0.00  0.00    -0.435 OA
ATOM     31  C   UNL     1      -4.718   2.412  24.988  0.00  0.00    +0.176 A 
ATOM     32  C   UNL     1      -3.895   2.454  24.947  0.00  0.00    +0.038 A 
ENDBRANCH  23  24
ENDBRANCH  22  23
ENDBRANCH   3   2
ENDBRANCH   4   3
BRANCH   9  10
ATOM     10  C   UNL     1      -0.998   0.225  25.496  0.00  0.00    +0.051 C 
BRANCH  10  11
ATOM     11  C   UNL     1      -1.341  -0.491  25.270  0.00  0.00    +0.101 A 
ATOM     12  N   UNL     1      -0.971  -1.228  25.273  0.00  0.00    -0.081 NA
ATOM     13  O   UNL     1      -1.516  -1.788  25.007  0.00  0.00    -0.354 OA
ATOM     14  C   UNL     1      -2.223  -1.396  24.840  0.00  0.00    +0.177 A 
ATOM     15  C   UNL     1      -2.115  -0.594  25.002  0.00  0.00    +0.058 A 
BRANCH  14  16
ATOM     16  C   UNL     1      -2.916  -1.745  24.559  0.00  0.00    +0.037 A 
ATOM     17  C   UNL     1      -2.997  -2.566  24.568  0.00  0.00    +0.003 A 
ATOM     18  C   UNL     1      -3.690  -2.915  24.288  0.00  0.00    +0.000 A 
ATOM     19  C   UNL     1      -4.302  -2.443  23.998  0.00  0.00    +0.000 A 
ATOM     20  C   UNL     1      -4.220  -1.623  23.989  0.00  0.00    +0.000 A 
ATOM     21  C   UNL     1      -3.527  -1.273  24.270  0.00  0.00    +0.003 A 
ENDBRANCH  14  16
ENDBRANCH  10  11
ENDBRANCH   9  10
TORSDOF 7
ENDMDL
MODEL 3
REMARK VINA RESULT:     -13.2      1.190      4.591
REMARK  Name = 
REMARK  7 active torsions:
REMARK  status: ('A' for Active; 'I' for Inactive)
REMARK    1  A    between atoms: C_2  and  C_3
REMARK    2  A    between atoms: C_3  and  C_4
REMARK    3  A    between atoms: C_9  and  C_10
REMARK    4  A    between atoms: C_10  and  C_11
REMARK    5  A    between atoms: C_14  and  C_16
REMARK    6  A    between atoms: N_22  and  C_23
REMARK    7  A    between atoms: C_23  and  C_24
REMARK                            x       y       z     vdW  Elec       q    Type
REMARK                         _______ _______ _______ _____ _____    ______ ____
ROOT
ATOM      4  C   UNL     1      -4.918   2.351  24.918  0.00  0.00    +0.012 C 
ATOM      5  C   UNL     1      -5.538   2.274  25.457  0.00  0.00    +0.019 C 
ATOM      6  C   UNL     1      -5.709   2.891  25.978  0.00  0.00    +0.089 C 
ATOM      7  N   UNL     1      -5.261   3.583  25.961  0.00  0.00    -0.218 NA
ATOM      8  C   UNL     1      -4.641   3.659  25.422  0.00  0.00    +0.089 C 
ATOM      9  C   UNL     1      -4.469   3.043  24.900  0.00  0.00    +0.024 C 
ENDROOT
BRANCH   4   3
ATOM      3  C   UNL     1      -4.747   1.735  24.397  0.00  0.00    +0.087 C 
BRANCH   3   2
ATOM      1  O   UNL     1      -5.660   0.755  24.896  0.00  0.00    -0.273 OA
ATOM      2  C   UNL     1      -4.912   0.955  24.611  0.00  0.00    +0.242 C 
ATOM     22  N   UNL     1      -4.329   0.376  24.540  0.00  0.00    -0.201 NA
BRANCH  22  23
ATOM     23  C   UNL     1      -4.494  -0.403  24.754  0.00  0.00    +0.142 C 
BRANCH  23  24
ATOM     24  C   UNL     1      -3.924  -0.991  24.643  0.00  0.00    +0.003 A 
ATOM     25  C   UNL     1      -4.125  -1.692  24.257  0.00  0.00    +0.001 A 
ATOM     26  C   UNL     1      -3.556  -2.278  24.146  0.00  0.00    +0.040 A 
ATOM     27  C   UNL     1      -2.787  -2.165  24.422  0.00  0.00    +0.176 A 
ATOM     28  O   UNL     1      -2.114  -2.641  24.393  0.00  0.00    -0.435 OA
ATOM     29  C   UNL     1      -1.498  -2.235  24.762  0.00  0.00    +0.429 C 
ATOM     30  O   UNL     1      -1.790  -1.508  25.018  0.00  0.00    -0.435 OA
ATOM     31  C   UNL     1      -2.586  -1.465  24.808  0.00  0.00    +0.176 A 
ATOM     32  C   UNL     1      -3.155  -0.877  24.919  0.00  0.00    +0.038 A 
ENDBRANCH  23  24
ENDBRANCH  22  23
ENDBRANCH   3   2
ENDBRANCH   4   3
BRANCH   9  10
ATOM     10  C   UNL     1      -3.850   3.119  24.362  0.00  0.00    +0.051 C 
BRANCH  10  11
ATOM     11  C   UNL     1      -3.097   3.328  24.626  0.00  0.00    +0.101 A 
ATOM     12  N   UNL     1      -2.828   4.095  24.766  0.00  0.00    -0.081 NA
ATOM     13  O   UNL     1      -2.045   4.049  25.024  0.00  0.00    -0.354 OA
ATOM     14  C   UNL     1      -1.830   3.252  25.043  0.00  0.00    +0.177 A 
ATOM     15  C   UNL     1      -2.480   2.807  24.797  0.00  0.00    +0.058 A 
BRANCH  14  16
ATOM     16  C   UNL     1      -1.095   2.953  25.268  0.00  0.00    +0.037 A 
ATOM     17  C   UNL     1      -0.876   2.954  26.064  0.00  0.00    +0.003 A 
ATOM     18  C   UNL     1      -0.141   2.655  26.289  0.00  0.00    +0.000 A 
ATOM     19  C   UNL     1       0.375   2.356  25.719  0.00  0.00    +0.000 A 
ATOM     20  C   UNL     1       0.156   2.355  24.924  0.00  0.00    +0.000 A 
ATOM     21  C   UNL     1      -0.580   2.654  24.698  0.00  0.00    +0.003 A 
ENDBRANCH  14  16
ENDBRANCH  10  11
ENDBRANCH   9  10
TORSDOF 7
ENDMDL
MODEL 4
REMARK VINA RESULT:     -13.0      1.571      5.015
REMARK  Name = 
REMARK  7 active torsions:
REMARK  status: ('A' for Active; 'I' for Inactive)
REMARK    1  A    between atoms: C_2  and  C_3
REMARK    2  A    between atoms: C_3  and  C_4
REMARK    3  A    between atoms: C_9  and  C_10
REMARK    4  A    between atoms: C_10  and  C_11
REMARK    5  A    between atoms: C_14  and  C_16
REMARK    6  A    between atoms: N_22  and  C_23
REMARK    7  A    between atoms: C_23  and  C_24
REMARK                            x       y       z     vdW  Elec       q    Type
REMARK                         _______ _______ _______ _____ _____    ______ ____
ROOT
ATOM      4  C   UNL     1      -0.678   2.117  24.890  0.00  0.00    +0.012 C 
ATOM      5  C   UNL     1      -0.090   2.030  25.463  0.00  0.00    +0.019 C 
ATOM      6  C   UNL     1       0.021   2.618  26.031  0.00  0.00    +0.089 C 
ATOM      7  N   UNL     1      -0.454   3.292  26.026  0.00  0.00    -0.218 NA
ATOM      8  C   UNL     1      -1.040   3.379  25.454  0.00  0.00    +0.089 C 
ATOM      9  C   UNL     1      -1.153   2.791  24.885  0.00  0.00    +0.024 C 
ENDROOT
BRANCH   4   3
ATOM      3  C   UNL     1      -0.789   1.529  24.322  0.00  0.00    +0.087 C 
BRANCH   3   2
ATOM      1  O   UNL     1       0.078   0.426  24.592  0.00  0.00    -0.273 OA
ATOM      2  C   UNL     1      -0.683   0.736  24.523  0.00  0.00    +0.242 C 
ATOM     22  N   UNL     1      -1.339   0.253  24.654  0.00  0.00    -0.201 NA
BRANCH  22  23
ATOM     23  C   UNL     1      -1.233  -0.540  24.854  0.00  0.00    +0.142 C 
BRANCH  23  24
ATOM     24  C   UNL     1      -1.889  -1.032  24.952  0.00  0.00    +0.003 A 
ATOM     25  C   UNL     1      -2.427  -0.886  25.560  0.00  0.00    +0.001 A 
ATOM     26  C   UNL     1      -3.082  -1.377  25.658  0.00  0.00    +0.040 A 
ATOM     27  C   UNL     1      -3.199  -2.016  25.149  0.00  0.00    +0.176 A 
ATOM     28  O   UNL     1      -3.788  -2.591  25.110  0.00  0.00    -0.435 OA
ATOM     29  C   UNL     1      -3.615  -3.093  24.479  0.00  0.00    +0.429 C 
ATOM     30  O   UNL     1      -2.918  -2.827  24.127  0.00  0.00    -0.435 OA
ATOM     31  C   UNL     1      -2.661  -2.162  24.541  0.00  0.00    +0.176 A 
ATOM     32  C   UNL     1      -2.005  -1.670  24.443  0.00  0.00    +0.038 A 
ENDBRANCH  23  24
ENDBRANCH  22  23
ENDBRANCH   3   2
ENDBRANCH   4   3
BRANCH   9  10
ATOM     10  C   UNL     1      -1.739   2.878  24.312  0.00  0.00    +0.051 C 
BRANCH  10  11
ATOM     11  C   UNL     1      -2.503   3.100  24.534  0.00  0.00    +0.101 A 
ATOM     12  N   UNL     1      -2.767   3.871  24.659  0.00  0.00    -0.081 NA
ATOM     13  O   UNL     1      -3.563   3.837  24.872  0.00  0.00    -0.354 OA
ATOM     14  C   UNL     1      -3.792   3.044  24.879  0.00  0.00    +0.177 A 
ATOM     15  C   UNL     1      -3.136   2.588  24.670  0.00  0.00    +0.058 A 
BRANCH  14  16
ATOM     16  C   UNL     1      -4.543   2.757  25.062  0.00  0.00    +0.037 A 
ATOM     17  C   UNL     1      -5.026   3.173  25.586  0.00  0.00    +0.003 A 
ATOM     18  C   UNL     1      -5.777   2.886  25.769  0.00  0.00    +0.000 A 
ATOM     19  C   UNL     1      -6.046   2.184  25.429  0.00  0.00    +0.000 A 
ATOM     20  C   UNL     1      -5.563   1.769  24.906  0.00  0.00    +0.000 A 
ATOM     21  C   UNL     1      -4.811   2.056  24.722  0.00  0.00    +0.003 A 
ENDBRANCH  14  16
ENDBRANCH  10  11
ENDBRANCH   9  10
TORSDOF 7
ENDMDL
MODEL 5
REMARK VINA RESULT:     -12.7      2.019      2.688
REMARK  Name = 
REMARK  7 active torsions:
REMARK  status: ('A' for Active; 'I' for Inactive)
REMARK    1  A    between atoms: C_2  and  C_3
REMARK    2  A    between atoms: C_3  and  C_4
REMARK    3  A    between atoms: C_9  and  C_10
REMARK    4  A    between atoms: C_10  and  C_11
REMARK    5  A    between atoms: C_14  and  C_16
REMARK    6  A    between atoms: N_22  and  C_23
REMARK    7  A    between atoms: C_23  and  C_24
REMARK                            x       y       z     vdW  Elec       q    Type
REMARK                         _______ _______ _______ _____ _____    ______ ____
ROOT
ATOM      4  C   UNL     1      -2.763   3.501  24.908  0.00  0.00    +0.012 C 
ATOM      5  C   UNL     1      -2.455   3.953  25.527  0.00  0.00    +0.019 C 
ATOM      6  C   UNL     1      -2.930   4.143  26.174  0.00  0.00    +0.089 C 
ATOM      7  N   UNL     1      -3.713   3.883  26.202  0.00  0.00    -0.218 NA
ATOM      8  C   UNL     1      -4.020   3.433  25.584  0.00  0.00    +0.089 C 
ATOM      9  C   UNL     1      -3.545   3.241  24.937  0.00  0.00    +0.024 C 
ENDROOT
BRANCH   4   3
ATOM      3  C   UNL     1      -2.287   3.311  24.262  0.00  0.00    +0.087 C 
BRANCH   3   2
ATOM      1  O   UNL     1      -0.935   3.556  24.651  0.00  0.00    -0.273 OA
ATOM      2  C   UNL     1      -1.518   3.039  24.381  0.00  0.00    +0.242 C 
ATOM     22  N   UNL     1      -1.332   2.250  24.229  0.00  0.00    -0.201 NA
BRANCH  22  23
ATOM     23  C   UNL     1      -0.562   1.978  24.348  0.00  0.00    +0.142 C 
BRANCH  23  24
ATOM     24  C   UNL     1      -0.394   1.172  24.281  0.00  0.00    +0.003 A 
ATOM     25  C   UNL     1      -0.019   0.884  23.604  0.00  0.00    +0.001 A 
ATOM     26  C   UNL     1       0.148   0.080  23.537  0.00  0.00    +0.040 A 
ATOM     27  C   UNL     1      -0.058  -0.438  24.146  0.00  0.00    +0.176 A 
ATOM     28  O   UNL     1       0.037  -1.251  24.235  0.00  0.00    -0.435 OA
ATOM     29  C   UNL     1      -0.279  -1.467  24.966  0.00  0.00    +0.429 C 
ATOM     30  O   UNL     1      -0.569  -0.786  25.329  0.00  0.00    -0.435 OA
ATOM     31  C   UNL     1      -0.432  -0.149  24.822  0.00  0.00    +0.176 A 
ATOM     32  C   UNL     1      -0.600   0.656  24.890  0.00  0.00    +0.038 A 
ENDBRANCH  23  24
ENDBRANCH  22  23
ENDBRANCH   3   2
ENDBRANCH   4   3
BRANCH   9  10
ATOM     10  C   UNL     1      -3.852   2.791  24.318  0.00  0.00    +0.051 C 
BRANCH  10  11
ATOM     11  C   UNL     1      -4.191   2.055  24.473  0.00  0.00    +0.101 A 
ATOM     12  N   UNL     1      -4.962   1.921  24.733  0.00  0.00    -0.081 NA
ATOM     13  O   UNL     1      -5.066   1.106  24.816  0.00  0.00    -0.354 OA
ATOM     14  C   UNL     1      -4.358   0.737  24.607  0.00  0.00    +0.177 A 
ATOM     15  C   UNL     1      -3.817   1.323  24.395  0.00  0.00    +0.058 A 
BRANCH  14  16
ATOM     16  C   UNL     1      -4.216  -0.076  24.609  0.00  0.00    +0.037 A 
ATOM     17  C   UNL     1      -4.088  -0.470  25.323  0.00  0.00    +0.003 A 
ATOM     18  C   UNL     1      -3.946  -1.282  25.325  0.00  0.00    +0.000 A 
ATOM     19  C   UNL     1      -3.932  -1.701  24.614  0.00  0.00    +0.000 A 
ATOM     20  C   UNL     1      -4.061  -1.307  23.901  0.00  0.00    +0.000 A 
ATOM     21  C   UNL     1      -4.203  -0.494  23.899  0.00  0.00    +0.003 A 
ENDBRANCH  14  16
ENDBRANCH  10  11
ENDBRANCH   9  10
TORSDOF 7
ENDMDL
MODEL 6
REMARK VINA RESULT:     -12.5      2.016      4.389
REMARK  Name = 
REMARK  7 active torsions:
REMARK  status: ('A' for Active; 'I' for Inactive)
REMARK    1  A    between atoms: C_2  and  C_3
REMARK    2  A    between atoms: C_3  and  C_4
REMARK    3  A    between atoms: C_9  and  C_10
REMARK    4  A    between atoms: C_10  and  C_11
REMARK    5  A    between atoms: C_14  and  C_16
REMARK    6  A    between atoms: N_22  and  C_23
REMARK    7  A    between atoms: C_23  and  C_24
REMARK                            x       y       z     vdW  Elec       q    Type
REMARK                         _______ _______ _______ _____ _____    ______ ____
ROOT
ATOM      4  C   UNL     1      -3.510   2.986  24.734  0.00  0.00    +0.012 C 
ATOM      5  C   UNL     1      -3.894   3.277  25.404  0.00  0.00    +0.019 C 
ATOM      6  C   UNL     1      -3.493   3.779  25.922  0.00  0.00    +0.089 C 
ATOM      7  N   UNL     1      -2.710   3.990  25.771  0.00  0.00    -0.218 NA
ATOM      8  C   UNL     1      -2.327   3.698  25.102  0.00  0.00    +0.089 C 
ATOM      9  C   UNL     1      -2.726   3.196  24.583  0.00  0.00    +0.024 C 
ENDROOT
BRANCH   4   3
ATOM      3  C   UNL     1      -3.910   2.484  24.216  0.00  0.00    +0.087 C 
BRANCH   3   2
ATOM      1  O   UNL     1      -5.139   2.051  24.801  0.00  0.00    -0.273 OA
ATOM      2  C   UNL     1      -4.385   1.879  24.512  0.00  0.00    +0.242 C 
ATOM     22  N   UNL     1      -4.108   1.102  24.519  0.00  0.00    -0.201 NA
BRANCH  22  23
ATOM     23  C   UNL     1      -4.583   0.497  24.815  0.00  0.00    +0.142 C 
BRANCH  23  24
ATOM     24  C   UNL     1      -4.278  -0.266  24.897  0.00  0.00    +0.003 A 
ATOM     25  C   UNL     1      -3.920  -0.492  25.605  0.00  0.00    +0.001 A 
ATOM     26  C   UNL     1      -3.615  -1.254  25.687  0.00  0.00    +0.040 A 
ATOM     27  C   UNL     1      -3.667  -1.790  25.062  0.00  0.00    +0.176 A 
ATOM     28  O   UNL     1      -3.418  -2.571  24.982  0.00  0.00    -0.435 OA
ATOM     29  C   UNL     1      -3.622  -2.828  24.225  0.00  0.00    +0.429 C 
ATOM     30  O   UNL     1      -3.997  -2.205  23.837  0.00  0.00    -0.435 OA
ATOM     31  C   UNL     1      -4.025  -1.563  24.354  0.00  0.00    +0.176 A 
ATOM     32  C   UNL     1      -4.331  -0.800  24.272  0.00  0.00    +0.038 A 
ENDBRANCH  23  24
ENDBRANCH  22  23
ENDBRANCH   3   2
ENDBRANCH   4   3
BRANCH   9  10
ATOM     10  C   UNL     1      -2.343   2.905  23.913  0.00  0.00    +0.051 C 
BRANCH  10  11
ATOM     11  C   UNL     1      -1.622   2.511  23.990  0.00  0.00    +0.101 A 
ATOM     12  N   UNL     1      -0.904   2.853  24.206  0.00  0.00    -0.081 NA
ATOM     13  O   UNL     1      -0.330   2.259  24.213  0.00  0.00    -0.354 OA
ATOM     14  C   UNL     1      -0.695   1.550  24.000  0.00  0.00    +0.177 A 
ATOM     15  C   UNL     1      -1.494   1.706  23.862  0.00  0.00    +0.058 A 
BRANCH  14  16
ATOM     16  C   UNL     1      -0.327   0.815  23.937  0.00  0.00    +0.037 A 
ATOM     17  C   UNL     1       0.260   0.695  23.368  0.00  0.00    +0.003 A 
ATOM     18  C   UNL     1       0.628  -0.040  23.305  0.00  0.00    +0.000 A 
ATOM     19  C   UNL     1       0.411  -0.656  23.809  0.00  0.00    +0.000 A 
ATOM     20  C   UNL     1      -0.174  -0.536  24.377  0.00  0.00    +0.000 A 
ATOM     21  C   UNL     1      -0.544   0.200  24.441  0.00  0.00    +0.003 A 
ENDBRANCH  14  16
ENDBRANCH  10  11
ENDBRANCH   9  10
TORSDOF 7
ENDMDL
