REMARK  Name = 
REMARK  7 active torsions:
REMARK  status: ('A' for Active; 'I' for Inactive)
REMARK    1  A    between atoms: O_2  and  C_3
REMARK    2  A    between atoms: C_6  and  C_7
REMARK    3  A    between atoms: C_7  and  N_8
REMARK    4  A    between atoms: N_8  and  C_9
REMARK    5  A    between atoms: C_9  and  C_10
REMARK    6  A    between atoms: C_17  and  C_18
REMARK    7  A    between atoms: C_20  and  C_24
REMARK                            x       y       z     vdW  Elec       q    Type
REMARK                         _______ _______ _______ _____ _____    ______ ____
ROOT
ATOM     10  C   UNL     1       1.814  -2.106   0.000  0.00  0.00    +0.075 C 
ATOM     11  C   UNL     1       1.661  -1.343   0.000  0.00  0.00    +0.018 C 
ATOM     12  C   UNL     1       0.923  -1.010   0.000  0.00  0.00    +0.010 C 
ATOM     13  C   UNL     1       0.961  -0.114   0.000  0.00  0.00    +0.018 C 
ATOM     14  C   UNL     1       1.205  -0.720   0.000  0.00  0.00    +0.072 C 
ATOM     15  N   UNL     1       1.065  -1.759   0.000  0.00  0.00    -0.272 NA
ATOM     16  C   UNL     1       0.226  -2.118   0.000  0.00  0.00    +0.078 C 
ATOM     17  C   UNL     1       0.119  -1.362   0.000  0.00  0.00    +0.056 C 
ENDROOT
BRANCH  17  18
ATOM     18  C   UNL     1      -0.602  -0.960   0.000  0.00  0.00    +0.058 A 
ATOM     19  C   UNL     1      -1.350  -1.307   0.000  0.00  0.00    +0.031 A 
ATOM     20  C   UNL     1      -1.911  -0.703   0.000  0.00  0.00    +0.079 A 
ATOM     21  N   UNL     1      -1.510   0.018   0.000  0.00  0.00    -0.174 NA
ATOM     22  N   UNL     1      -0.700  -0.141   0.000  0.00  0.00    -0.253 N 
ATOM     23  C   UNL     1      -0.095   0.420   0.000  0.00  0.00    +0.153 C 
BRANCH  20  24
ATOM     24  C   UNL     1      -2.730  -0.801   0.000  0.00  0.00    +0.042 C 
ATOM     25  C   UNL     1      -3.132  -1.522   0.000  0.00  0.00    +0.006 C 
ATOM     26  C   UNL     1      -3.942  -1.362   0.000  0.00  0.00    +0.000 C 
ATOM     27  C   UNL     1      -4.040  -0.543   0.000  0.00  0.00    +0.000 C 
ATOM     28  C   UNL     1      -3.292  -0.196   0.000  0.00  0.00    +0.006 C 
ENDBRANCH  20  24
ENDBRANCH  17  18
BRANCH  10   9
ATOM      9  C   UNL     1       2.324  -2.754   0.000  0.00  0.00    +0.105 C 
BRANCH   9   8
ATOM      8  N   UNL     1       2.018  -3.520   0.000  0.00  0.00    -0.212 NA
BRANCH   8   7
ATOM      7  C   UNL     1       2.529  -4.168   0.000  0.00  0.00    +0.115 C 
BRANCH   7   6
ATOM      3  C   UNL     1       1.611  -6.466   0.000  0.00  0.00    +0.139 A 
ATOM      4  C   UNL     1       1.100  -5.818   0.000  0.00  0.00    +0.037 A 
ATOM      5  C   UNL     1       1.406  -5.052   0.000  0.00  0.00    +0.000 A 
ATOM      6  C   UNL     1       2.223  -4.934   0.000  0.00  0.00    -0.005 A 
ATOM     29  C   UNL     1       2.733  -5.582   0.000  0.00  0.00    +0.000 A 
ATOM     30  C   UNL     1       2.427  -6.348   0.000  0.00  0.00    +0.037 A 
BRANCH   3   2
ATOM      1  C   UNL     1       1.815  -7.880   0.000  0.00  0.00    +0.252 C 
ATOM      2  O   UNL     1       1.304  -7.232   0.000  0.00  0.00    -0.471 OA
ENDBRANCH   3   2
ENDBRANCH   7   6
ENDBRANCH   8   7
ENDBRANCH   9   8
ENDBRANCH  10   9
TORSDOF 7
