MODEL 1
REMARK VINA RESULT:     -14.4      0.000      0.000
REMARK  Name = 
REMARK  5 active torsions:
REMARK  status: ('A' for Active; 'I' for Inactive)
REMARK    1  A    between atoms: O_2  and  C_3
REMARK    2  A    between atoms: C_6  and  C_7
REMARK    3  A    between atoms: C_7  and  N_8
REMARK    4  A    between atoms: C_17  and  C_22
REMARK    5  A    between atoms: C_25  and  S_26
REMARK                            x       y       z     vdW  Elec       q    Type
REMARK                         _______ _______ _______ _____ _____    ______ ____
ROOT
ATOM      8  N   UNL     1      -3.503   2.822  25.014  0.00  0.00    -0.269 NA
ATOM      9  C   UNL     1      -3.663   3.635  25.122  0.00  0.00    +0.074 C 
ATOM     10  C   UNL     1      -4.633   3.590  25.302  0.00  0.00    +0.039 C 
ATOM     11  C   UNL     1      -5.420   3.722  25.465  0.00  0.00    +0.011 C 
ATOM     12  C   UNL     1      -5.003   3.173  25.333  0.00  0.00    +0.054 C 
ATOM     13  C   UNL     1      -4.065   3.233  25.160  0.00  0.00    +0.078 C 
ATOM     14  C   UNL     1      -5.019   2.258  25.249  0.00  0.00    +0.041 A 
ATOM     15  C   UNL     1      -5.542   1.621  25.288  0.00  0.00    +0.013 A 
ATOM     16  C   UNL     1      -5.266   0.854  25.162  0.00  0.00    +0.006 A 
ATOM     17  C   UNL     1      -4.468   0.724  24.998  0.00  0.00    +0.056 A 
ATOM     18  C   UNL     1      -3.946   1.361  24.959  0.00  0.00    +0.261 A 
ATOM     19  O   UNL     1      -3.147   1.231  24.795  0.00  0.00    -0.267 OA
ATOM     20  N   UNL     1      -4.221   2.129  25.085  0.00  0.00    -0.299 N 
ATOM     21  C   UNL     1      -4.641   2.634  25.213  0.00  0.00    +0.110 C 
ENDROOT
BRANCH  17  22
ATOM     22  C   UNL     1      -4.193  -0.043  24.872  0.00  0.00    +0.005 A 
ATOM     23  C   UNL     1      -4.216  -0.370  24.115  0.00  0.00    +0.001 A 
ATOM     24  C   UNL     1      -3.941  -1.138  23.989  0.00  0.00    +0.006 A 
ATOM     25  C   UNL     1      -3.643  -1.578  24.619  0.00  0.00    +0.025 A 
ATOM     28  C   UNL     1      -3.620  -1.252  25.377  0.00  0.00    +0.006 A 
ATOM     29  C   UNL     1      -3.895  -0.483  25.503  0.00  0.00    +0.001 A 
BRANCH  25  26
ATOM     26  S   UNL     1      -3.368  -2.346  24.493  0.00  0.00    -0.113 S 
ATOM     27  C   UNL     1      -2.559  -2.503  24.517  0.00  0.00    +0.074 C 
ENDBRANCH  25  26
ENDBRANCH  17  22
BRANCH   8   7
ATOM      7  C   UNL     1      -3.068   2.136  24.866  0.00  0.00    +0.099 C 
BRANCH   7   6
ATOM      3  C   UNL     1      -0.633   2.281  24.450  0.00  0.00    +0.139 A 
ATOM      4  C   UNL     1      -1.161   2.307  23.818  0.00  0.00    +0.037 A 
ATOM      5  C   UNL     1      -1.973   2.259  23.956  0.00  0.00    +0.000 A 
ATOM      6  C   UNL     1      -2.256   2.184  24.728  0.00  0.00    -0.006 A 
ATOM     30  C   UNL     1      -1.728   2.158  25.360  0.00  0.00    +0.000 A 
ATOM     31  C   UNL     1      -0.915   2.206  25.222  0.00  0.00    +0.037 A 
BRANCH   3   2
ATOM      1  C   UNL     1       0.620   1.642  24.193  0.00  0.00    +0.252 C 
ATOM      2  O   UNL     1       0.180   2.329  24.312  0.00  0.00    -0.471 OA
ENDBRANCH   3   2
ENDBRANCH   7   6
ENDBRANCH   8   7
TORSDOF 5
ENDMDL
MODEL 2
REMARK VINA RESULT:     -14.0      1.263      3.457
REMARK  Name = 
REMARK  5 active torsions:
REMARK  status: ('A' for Active; 'I' for Inactive)
REMARK    1  A    between atoms: O_2  and  C_3
REMARK    2  A    between atoms: C_6  and  C_7
REMARK    3  A    between atoms: C_7  and  N_8
REMARK    4  A    between atoms: C_17  and  C_22
REMARK    5  A    between atoms: C_25  and  S_26
REMARK                            x       y       z     vdW  Elec       q    Type
REMARK                         _______ _______ _______ _____ _____    ______ ____
ROOT
ATOM      8  N   UNL     1      -4.774   1.331  25.062  0.00  0.00    -0.269 NA
ATOM      9  C   UNL     1      -5.595   1.392  25.199  0.00  0.00    +0.074 C 
ATOM     10  C   UNL     1      -5.662   2.363  25.373  0.00  0.00    +0.039 C 
ATOM     11  C   UNL     1      -5.882   3.130  25.536  0.00  0.00    +0.011 C 
ATOM     12  C   UNL     1      -5.292   2.780  25.386  0.00  0.00    +0.054 C 
ATOM     13  C   UNL     1      -5.244   1.841  25.221  0.00  0.00    +0.078 C 
ATOM     14  C   UNL     1      -4.390   2.907  25.268  0.00  0.00    +0.041 A 
ATOM     15  C   UNL     1      -3.820   3.503  25.280  0.00  0.00    +0.013 A 
ATOM     16  C   UNL     1      -3.030   3.320  25.128  0.00  0.00    +0.006 A 
ATOM     17  C   UNL     1      -2.810   2.542  24.963  0.00  0.00    +0.056 A 
ATOM     18  C   UNL     1      -3.380   1.946  24.951  0.00  0.00    +0.261 A 
ATOM     19  O   UNL     1      -3.160   1.168  24.786  0.00  0.00    -0.267 OA
ATOM     20  N   UNL     1      -4.170   2.129  25.103  0.00  0.00    -0.299 N 
ATOM     21  C   UNL     1      -4.718   2.485  25.248  0.00  0.00    +0.110 C 
ENDROOT
BRANCH  17  22
ATOM     22  C   UNL     1      -2.020   2.361  24.811  0.00  0.00    +0.005 A 
ATOM     23  C   UNL     1      -1.737   2.372  24.036  0.00  0.00    +0.001 A 
ATOM     24  C   UNL     1      -0.947   2.191  23.883  0.00  0.00    +0.006 A 
ATOM     25  C   UNL     1      -0.440   1.998  24.504  0.00  0.00    +0.025 A 
ATOM     28  C   UNL     1      -0.722   1.986  25.279  0.00  0.00    +0.006 A 
ATOM     29  C   UNL     1      -1.513   2.168  25.432  0.00  0.00    +0.001 A 
BRANCH  25  26
ATOM     26  S   UNL     1       0.351   1.816  24.351  0.00  0.00    -0.113 S 
ATOM     27  C   UNL     1       0.542   1.143  23.916  0.00  0.00    +0.074 C 
ENDBRANCH  25  26
ENDBRANCH  17  22
BRANCH   8   7
ATOM      7  C   UNL     1      -4.046   0.981  24.891  0.00  0.00    +0.099 C 
BRANCH   7   6
ATOM      3  C   UNL     1      -3.905  -1.462  24.520  0.00  0.00    +0.139 A 
ATOM      4  C   UNL     1      -3.818  -1.155  25.280  0.00  0.00    +0.037 A 
ATOM      5  C   UNL     1      -3.865  -0.340  25.404  0.00  0.00    +0.000 A 
ATOM      6  C   UNL     1      -3.999   0.167  24.767  0.00  0.00    -0.006 A 
ATOM     30  C   UNL     1      -4.086  -0.141  24.007  0.00  0.00    +0.000 A 
ATOM     31  C   UNL     1      -4.039  -0.956  23.883  0.00  0.00    +0.037 A 
BRANCH   3   2
ATOM      1  C   UNL     1      -3.167  -2.684  24.588  0.00  0.00    +0.252 C 
ATOM      2  O   UNL     1      -3.858  -2.277  24.396  0.00  0.00    -0.471 OA
ENDBRANCH   3   2
ENDBRANCH   7   6
ENDBRANCH   8   7
TORSDOF 5
ENDMDL
MODEL 3
REMARK VINA RESULT:     -13.3      1.813      4.438
REMARK  Name = 
REMARK  5 active torsions:
REMARK  status: ('A' for Active; 'I' for Inactive)
REMARK    1  A    between atoms: O_2  and  C_3
REMARK    2  A    between atoms: C_6  and  C_7
REMARK    3  A    between atoms: C_7  and  N_8
REMARK    4  A    between atoms: C_17  and  C_22
REMARK    5  A    between atoms: C_25  and  S_26
REMARK                            x       y       z     vdW  Elec       q    Type
REMARK                         _______ _______ _______ _____ _____    ______ ____
ROOT
ATOM      8  N   UNL     1      -3.969  -0.754  24.422  0.00  0.00    -0.269 NA
ATOM      9  C   UNL     1      -4.540  -1.340  24.259  0.00  0.00    +0.074 C 
ATOM     10  C   UNL     1      -3.954  -2.135  24.214  0.00  0.00    +0.039 C 
ATOM     11  C   UNL     1      -3.616  -2.873  24.146  0.00  0.00    +0.011 C 
ATOM     12  C   UNL     1      -3.406  -2.215  24.273  0.00  0.00    +0.054 C 
ATOM     13  C   UNL     1      -3.985  -1.457  24.313  0.00  0.00    +0.078 C 
ATOM     14  C   UNL     1      -2.651  -1.721  24.446  0.00  0.00    +0.041 A 
ATOM     15  C   UNL     1      -1.836  -1.808  24.539  0.00  0.00    +0.013 A 
ATOM     16  C   UNL     1      -1.367  -1.149  24.700  0.00  0.00    +0.006 A 
ATOM     17  C   UNL     1      -1.712  -0.403  24.768  0.00  0.00    +0.056 A 
ATOM     18  C   UNL     1      -2.527  -0.316  24.676  0.00  0.00    +0.261 A 
ATOM     19  O   UNL     1      -2.873   0.430  24.744  0.00  0.00    -0.267 OA
ATOM     20  N   UNL     1      -2.996  -0.975  24.515  0.00  0.00    -0.299 N 
ATOM     21  C   UNL     1      -3.171  -1.610  24.396  0.00  0.00    +0.110 C 
ENDROOT
BRANCH  17  22
ATOM     22  C   UNL     1      -1.243   0.256  24.929  0.00  0.00    +0.005 A 
ATOM     23  C   UNL     1      -1.115   0.490  25.710  0.00  0.00    +0.001 A 
ATOM     24  C   UNL     1      -0.645   1.148  25.872  0.00  0.00    +0.006 A 
ATOM     25  C   UNL     1      -0.304   1.573  25.253  0.00  0.00    +0.025 A 
ATOM     28  C   UNL     1      -0.431   1.340  24.472  0.00  0.00    +0.006 A 
ATOM     29  C   UNL     1      -0.901   0.681  24.310  0.00  0.00    +0.001 A 
BRANCH  25  26
ATOM     26  S   UNL     1       0.167   2.232  25.414  0.00  0.00    -0.113 S 
ATOM     27  C   UNL     1       0.013   2.694  26.079  0.00  0.00    +0.074 C 
ENDBRANCH  25  26
ENDBRANCH  17  22
BRANCH   8   7
ATOM      7  C   UNL     1      -3.656  -0.006  24.576  0.00  0.00    +0.099 C 
BRANCH   7   6
ATOM      3  C   UNL     1      -5.167   1.933  24.862  0.00  0.00    +0.139 A 
ATOM      4  C   UNL     1      -4.689   1.879  24.193  0.00  0.00    +0.037 A 
ATOM      5  C   UNL     1      -4.185   1.232  24.097  0.00  0.00    +0.000 A 
ATOM      6  C   UNL     1      -4.160   0.640  24.672  0.00  0.00    -0.006 A 
ATOM     30  C   UNL     1      -4.638   0.695  25.341  0.00  0.00    +0.000 A 
ATOM     31  C   UNL     1      -5.143   1.342  25.437  0.00  0.00    +0.037 A 
BRANCH   3   2
ATOM      1  C   UNL     1      -5.460   3.197  25.461  0.00  0.00    +0.252 C 
ATOM      2  O   UNL     1      -5.672   2.579  24.957  0.00  0.00    -0.471 OA
ENDBRANCH   3   2
ENDBRANCH   7   6
ENDBRANCH   8   7
TORSDOF 5
ENDMDL
MODEL 4
REMARK VINA RESULT:     -13.0      1.697      3.784
REMARK  Name = 
REMARK  5 active torsions:
REMARK  status: ('A' for Active; 'I' for Inactive)
REMARK    1  A    between atoms: O_2  and  C_3
REMARK    2  A    between atoms: C_6  and  C_7
REMARK    3  A    between atoms: C_7  and  N_8
REMARK    4  A    between atoms: C_17  and  C_22
REMARK    5  A    between atoms: C_25  and  S_26
REMARK                            x       y       z     vdW  Elec       q    Type
REMARK                         _______ _______ _______ _____ _____    ______ ____
ROOT
ATOM      8  N   UNL     1      -1.671  -0.915  24.748  0.00  0.00    -0.269 NA
ATOM      9  C   UNL     1      -1.166  -1.576  24.677  0.00  0.00    +0.074 C 
ATOM     10  C   UNL     1      -1.835  -2.278  24.488  0.00  0.00    +0.039 C 
ATOM     11  C   UNL     1      -2.252  -2.959  24.327  0.00  0.00    +0.011 C 
ATOM     12  C   UNL     1      -2.391  -2.279  24.436  0.00  0.00    +0.054 C 
ATOM     13  C   UNL     1      -1.731  -1.613  24.617  0.00  0.00    +0.078 C 
ATOM     14  C   UNL     1      -3.089  -1.684  24.477  0.00  0.00    +0.041 A 
ATOM     15  C   UNL     1      -3.910  -1.654  24.406  0.00  0.00    +0.013 A 
ATOM     16  C   UNL     1      -4.306  -0.936  24.498  0.00  0.00    +0.006 A 
ATOM     17  C   UNL     1      -3.881  -0.248  24.661  0.00  0.00    +0.056 A 
ATOM     18  C   UNL     1      -3.060  -0.278  24.732  0.00  0.00    +0.261 A 
ATOM     19  O   UNL     1      -2.634   0.410  24.896  0.00  0.00    -0.267 OA
ATOM     20  N   UNL     1      -2.664  -0.996  24.641  0.00  0.00    -0.299 N 
ATOM     21  C   UNL     1      -2.559  -1.648  24.533  0.00  0.00    +0.110 C 
ENDROOT
BRANCH  17  22
ATOM     22  C   UNL     1      -4.277   0.469  24.752  0.00  0.00    +0.005 A 
ATOM     23  C   UNL     1      -4.679   0.631  25.454  0.00  0.00    +0.001 A 
ATOM     24  C   UNL     1      -5.076   1.349  25.547  0.00  0.00    +0.006 A 
ATOM     25  C   UNL     1      -5.071   1.904  24.937  0.00  0.00    +0.025 A 
ATOM     28  C   UNL     1      -4.669   1.743  24.235  0.00  0.00    +0.006 A 
ATOM     29  C   UNL     1      -4.271   1.025  24.143  0.00  0.00    +0.001 A 
BRANCH  25  26
ATOM     26  S   UNL     1      -5.468   2.622  25.029  0.00  0.00    -0.113 S 
ATOM     27  C   UNL     1      -5.098   3.251  25.413  0.00  0.00    +0.074 C 
ENDBRANCH  25  26
ENDBRANCH  17  22
BRANCH   8   7
ATOM      7  C   UNL     1      -1.902  -0.131  24.867  0.00  0.00    +0.099 C 
BRANCH   7   6
ATOM      3  C   UNL     1      -0.194   1.613  25.273  0.00  0.00    +0.139 A 
ATOM      4  C   UNL     1      -0.557   1.236  25.910  0.00  0.00    +0.037 A 
ATOM      5  C   UNL     1      -1.127   0.654  25.775  0.00  0.00    +0.000 A 
ATOM      6  C   UNL     1      -1.333   0.450  25.002  0.00  0.00    -0.006 A 
ATOM     30  C   UNL     1      -0.969   0.827  24.365  0.00  0.00    +0.000 A 
ATOM     31  C   UNL     1      -0.399   1.409  24.501  0.00  0.00    +0.037 A 
BRANCH   3   2
ATOM      1  C   UNL     1       0.174   2.884  25.814  0.00  0.00    +0.252 C 
ATOM      2  O   UNL     1       0.376   2.194  25.409  0.00  0.00    -0.471 OA
ENDBRANCH   3   2
ENDBRANCH   7   6
ENDBRANCH   8   7
TORSDOF 5
ENDMDL
MODEL 5
REMARK VINA RESULT:     -13.0      1.468      1.826
REMARK  Name = 
REMARK  5 active torsions:
REMARK  status: ('A' for Active; 'I' for Inactive)
REMARK    1  A    between atoms: O_2  and  C_3
REMARK    2  A    between atoms: C_6  and  C_7
REMARK    3  A    between atoms: C_7  and  N_8
REMARK    4  A    between atoms: C_17  and  C_22
REMARK    5  A    between atoms: C_25  and  S_26
REMARK                            x       y       z     vdW  Elec       q    Type
REMARK                         _______ _______ _______ _____ _____    ______ ____
ROOT
ATOM      8  N   UNL     1      -4.095   2.520  25.010  0.00  0.00    -0.269 NA
ATOM      9  C   UNL     1      -4.746   3.044  25.001  0.00  0.00    +0.074 C 
ATOM     10  C   UNL     1      -5.486   2.388  24.985  0.00  0.00    +0.039 C 
ATOM     11  C   UNL     1      -6.194   1.986  24.971  0.00  0.00    +0.011 C 
ATOM     12  C   UNL     1      -5.510   1.831  24.982  0.00  0.00    +0.054 C 
ATOM     13  C   UNL     1      -4.806   2.477  24.998  0.00  0.00    +0.078 C 
ATOM     14  C   UNL     1      -4.933   1.116  24.989  0.00  0.00    +0.041 A 
ATOM     15  C   UNL     1      -4.935   0.291  24.985  0.00  0.00    +0.013 A 
ATOM     16  C   UNL     1      -4.222  -0.123  24.995  0.00  0.00    +0.006 A 
ATOM     17  C   UNL     1      -3.506   0.288  25.010  0.00  0.00    +0.056 A 
ATOM     18  C   UNL     1      -3.504   1.112  25.014  0.00  0.00    +0.261 A 
ATOM     19  O   UNL     1      -2.788   1.523  25.028  0.00  0.00    -0.267 OA
ATOM     20  N   UNL     1      -4.217   1.526  25.003  0.00  0.00    -0.299 N 
ATOM     21  C   UNL     1      -4.875   1.647  24.992  0.00  0.00    +0.110 C 
ENDROOT
BRANCH  17  22
ATOM     22  C   UNL     1      -2.793  -0.127  25.020  0.00  0.00    +0.005 A 
ATOM     23  C   UNL     1      -2.458  -0.352  25.740  0.00  0.00    +0.001 A 
ATOM     24  C   UNL     1      -1.745  -0.767  25.751  0.00  0.00    +0.006 A 
ATOM     25  C   UNL     1      -1.368  -0.957  25.043  0.00  0.00    +0.025 A 
ATOM     28  C   UNL     1      -1.703  -0.734  24.323  0.00  0.00    +0.006 A 
ATOM     29  C   UNL     1      -2.416  -0.318  24.312  0.00  0.00    +0.001 A 
BRANCH  25  26
ATOM     26  S   UNL     1      -0.654  -1.373  25.054  0.00  0.00    -0.113 S 
ATOM     27  C   UNL     1      -0.050  -1.166  24.533  0.00  0.00    +0.074 C 
ENDBRANCH  25  26
ENDBRANCH  17  22
BRANCH   8   7
ATOM      7  C   UNL     1      -3.309   2.270  25.023  0.00  0.00    +0.099 C 
BRANCH   7   6
ATOM      3  C   UNL     1      -1.482   3.938  25.092  0.00  0.00    +0.139 A 
ATOM      4  C   UNL     1      -1.705   3.602  24.374  0.00  0.00    +0.037 A 
ATOM      5  C   UNL     1      -2.314   3.045  24.350  0.00  0.00    +0.000 A 
ATOM      6  C   UNL     1      -2.700   2.826  25.046  0.00  0.00    -0.006 A 
ATOM     30  C   UNL     1      -2.476   3.163  25.765  0.00  0.00    +0.000 A 
ATOM     31  C   UNL     1      -1.867   3.719  25.788  0.00  0.00    +0.037 A 
BRANCH   3   2
ATOM      1  C   UNL     1      -1.032   5.289  24.965  0.00  0.00    +0.252 C 
ATOM      2  O   UNL     1      -0.872   4.494  25.116  0.00  0.00    -0.471 OA
ENDBRANCH   3   2
ENDBRANCH   7   6
ENDBRANCH   8   7
TORSDOF 5
ENDMDL
MODEL 6
REMARK VINA RESULT:     -12.9      1.640      3.576
REMARK  Name = 
REMARK  5 active torsions:
REMARK  status: ('A' for Active; 'I' for Inactive)
REMARK    1  A    between atoms: O_2  and  C_3
REMARK    2  A    between atoms: C_6  and  C_7
REMARK    3  A    between atoms: C_7  and  N_8
REMARK    4  A    between atoms: C_17  and  C_22
REMARK    5  A    between atoms: C_25  and  S_26
REMARK                            x       y       z     vdW  Elec       q    Type
REMARK                         _______ _______ _______ _____ _____    ______ ____
ROOT
ATOM      8  N   UNL     1      -2.478   3.787  25.037  0.00  0.00    -0.269 NA
ATOM      9  C   UNL     1      -2.511   4.621  25.050  0.00  0.00    +0.074 C 
ATOM     10  C   UNL     1      -1.545   4.825  25.073  0.00  0.00    +0.039 C 
ATOM     11  C   UNL     1      -0.800   5.155  25.093  0.00  0.00    +0.011 C 
ATOM     12  C   UNL     1      -1.083   4.513  25.077  0.00  0.00    +0.054 C 
ATOM     13  C   UNL     1      -2.020   4.332  25.055  0.00  0.00    +0.078 C 
ATOM     14  C   UNL     1      -0.851   3.623  25.068  0.00  0.00    +0.041 A 
ATOM     15  C   UNL     1      -0.187   3.134  25.073  0.00  0.00    +0.013 A 
ATOM     16  C   UNL     1      -0.279   2.314  25.058  0.00  0.00    +0.006 A 
ATOM     17  C   UNL     1      -1.035   1.984  25.038  0.00  0.00    +0.056 A 
ATOM     18  C   UNL     1      -1.699   2.473  25.032  0.00  0.00    +0.261 A 
ATOM     19  O   UNL     1      -2.455   2.142  25.011  0.00  0.00    -0.267 OA
ATOM     20  N   UNL     1      -1.607   3.293  25.047  0.00  0.00    -0.299 N 
ATOM     21  C   UNL     1      -1.313   3.893  25.063  0.00  0.00    +0.110 C 
ENDROOT
BRANCH  17  22
ATOM     22  C   UNL     1      -1.126   1.164  25.023  0.00  0.00    +0.005 A 
ATOM     23  C   UNL     1      -1.157   0.766  24.301  0.00  0.00    +0.001 A 
ATOM     24  C   UNL     1      -1.248  -0.053  24.285  0.00  0.00    +0.006 A 
ATOM     25  C   UNL     1      -1.307  -0.475  24.991  0.00  0.00    +0.025 A 
ATOM     28  C   UNL     1      -1.276  -0.078  25.714  0.00  0.00    +0.006 A 
ATOM     29  C   UNL     1      -1.185   0.743  25.729  0.00  0.00    +0.001 A 
BRANCH  25  26
ATOM     26  S   UNL     1      -1.398  -1.296  24.975  0.00  0.00    -0.113 S 
ATOM     27  C   UNL     1      -2.104  -1.626  24.707  0.00  0.00    +0.074 C 
ENDBRANCH  25  26
ENDBRANCH  17  22
BRANCH   8   7
ATOM      7  C   UNL     1      -2.745   3.006  25.019  0.00  0.00    +0.099 C 
BRANCH   7   6
ATOM      3  C   UNL     1      -5.173   2.531  24.957  0.00  0.00    +0.139 A 
ATOM      4  C   UNL     1      -4.803   2.688  25.676  0.00  0.00    +0.037 A 
ATOM      5  C   UNL     1      -3.993   2.847  25.697  0.00  0.00    +0.000 A 
ATOM      6  C   UNL     1      -3.554   2.848  24.998  0.00  0.00    -0.006 A 
ATOM     30  C   UNL     1      -3.926   2.690  24.279  0.00  0.00    +0.000 A 
ATOM     31  C   UNL     1      -4.736   2.531  24.258  0.00  0.00    +0.037 A 
BRANCH   3   2
ATOM      1  C   UNL     1      -6.256   1.603  25.052  0.00  0.00    +0.252 C 
ATOM      2  O   UNL     1      -5.983   2.372  24.936  0.00  0.00    -0.471 OA
ENDBRANCH   3   2
ENDBRANCH   7   6
ENDBRANCH   8   7
TORSDOF 5
ENDMDL
MODEL 7
REMARK VINA RESULT:     -12.0      1.762      4.364
REMARK  Name = 
REMARK  5 active torsions:
REMARK  status: ('A' for Active; 'I' for Inactive)
REMARK    1  A    between atoms: O_2  and  C_3
REMARK    2  A    between atoms: C_6  and  C_7
REMARK    3  A    between atoms: C_7  and  N_8
REMARK    4  A    between atoms: C_17  and  C_22
REMARK    5  A    between atoms: C_25  and  S_26
REMARK                            x       y       z     vdW  Elec       q    Type
REMARK                         _______ _______ _______ _____ _____    ______ ____
ROOT
ATOM      8  N   UNL     1      -1.139   0.657  24.530  0.00  0.00    -0.269 NA
ATOM      9  C   UNL     1      -0.402   0.297  24.369  0.00  0.00    +0.074 C 
ATOM     10  C   UNL     1       0.148   1.104  24.222  0.00  0.00    +0.039 C 
ATOM     11  C   UNL     1       0.727   1.658  24.074  0.00  0.00    +0.011 C 
ATOM     12  C   UNL     1       0.043   1.652  24.232  0.00  0.00    +0.054 C 
ATOM     13  C   UNL     1      -0.475   0.862  24.372  0.00  0.00    +0.078 C 
ATOM     14  C   UNL     1      -0.667   2.216  24.381  0.00  0.00    +0.041 A 
ATOM     15  C   UNL     1      -0.853   3.019  24.404  0.00  0.00    +0.013 A 
ATOM     16  C   UNL     1      -1.624   3.258  24.575  0.00  0.00    +0.006 A 
ATOM     17  C   UNL     1      -2.208   2.695  24.724  0.00  0.00    +0.056 A 
ATOM     18  C   UNL     1      -2.021   1.892  24.702  0.00  0.00    +0.261 A 
ATOM     19  O   UNL     1      -2.605   1.328  24.851  0.00  0.00    -0.267 OA
ATOM     20  N   UNL     1      -1.251   1.652  24.530  0.00  0.00    -0.299 N 
ATOM     21  C   UNL     1      -0.600   1.685  24.379  0.00  0.00    +0.110 C 
ENDROOT
BRANCH  17  22
ATOM     22  C   UNL     1      -2.978   2.935  24.896  0.00  0.00    +0.005 A 
ATOM     23  C   UNL     1      -3.537   2.988  24.291  0.00  0.00    +0.001 A 
ATOM     24  C   UNL     1      -4.307   3.229  24.462  0.00  0.00    +0.006 A 
ATOM     25  C   UNL     1      -4.519   3.416  25.237  0.00  0.00    +0.025 A 
ATOM     28  C   UNL     1      -3.960   3.364  25.842  0.00  0.00    +0.006 A 
ATOM     29  C   UNL     1      -3.189   3.123  25.671  0.00  0.00    +0.001 A 
BRANCH  25  26
ATOM     26  S   UNL     1      -5.290   3.657  25.408  0.00  0.00    -0.113 S 
ATOM     27  C   UNL     1      -5.824   3.122  25.736  0.00  0.00    +0.074 C 
ENDBRANCH  25  26
ENDBRANCH  17  22
BRANCH   8   7
ATOM      7  C   UNL     1      -1.941   0.720  24.713  0.00  0.00    +0.099 C 
BRANCH   7   6
ATOM      3  C   UNL     1      -3.297  -1.322  25.049  0.00  0.00    +0.139 A 
ATOM      4  C   UNL     1      -3.281  -0.956  24.311  0.00  0.00    +0.037 A 
ATOM      5  C   UNL     1      -2.828  -0.274  24.199  0.00  0.00    +0.000 A 
ATOM      6  C   UNL     1      -2.393   0.040  24.826  0.00  0.00    -0.006 A 
ATOM     30  C   UNL     1      -2.410  -0.328  25.564  0.00  0.00    +0.000 A 
ATOM     31  C   UNL     1      -2.862  -1.009  25.676  0.00  0.00    +0.037 A 
BRANCH   3   2
ATOM      1  C   UNL     1      -3.599  -2.678  24.712  0.00  0.00    +0.252 C 
ATOM      2  O   UNL     1      -3.750  -2.004  25.161  0.00  0.00    -0.471 OA
ENDBRANCH   3   2
ENDBRANCH   7   6
ENDBRANCH   8   7
TORSDOF 5
ENDMDL
MODEL 8
REMARK VINA RESULT:     -11.9      1.888      3.348
REMARK  Name = 
REMARK  5 active torsions:
REMARK  status: ('A' for Active; 'I' for Inactive)
REMARK    1  A    between atoms: O_2  and  C_3
REMARK    2  A    between atoms: C_6  and  C_7
REMARK    3  A    between atoms: C_7  and  N_8
REMARK    4  A    between atoms: C_17  and  C_22
REMARK    5  A    between atoms: C_25  and  S_26
REMARK                            x       y       z     vdW  Elec       q    Type
REMARK                         _______ _______ _______ _____ _____    ______ ____
ROOT
ATOM      8  N   UNL     1      -1.049   3.084  24.935  0.00  0.00    -0.269 NA
ATOM      9  C   UNL     1      -0.294   3.442  24.919  0.00  0.00    +0.074 C 
ATOM     10  C   UNL     1      -0.562   4.393  24.957  0.00  0.00    +0.039 C 
ATOM     11  C   UNL     1      -0.615   5.205  24.983  0.00  0.00    +0.011 C 
ATOM     12  C   UNL     1      -1.052   4.657  24.982  0.00  0.00    +0.054 C 
ATOM     13  C   UNL     1      -0.778   3.743  24.945  0.00  0.00    +0.078 C 
ATOM     14  C   UNL     1      -1.947   4.448  25.009  0.00  0.00    +0.041 A 
ATOM     15  C   UNL     1      -2.688   4.809  25.047  0.00  0.00    +0.013 A 
ATOM     16  C   UNL     1      -3.371   4.347  25.058  0.00  0.00    +0.006 A 
ATOM     17  C   UNL     1      -3.314   3.524  25.031  0.00  0.00    +0.056 A 
ATOM     18  C   UNL     1      -2.573   3.163  24.993  0.00  0.00    +0.261 A 
ATOM     19  O   UNL     1      -2.515   2.341  24.967  0.00  0.00    -0.267 OA
ATOM     20  N   UNL     1      -1.890   3.625  24.982  0.00  0.00    -0.299 N 
ATOM     21  C   UNL     1      -1.494   4.165  24.984  0.00  0.00    +0.110 C 
ENDROOT
BRANCH  17  22
ATOM     22  C   UNL     1      -3.997   3.063  25.042  0.00  0.00    +0.005 A 
ATOM     23  C   UNL     1      -4.307   2.768  24.337  0.00  0.00    +0.001 A 
ATOM     24  C   UNL     1      -4.991   2.307  24.347  0.00  0.00    +0.006 A 
ATOM     25  C   UNL     1      -5.365   2.140  25.063  0.00  0.00    +0.025 A 
ATOM     28  C   UNL     1      -5.055   2.434  25.769  0.00  0.00    +0.006 A 
ATOM     29  C   UNL     1      -4.371   2.896  25.758  0.00  0.00    +0.001 A 
BRANCH  25  26
ATOM     26  S   UNL     1      -6.049   1.678  25.074  0.00  0.00    -0.113 S 
ATOM     27  C   UNL     1      -6.463   1.573  25.778  0.00  0.00    +0.074 C 
ENDBRANCH  25  26
ENDBRANCH  17  22
BRANCH   8   7
ATOM      7  C   UNL     1      -1.616   2.485  24.938  0.00  0.00    +0.099 C 
BRANCH   7   6
ATOM      3  C   UNL     1      -0.913   0.115  24.821  0.00  0.00    +0.139 A 
ATOM      4  C   UNL     1      -1.074   0.531  24.129  0.00  0.00    +0.037 A 
ATOM      5  C   UNL     1      -1.309   1.322  24.167  0.00  0.00    +0.000 A 
ATOM      6  C   UNL     1      -1.382   1.695  24.900  0.00  0.00    -0.006 A 
ATOM     30  C   UNL     1      -1.220   1.278  25.593  0.00  0.00    +0.000 A 
ATOM     31  C   UNL     1      -0.986   0.487  25.554  0.00  0.00    +0.037 A 
BRANCH   3   2
ATOM      1  C   UNL     1      -1.245  -1.273  24.736  0.00  0.00    +0.252 C 
ATOM      2  O   UNL     1      -0.678  -0.676  24.783  0.00  0.00    -0.471 OA
ENDBRANCH   3   2
ENDBRANCH   7   6
ENDBRANCH   8   7
TORSDOF 5
ENDMDL
