MODEL 1
REMARK VINA RESULT:      -9.9      0.000      0.000
REMARK  Name = 
REMARK  10 active torsions:
REMARK  status: ('A' for Active; 'I' for Inactive)
REMARK    1  A    between atoms: O_2  and  C_3
REMARK    2  A    between atoms: C_3  and  C_4
REMARK    3  A    between atoms: C_6  and  C_7
REMARK    4  A    between atoms: C_7  and  C_8
REMARK    5  A    between atoms: C_13  and  C_14
REMARK    6  A    between atoms: C_14  and  C_15
REMARK    7  A    between atoms: N_17  and  C_18
REMARK    8  A    between atoms: C_18  and  C_19
REMARK    9  A    between atoms: C_21  and  O_22
REMARK   10  A    between atoms: C_24  and  O_25
REMARK                            x       y       z     vdW  Elec       q    Type
REMARK                         _______ _______ _______ _____ _____    ______ ____
ROOT
ATOM      8  C   UNL     1      -4.165   3.243  25.015  0.00  0.00    +0.024 C 
ATOM      9  C   UNL     1      -4.332   3.848  25.550  0.00  0.00    +0.089 C 
ATOM     10  N   UNL     1      -4.996   3.797  26.038  0.00  0.00    -0.218 NA
ATOM     11  C   UNL     1      -5.492   3.141  25.991  0.00  0.00    +0.089 C 
ATOM     12  C   UNL     1      -5.326   2.534  25.456  0.00  0.00    +0.019 C 
ATOM     13  C   UNL     1      -4.663   2.586  24.968  0.00  0.00    +0.012 C 
ENDROOT
BRANCH   8   7
ATOM      7  C   UNL     1      -3.502   3.294  24.528  0.00  0.00    +0.051 C 
BRANCH   7   6
ATOM      4  C   UNL     1      -1.531   3.625  25.277  0.00  0.00    +0.184 A 
ATOM      5  C   UNL     1      -2.113   3.123  24.978  0.00  0.00    +0.056 A 
ATOM      6  C   UNL     1      -2.788   3.575  24.831  0.00  0.00    +0.100 A 
ATOM     29  N   UNL     1      -2.623   4.356  25.039  0.00  0.00    -0.082 NA
ATOM     30  O   UNL     1      -1.847   4.387  25.315  0.00  0.00    -0.356 OA
BRANCH   4   3
ATOM      3  C   UNL     1      -0.768   3.405  25.499  0.00  0.00    +0.209 C 
BRANCH   3   2
ATOM      1  C   UNL     1       0.097   2.571  26.274  0.00  0.00    +0.175 C 
ATOM      2  O   UNL     1      -0.657   2.870  26.118  0.00  0.00    -0.343 OA
ENDBRANCH   3   2
ENDBRANCH   4   3
ENDBRANCH   7   6
ENDBRANCH   8   7
BRANCH  13  14
ATOM     14  C   UNL     1      -4.496   1.979  24.433  0.00  0.00    +0.087 C 
BRANCH  14  15
ATOM     15  C   UNL     1      -4.697   1.201  24.617  0.00  0.00    +0.242 C 
ATOM     16  O   UNL     1      -5.487   0.995  24.737  0.00  0.00    -0.273 OA
ATOM     17  N   UNL     1      -4.107   0.628  24.680  0.00  0.00    -0.201 NA
BRANCH  17  18
ATOM     18  C   UNL     1      -4.307  -0.151  24.865  0.00  0.00    +0.142 C 
BRANCH  18  19
ATOM     19  C   UNL     1      -3.731  -0.742  24.838  0.00  0.00    +0.003 A 
ATOM     20  C   UNL     1      -3.899  -1.464  24.475  0.00  0.00    +0.037 A 
ATOM     21  C   UNL     1      -3.323  -2.055  24.449  0.00  0.00    +0.172 A 
ATOM     24  C   UNL     1      -2.582  -1.924  24.784  0.00  0.00    +0.172 A 
ATOM     27  C   UNL     1      -2.414  -1.202  25.146  0.00  0.00    +0.040 A 
ATOM     28  C   UNL     1      -2.990  -0.611  25.173  0.00  0.00    +0.001 A 
BRANCH  21  22
ATOM     22  O   UNL     1      -3.491  -2.777  24.086  0.00  0.00    -0.468 OA
ATOM     23  C   UNL     1      -4.244  -2.921  23.783  0.00  0.00    +0.253 C 
ENDBRANCH  21  22
BRANCH  24  25
ATOM     25  O   UNL     1      -2.006  -2.515  24.757  0.00  0.00    -0.468 OA
ATOM     26  C   UNL     1      -1.228  -2.341  24.966  0.00  0.00    +0.253 C 
ENDBRANCH  24  25
ENDBRANCH  18  19
ENDBRANCH  17  18
ENDBRANCH  14  15
ENDBRANCH  13  14
TORSDOF 10
ENDMDL
MODEL 2
REMARK VINA RESULT:      -9.7      1.961      5.004
REMARK  Name = 
REMARK  10 active torsions:
REMARK  status: ('A' for Active; 'I' for Inactive)
REMARK    1  A    between atoms: O_2  and  C_3
REMARK    2  A    between atoms: C_3  and  C_4
REMARK    3  A    between atoms: C_6  and  C_7
REMARK    4  A    between atoms: C_7  and  C_8
REMARK    5  A    between atoms: C_13  and  C_14
REMARK    6  A    between atoms: C_14  and  C_15
REMARK    7  A    between atoms: N_17  and  C_18
REMARK    8  A    between atoms: C_18  and  C_19
REMARK    9  A    between atoms: C_21  and  O_22
REMARK   10  A    between atoms: C_24  and  O_25
REMARK                            x       y       z     vdW  Elec       q    Type
REMARK                         _______ _______ _______ _____ _____    ______ ____
ROOT
ATOM      8  C   UNL     1      -2.459  -1.677  24.959  0.00  0.00    +0.024 C 
ATOM      9  C   UNL     1      -2.142  -2.341  24.586  0.00  0.00    +0.089 C 
ATOM     10  N   UNL     1      -2.642  -2.902  24.247  0.00  0.00    -0.218 NA
ATOM     11  C   UNL     1      -3.460  -2.800  24.281  0.00  0.00    +0.089 C 
ATOM     12  C   UNL     1      -3.778  -2.136  24.654  0.00  0.00    +0.019 C 
ATOM     13  C   UNL     1      -3.278  -1.575  24.992  0.00  0.00    +0.012 C 
ENDROOT
BRANCH   8   7
ATOM      7  C   UNL     1      -1.960  -1.116  25.297  0.00  0.00    +0.051 C 
BRANCH   7   6
ATOM      4  C   UNL     1      -0.167  -0.523  24.302  0.00  0.00    +0.184 A 
ATOM      5  C   UNL     1      -0.975  -0.435  24.444  0.00  0.00    +0.056 A 
ATOM      6  C   UNL     1      -1.199  -1.005  24.997  0.00  0.00    +0.100 A 
ATOM     29  N   UNL     1      -0.530  -1.445  25.198  0.00  0.00    -0.082 NA
ATOM     30  O   UNL     1       0.108  -1.146  24.768  0.00  0.00    -0.356 OA
BRANCH   4   3
ATOM      3  C   UNL     1       0.287  -0.067  23.786  0.00  0.00    +0.209 C 
BRANCH   3   2
ATOM      1  C   UNL     1       1.206   0.013  22.694  0.00  0.00    +0.175 C 
ATOM      2  O   UNL     1       0.682  -0.426  23.157  0.00  0.00    -0.343 OA
ENDBRANCH   3   2
ENDBRANCH   4   3
ENDBRANCH   7   6
ENDBRANCH   8   7
BRANCH  13  14
ATOM     14  C   UNL     1      -3.596  -0.910  25.366  0.00  0.00    +0.087 C 
BRANCH  14  15
ATOM     15  C   UNL     1      -4.192  -0.476  24.996  0.00  0.00    +0.242 C 
ATOM     16  O   UNL     1      -4.685  -0.839  24.443  0.00  0.00    -0.273 OA
ATOM     17  N   UNL     1      -4.294   0.322  25.179  0.00  0.00    -0.201 NA
BRANCH  17  18
ATOM     18  C   UNL     1      -4.891   0.756  24.809  0.00  0.00    +0.142 C 
BRANCH  18  19
ATOM     19  C   UNL     1      -4.948   1.569  24.939  0.00  0.00    +0.003 A 
ATOM     20  C   UNL     1      -4.458   2.088  24.524  0.00  0.00    +0.037 A 
ATOM     21  C   UNL     1      -4.516   2.901  24.654  0.00  0.00    +0.172 A 
ATOM     24  C   UNL     1      -5.062   3.194  25.196  0.00  0.00    +0.172 A 
ATOM     27  C   UNL     1      -5.553   2.676  25.610  0.00  0.00    +0.040 A 
ATOM     28  C   UNL     1      -5.495   1.863  25.481  0.00  0.00    +0.001 A 
BRANCH  21  22
ATOM     22  O   UNL     1      -4.025   3.420  24.240  0.00  0.00    -0.468 OA
ATOM     23  C   UNL     1      -3.476   3.125  23.699  0.00  0.00    +0.253 C 
ENDBRANCH  21  22
BRANCH  24  25
ATOM     25  O   UNL     1      -5.120   4.008  25.325  0.00  0.00    -0.468 OA
ATOM     26  C   UNL     1      -5.775   4.317  25.719  0.00  0.00    +0.253 C 
ENDBRANCH  24  25
ENDBRANCH  18  19
ENDBRANCH  17  18
ENDBRANCH  14  15
ENDBRANCH  13  14
TORSDOF 10
ENDMDL
MODEL 3
REMARK VINA RESULT:      -9.3      1.691      3.661
REMARK  Name = 
REMARK  10 active torsions:
REMARK  status: ('A' for Active; 'I' for Inactive)
REMARK    1  A    between atoms: O_2  and  C_3
REMARK    2  A    between atoms: C_3  and  C_4
REMARK    3  A    between atoms: C_6  and  C_7
REMARK    4  A    between atoms: C_7  and  C_8
REMARK    5  A    between atoms: C_13  and  C_14
REMARK    6  A    between atoms: C_14  and  C_15
REMARK    7  A    between atoms: N_17  and  C_18
REMARK    8  A    between atoms: C_18  and  C_19
REMARK    9  A    between atoms: C_21  and  O_22
REMARK   10  A    between atoms: C_24  and  O_25
REMARK                            x       y       z     vdW  Elec       q    Type
REMARK                         _______ _______ _______ _____ _____    ______ ____
ROOT
ATOM      8  C   UNL     1      -2.187   4.121  25.700  0.00  0.00    +0.024 C 
ATOM      9  C   UNL     1      -2.301   4.806  25.254  0.00  0.00    +0.089 C 
ATOM     10  N   UNL     1      -1.677   5.124  24.818  0.00  0.00    -0.218 NA
ATOM     11  C   UNL     1      -0.938   4.757  24.828  0.00  0.00    +0.089 C 
ATOM     12  C   UNL     1      -0.823   4.072  25.273  0.00  0.00    +0.019 C 
ATOM     13  C   UNL     1      -1.448   3.754  25.709  0.00  0.00    +0.012 C 
ENDROOT
BRANCH   8   7
ATOM      7  C   UNL     1      -2.810   3.804  26.135  0.00  0.00    +0.051 C 
BRANCH   7   6
ATOM      4  C   UNL     1      -4.642   3.223  25.206  0.00  0.00    +0.184 A 
ATOM      5  C   UNL     1      -3.889   3.042  25.490  0.00  0.00    +0.056 A 
ATOM      6  C   UNL     1      -3.558   3.734  25.794  0.00  0.00    +0.100 A 
ATOM     29  N   UNL     1      -4.107   4.344  25.698  0.00  0.00    -0.082 NA
ATOM     30  O   UNL     1      -4.777   4.028  25.334  0.00  0.00    -0.356 OA
BRANCH   4   3
ATOM      3  C   UNL     1      -5.168   2.694  24.855  0.00  0.00    +0.209 C 
BRANCH   3   2
ATOM      1  C   UNL     1      -6.225   1.739  24.980  0.00  0.00    +0.175 C 
ATOM      2  O   UNL     1      -5.755   2.332  25.310  0.00  0.00    -0.343 OA
ENDBRANCH   3   2
ENDBRANCH   4   3
ENDBRANCH   7   6
ENDBRANCH   8   7
BRANCH  13  14
ATOM     14  C   UNL     1      -1.333   3.069  26.155  0.00  0.00    +0.087 C 
BRANCH  14  15
ATOM     15  C   UNL     1      -0.734   2.540  25.950  0.00  0.00    +0.242 C 
ATOM     16  O   UNL     1       0.057   2.759  26.033  0.00  0.00    -0.273 OA
ATOM     17  N   UNL     1      -0.927   1.791  25.664  0.00  0.00    -0.201 NA
BRANCH  17  18
ATOM     18  C   UNL     1      -0.328   1.261  25.459  0.00  0.00    +0.142 C 
BRANCH  18  19
ATOM     19  C   UNL     1      -0.521   0.517  25.158  0.00  0.00    +0.003 A 
ATOM     20  C   UNL     1      -0.150   0.240  24.474  0.00  0.00    +0.037 A 
ATOM     21  C   UNL     1      -0.343  -0.503  24.174  0.00  0.00    +0.172 A 
ATOM     24  C   UNL     1      -0.906  -0.969  24.554  0.00  0.00    +0.172 A 
ATOM     27  C   UNL     1      -1.277  -0.693  25.237  0.00  0.00    +0.040 A 
ATOM     28  C   UNL     1      -1.084   0.052  25.539  0.00  0.00    +0.001 A 
BRANCH  21  22
ATOM     22  O   UNL     1       0.029  -0.780  23.490  0.00  0.00    -0.468 OA
ATOM     23  C   UNL     1       0.603  -0.320  23.118  0.00  0.00    +0.253 C 
ENDBRANCH  21  22
BRANCH  24  25
ATOM     25  O   UNL     1      -1.098  -1.713  24.253  0.00  0.00    -0.468 OA
ATOM     26  C   UNL     1      -1.703  -2.154  24.600  0.00  0.00    +0.253 C 
ENDBRANCH  24  25
ENDBRANCH  18  19
ENDBRANCH  17  18
ENDBRANCH  14  15
ENDBRANCH  13  14
TORSDOF 10
ENDMDL
MODEL 4
REMARK VINA RESULT:      -9.2      1.379      2.003
REMARK  Name = 
REMARK  10 active torsions:
REMARK  status: ('A' for Active; 'I' for Inactive)
REMARK    1  A    between atoms: O_2  and  C_3
REMARK    2  A    between atoms: C_3  and  C_4
REMARK    3  A    between atoms: C_6  and  C_7
REMARK    4  A    between atoms: C_7  and  C_8
REMARK    5  A    between atoms: C_13  and  C_14
REMARK    6  A    between atoms: C_14  and  C_15
REMARK    7  A    between atoms: N_17  and  C_18
REMARK    8  A    between atoms: C_18  and  C_19
REMARK    9  A    between atoms: C_21  and  O_22
REMARK   10  A    between atoms: C_24  and  O_25
REMARK                            x       y       z     vdW  Elec       q    Type
REMARK                         _______ _______ _______ _____ _____    ______ ____
ROOT
ATOM      8  C   UNL     1      -2.650   3.387  24.803  0.00  0.00    +0.024 C 
ATOM      9  C   UNL     1      -2.267   3.856  25.363  0.00  0.00    +0.089 C 
ATOM     10  N   UNL     1      -2.674   4.118  26.031  0.00  0.00    -0.218 NA
ATOM     11  C   UNL     1      -3.465   3.912  26.138  0.00  0.00    +0.089 C 
ATOM     12  C   UNL     1      -3.850   3.443  25.579  0.00  0.00    +0.019 C 
ATOM     13  C   UNL     1      -3.442   3.181  24.911  0.00  0.00    +0.012 C 
ENDROOT
BRANCH   8   7
ATOM      7  C   UNL     1      -2.243   3.125  24.136  0.00  0.00    +0.051 C 
BRANCH   7   6
ATOM      4  C   UNL     1      -0.371   2.108  24.264  0.00  0.00    +0.184 A 
ATOM      5  C   UNL     1      -1.191   2.099  24.180  0.00  0.00    +0.056 A 
ATOM      6  C   UNL     1      -1.458   2.880  24.201  0.00  0.00    +0.100 A 
ATOM     29  N   UNL     1      -0.802   3.372  24.299  0.00  0.00    -0.082 NA
ATOM     30  O   UNL     1      -0.130   2.895  24.338  0.00  0.00    -0.356 OA
BRANCH   4   3
ATOM      3  C   UNL     1       0.123   1.448  24.274  0.00  0.00    +0.209 C 
BRANCH   3   2
ATOM      1  C   UNL     1       0.567   0.229  23.674  0.00  0.00    +0.175 C 
ATOM      2  O   UNL     1       0.124   0.925  23.635  0.00  0.00    -0.343 OA
ENDBRANCH   3   2
ENDBRANCH   4   3
ENDBRANCH   7   6
ENDBRANCH   8   7
BRANCH  13  14
ATOM     14  C   UNL     1      -3.826   2.712  24.350  0.00  0.00    +0.087 C 
BRANCH  14  15
ATOM     15  C   UNL     1      -4.318   2.096  24.596  0.00  0.00    +0.242 C 
ATOM     16  O   UNL     1      -5.058   2.263  24.920  0.00  0.00    -0.273 OA
ATOM     17  N   UNL     1      -4.068   1.314  24.516  0.00  0.00    -0.201 NA
BRANCH  17  18
ATOM     18  C   UNL     1      -4.560   0.698  24.762  0.00  0.00    +0.142 C 
BRANCH  18  19
ATOM     19  C   UNL     1      -4.287  -0.080  24.740  0.00  0.00    +0.003 A 
ATOM     20  C   UNL     1      -3.758  -0.347  25.315  0.00  0.00    +0.037 A 
ATOM     21  C   UNL     1      -3.485  -1.125  25.294  0.00  0.00    +0.172 A 
ATOM     24  C   UNL     1      -3.740  -1.636  24.699  0.00  0.00    +0.172 A 
ATOM     27  C   UNL     1      -4.269  -1.369  24.125  0.00  0.00    +0.040 A 
ATOM     28  C   UNL     1      -4.543  -0.591  24.146  0.00  0.00    +0.001 A 
BRANCH  21  22
ATOM     22  O   UNL     1      -2.956  -1.392  25.868  0.00  0.00    -0.468 OA
ATOM     23  C   UNL     1      -2.323  -0.916  26.099  0.00  0.00    +0.253 C 
ENDBRANCH  21  22
BRANCH  24  25
ATOM     25  O   UNL     1      -3.467  -2.415  24.678  0.00  0.00    -0.468 OA
ATOM     26  C   UNL     1      -3.741  -2.932  24.097  0.00  0.00    +0.253 C 
ENDBRANCH  24  25
ENDBRANCH  18  19
ENDBRANCH  17  18
ENDBRANCH  14  15
ENDBRANCH  13  14
TORSDOF 10
ENDMDL
MODEL 5
REMARK VINA RESULT:      -9.1      1.917      5.605
REMARK  Name = 
REMARK  10 active torsions:
REMARK  status: ('A' for Active; 'I' for Inactive)
REMARK    1  A    between atoms: O_2  and  C_3
REMARK    2  A    between atoms: C_3  and  C_4
REMARK    3  A    between atoms: C_6  and  C_7
REMARK    4  A    between atoms: C_7  and  C_8
REMARK    5  A    between atoms: C_13  and  C_14
REMARK    6  A    between atoms: C_14  and  C_15
REMARK    7  A    between atoms: N_17  and  C_18
REMARK    8  A    between atoms: C_18  and  C_19
REMARK    9  A    between atoms: C_21  and  O_22
REMARK   10  A    between atoms: C_24  and  O_25
REMARK                            x       y       z     vdW  Elec       q    Type
REMARK                         _______ _______ _______ _____ _____    ______ ____
ROOT
ATOM      8  C   UNL     1      -0.532  -0.203  24.728  0.00  0.00    +0.024 C 
ATOM      9  C   UNL     1      -0.233  -0.613  24.078  0.00  0.00    +0.089 C 
ATOM     10  N   UNL     1       0.203  -0.213  23.502  0.00  0.00    -0.218 NA
ATOM     11  C   UNL     1       0.339   0.596  23.577  0.00  0.00    +0.089 C 
ATOM     12  C   UNL     1       0.041   1.007  24.227  0.00  0.00    +0.019 C 
ATOM     13  C   UNL     1      -0.395   0.608  24.803  0.00  0.00    +0.012 C 
ENDROOT
BRANCH   8   7
ATOM      7  C   UNL     1      -0.967  -0.602  25.303  0.00  0.00    +0.051 C 
BRANCH   7   6
ATOM      4  C   UNL     1      -2.408  -2.097  24.806  0.00  0.00    +0.184 A 
ATOM      5  C   UNL     1      -2.215  -1.320  25.007  0.00  0.00    +0.056 A 
ATOM      6  C   UNL     1      -1.396  -1.277  25.101  0.00  0.00    +0.100 A 
ATOM     29  N   UNL     1      -1.083  -2.028  24.959  0.00  0.00    -0.082 NA
ATOM     30  O   UNL     1      -1.708  -2.534  24.776  0.00  0.00    -0.356 OA
BRANCH   4   3
ATOM      3  C   UNL     1      -3.166  -2.385  24.661  0.00  0.00    +0.209 C 
BRANCH   3   2
ATOM      1  C   UNL     1      -4.325  -2.435  23.826  0.00  0.00    +0.175 C 
ATOM      2  O   UNL     1      -3.614  -2.075  24.040  0.00  0.00    -0.343 OA
ENDBRANCH   3   2
ENDBRANCH   4   3
ENDBRANCH   7   6
ENDBRANCH   8   7
BRANCH  13  14
ATOM     14  C   UNL     1      -0.694   1.018  25.454  0.00  0.00    +0.087 C 
BRANCH  14  15
ATOM     15  C   UNL     1      -0.863   1.823  25.391  0.00  0.00    +0.242 C 
ATOM     16  O   UNL     1      -0.249   2.373  25.361  0.00  0.00    -0.273 OA
ATOM     17  N   UNL     1      -1.647   2.077  25.357  0.00  0.00    -0.201 NA
BRANCH  17  18
ATOM     18  C   UNL     1      -1.817   2.882  25.293  0.00  0.00    +0.142 C 
BRANCH  18  19
ATOM     19  C   UNL     1      -2.600   3.133  25.222  0.00  0.00    +0.003 A 
ATOM     20  C   UNL     1      -3.003   3.028  24.509  0.00  0.00    +0.037 A 
ATOM     21  C   UNL     1      -3.785   3.279  24.437  0.00  0.00    +0.172 A 
ATOM     24  C   UNL     1      -4.165   3.635  25.076  0.00  0.00    +0.172 A 
ATOM     27  C   UNL     1      -3.763   3.740  25.789  0.00  0.00    +0.040 A 
ATOM     28  C   UNL     1      -2.979   3.489  25.861  0.00  0.00    +0.001 A 
BRANCH  21  22
ATOM     22  O   UNL     1      -4.188   3.174  23.724  0.00  0.00    -0.468 OA
ATOM     23  C   UNL     1      -3.783   2.902  23.059  0.00  0.00    +0.253 C 
ENDBRANCH  21  22
BRANCH  24  25
ATOM     25  O   UNL     1      -4.948   3.886  25.004  0.00  0.00    -0.468 OA
ATOM     26  C   UNL     1      -5.442   3.889  25.664  0.00  0.00    +0.253 C 
ENDBRANCH  24  25
ENDBRANCH  18  19
ENDBRANCH  17  18
ENDBRANCH  14  15
ENDBRANCH  13  14
TORSDOF 10
ENDMDL
MODEL 6
REMARK VINA RESULT:      -9.0      1.191      4.468
REMARK  Name = 
REMARK  10 active torsions:
REMARK  status: ('A' for Active; 'I' for Inactive)
REMARK    1  A    between atoms: O_2  and  C_3
REMARK    2  A    between atoms: C_3  and  C_4
REMARK    3  A    between atoms: C_6  and  C_7
REMARK    4  A    between atoms: C_7  and  C_8
REMARK    5  A    between atoms: C_13  and  C_14
REMARK    6  A    between atoms: C_14  and  C_15
REMARK    7  A    between atoms: N_17  and  C_18
REMARK    8  A    between atoms: C_18  and  C_19
REMARK    9  A    between atoms: C_21  and  O_22
REMARK   10  A    between atoms: C_24  and  O_25
REMARK                            x       y       z     vdW  Elec       q    Type
REMARK                         _______ _______ _______ _____ _____    ______ ____
ROOT
ATOM      8  C   UNL     1      -4.788   1.536  24.709  0.00  0.00    +0.024 C 
ATOM      9  C   UNL     1      -5.363   1.302  25.251  0.00  0.00    +0.089 C 
ATOM     10  N   UNL     1      -5.758   1.867  25.704  0.00  0.00    -0.218 NA
ATOM     11  C   UNL     1      -5.577   2.667  25.615  0.00  0.00    +0.089 C 
ATOM     12  C   UNL     1      -5.002   2.902  25.072  0.00  0.00    +0.019 C 
ATOM     13  C   UNL     1      -4.607   2.337  24.619  0.00  0.00    +0.012 C 
ENDROOT
BRANCH   8   7
ATOM      7  C   UNL     1      -4.393   0.971  24.256  0.00  0.00    +0.051 C 
BRANCH   7   6
ATOM      4  C   UNL     1      -4.085  -1.100  24.668  0.00  0.00    +0.184 A 
ATOM      5  C   UNL     1      -4.256  -0.488  24.143  0.00  0.00    +0.056 A 
ATOM      6  C   UNL     1      -4.249   0.221  24.567  0.00  0.00    +0.100 A 
ATOM     29  N   UNL     1      -4.073   0.046  25.354  0.00  0.00    -0.082 NA
ATOM     30  O   UNL     1      -3.971  -0.770  25.417  0.00  0.00    -0.356 OA
BRANCH   4   3
ATOM      3  C   UNL     1      -4.035  -1.901  24.480  0.00  0.00    +0.209 C 
BRANCH   3   2
ATOM      1  C   UNL     1      -3.349  -3.152  24.574  0.00  0.00    +0.175 C 
ATOM      2  O   UNL     1      -3.446  -2.369  24.819  0.00  0.00    -0.343 OA
ENDBRANCH   3   2
ENDBRANCH   4   3
ENDBRANCH   7   6
ENDBRANCH   8   7
BRANCH  13  14
ATOM     14  C   UNL     1      -4.031   2.572  24.076  0.00  0.00    +0.087 C 
BRANCH  14  15
ATOM     15  C   UNL     1      -3.461   3.127  24.295  0.00  0.00    +0.242 C 
ATOM     16  O   UNL     1      -3.651   3.929  24.309  0.00  0.00    -0.273 OA
ATOM     17  N   UNL     1      -2.701   2.878  24.499  0.00  0.00    -0.201 NA
BRANCH  17  18
ATOM     18  C   UNL     1      -2.131   3.433  24.717  0.00  0.00    +0.142 C 
BRANCH  18  19
ATOM     19  C   UNL     1      -1.450   3.190  25.113  0.00  0.00    +0.003 A 
ATOM     20  C   UNL     1      -0.858   2.784  24.704  0.00  0.00    +0.037 A 
ATOM     21  C   UNL     1      -0.177   2.541  25.101  0.00  0.00    +0.172 A 
ATOM     24  C   UNL     1      -0.087   2.701  25.904  0.00  0.00    +0.172 A 
ATOM     27  C   UNL     1      -0.678   3.106  26.313  0.00  0.00    +0.040 A 
ATOM     28  C   UNL     1      -1.360   3.350  25.916  0.00  0.00    +0.001 A 
BRANCH  21  22
ATOM     22  O   UNL     1       0.415   2.135  24.692  0.00  0.00    -0.468 OA
ATOM     23  C   UNL     1       0.218   1.659  24.048  0.00  0.00    +0.253 C 
ENDBRANCH  21  22
BRANCH  24  25
ATOM     25  O   UNL     1       0.595   2.457  26.300  0.00  0.00    -0.468 OA
ATOM     26  C   UNL     1       0.623   2.480  27.124  0.00  0.00    +0.253 C 
ENDBRANCH  24  25
ENDBRANCH  18  19
ENDBRANCH  17  18
ENDBRANCH  14  15
ENDBRANCH  13  14
TORSDOF 10
ENDMDL
MODEL 7
REMARK VINA RESULT:      -8.7      1.455      3.229
REMARK  Name = 
REMARK  10 active torsions:
REMARK  status: ('A' for Active; 'I' for Inactive)
REMARK    1  A    between atoms: O_2  and  C_3
REMARK    2  A    between atoms: C_3  and  C_4
REMARK    3  A    between atoms: C_6  and  C_7
REMARK    4  A    between atoms: C_7  and  C_8
REMARK    5  A    between atoms: C_13  and  C_14
REMARK    6  A    between atoms: C_14  and  C_15
REMARK    7  A    between atoms: N_17  and  C_18
REMARK    8  A    between atoms: C_18  and  C_19
REMARK    9  A    between atoms: C_21  and  O_22
REMARK   10  A    between atoms: C_24  and  O_25
REMARK                            x       y       z     vdW  Elec       q    Type
REMARK                         _______ _______ _______ _____ _____    ______ ____
ROOT
ATOM      8  C   UNL     1      -1.274   2.691  24.907  0.00  0.00    +0.024 C 
ATOM      9  C   UNL     1      -1.221   3.257  25.505  0.00  0.00    +0.089 C 
ATOM     10  N   UNL     1      -0.632   3.196  26.080  0.00  0.00    -0.218 NA
ATOM     11  C   UNL     1      -0.097   2.569  26.058  0.00  0.00    +0.089 C 
ATOM     12  C   UNL     1      -0.150   2.002  25.461  0.00  0.00    +0.019 C 
ATOM     13  C   UNL     1      -0.738   2.063  24.885  0.00  0.00    +0.012 C 
ENDROOT
BRANCH   8   7
ATOM      7  C   UNL     1      -1.862   2.751  24.333  0.00  0.00    +0.051 C 
BRANCH   7   6
ATOM      4  C   UNL     1      -3.869   3.301  24.806  0.00  0.00    +0.184 A 
ATOM      5  C   UNL     1      -3.298   2.728  24.643  0.00  0.00    +0.056 A 
ATOM      6  C   UNL     1      -2.580   3.114  24.514  0.00  0.00    +0.100 A 
ATOM     29  N   UNL     1      -2.707   3.925  24.597  0.00  0.00    -0.082 NA
ATOM     30  O   UNL     1      -3.503   4.041  24.777  0.00  0.00    -0.356 OA
BRANCH   4   3
ATOM      3  C   UNL     1      -4.665   3.160  24.969  0.00  0.00    +0.209 C 
BRANCH   3   2
ATOM      1  C   UNL     1      -5.694   2.880  25.921  0.00  0.00    +0.175 C 
ATOM      2  O   UNL     1      -4.930   3.142  25.750  0.00  0.00    -0.343 OA
ENDBRANCH   3   2
ENDBRANCH   4   3
ENDBRANCH   7   6
ENDBRANCH   8   7
BRANCH  13  14
ATOM     14  C   UNL     1      -0.791   1.496  24.288  0.00  0.00    +0.087 C 
BRANCH  14  15
ATOM     15  C   UNL     1      -0.625   0.705  24.454  0.00  0.00    +0.242 C 
ATOM     16  O   UNL     1       0.157   0.458  24.546  0.00  0.00    -0.273 OA
ATOM     17  N   UNL     1      -1.242   0.162  24.528  0.00  0.00    -0.201 NA
BRANCH  17  18
ATOM     18  C   UNL     1      -1.076  -0.629  24.695  0.00  0.00    +0.142 C 
BRANCH  18  19
ATOM     19  C   UNL     1      -1.690  -1.178  24.740  0.00  0.00    +0.003 A 
ATOM     20  C   UNL     1      -2.375  -0.996  25.164  0.00  0.00    +0.037 A 
ATOM     21  C   UNL     1      -2.989  -1.545  25.208  0.00  0.00    +0.172 A 
ATOM     24  C   UNL     1      -2.920  -2.274  24.830  0.00  0.00    +0.172 A 
ATOM     27  C   UNL     1      -2.236  -2.456  24.406  0.00  0.00    +0.040 A 
ATOM     28  C   UNL     1      -1.621  -1.907  24.361  0.00  0.00    +0.001 A 
BRANCH  21  22
ATOM     22  O   UNL     1      -3.674  -1.364  25.632  0.00  0.00    -0.468 OA
ATOM     23  C   UNL     1      -3.927  -0.581  25.691  0.00  0.00    +0.253 C 
ENDBRANCH  21  22
BRANCH  24  25
ATOM     25  O   UNL     1      -3.535  -2.823  24.875  0.00  0.00    -0.468 OA
ATOM     26  C   UNL     1      -3.595  -3.420  24.310  0.00  0.00    +0.253 C 
ENDBRANCH  24  25
ENDBRANCH  18  19
ENDBRANCH  17  18
ENDBRANCH  14  15
ENDBRANCH  13  14
TORSDOF 10
ENDMDL
MODEL 8
REMARK VINA RESULT:      -6.8     16.276     18.847
REMARK  Name = 
REMARK  10 active torsions:
REMARK  status: ('A' for Active; 'I' for Inactive)
REMARK    1  A    between atoms: O_2  and  C_3
REMARK    2  A    between atoms: C_3  and  C_4
REMARK    3  A    between atoms: C_6  and  C_7
REMARK    4  A    between atoms: C_7  and  C_8
REMARK    5  A    between atoms: C_13  and  C_14
REMARK    6  A    between atoms: C_14  and  C_15
REMARK    7  A    between atoms: N_17  and  C_18
REMARK    8  A    between atoms: C_18  and  C_19
REMARK    9  A    between atoms: C_21  and  O_22
REMARK   10  A    between atoms: C_24  and  O_25
REMARK                            x       y       z     vdW  Elec       q    Type
REMARK                         _______ _______ _______ _____ _____    ______ ____
ROOT
ATOM      8  C   UNL     1      12.485   7.659  21.161  0.00  0.00    +0.024 C 
ATOM      9  C   UNL     1      12.468   6.982  21.632  0.00  0.00    +0.089 C 
ATOM     10  N   UNL     1      11.759   6.575  21.744  0.00  0.00    -0.218 NA
ATOM     11  C   UNL     1      11.068   6.845  21.385  0.00  0.00    +0.089 C 
ATOM     12  C   UNL     1      11.084   7.522  20.913  0.00  0.00    +0.019 C 
ATOM     13  C   UNL     1      11.793   7.929  20.802  0.00  0.00    +0.012 C 
ENDROOT
BRANCH   8   7
ATOM      7  C   UNL     1      13.193   8.066  21.050  0.00  0.00    +0.051 C 
BRANCH   7   6
ATOM      4  C   UNL     1      15.054   7.022  21.117  0.00  0.00    +0.184 A 
ATOM      5  C   UNL     1      14.394   7.293  20.702  0.00  0.00    +0.056 A 
ATOM      6  C   UNL     1      13.911   7.703  21.231  0.00  0.00    +0.100 A 
ATOM     29  N   UNL     1      14.273   7.685  21.973  0.00  0.00    -0.082 NA
ATOM     30  O   UNL     1      14.979   7.265  21.903  0.00  0.00    -0.356 OA
BRANCH   4   3
ATOM      3  C   UNL     1      15.679   6.586  20.802  0.00  0.00    +0.209 C 
BRANCH   3   2
ATOM      1  C   UNL     1      17.069   6.255  20.852  0.00  0.00    +0.175 C 
ATOM      2  O   UNL     1      16.458   6.796  20.976  0.00  0.00    -0.343 OA
ENDBRANCH   3   2
ENDBRANCH   4   3
ENDBRANCH   7   6
ENDBRANCH   8   7
BRANCH  13  14
ATOM     14  C   UNL     1      11.810   8.607  20.330  0.00  0.00    +0.087 C 
BRANCH  14  15
ATOM     15  C   UNL     1      11.429   8.609  19.598  0.00  0.00    +0.242 C 
ATOM     16  O   UNL     1      10.608   8.541  19.560  0.00  0.00    -0.273 OA
ATOM     17  N   UNL     1      11.871   8.678  18.905  0.00  0.00    -0.201 NA
BRANCH  17  18
ATOM     18  C   UNL     1      11.490   8.681  18.172  0.00  0.00    +0.142 C 
BRANCH  18  19
ATOM     19  C   UNL     1      11.933   8.739  17.479  0.00  0.00    +0.003 A 
ATOM     20  C   UNL     1      11.553   8.870  16.757  0.00  0.00    +0.037 A 
ATOM     21  C   UNL     1      11.995   8.929  16.064  0.00  0.00    +0.172 A 
ATOM     24  C   UNL     1      12.816   8.857  16.090  0.00  0.00    +0.172 A 
ATOM     27  C   UNL     1      13.196   8.726  16.811  0.00  0.00    +0.040 A 
ATOM     28  C   UNL     1      12.753   8.667  17.505  0.00  0.00    +0.001 A 
BRANCH  21  22
ATOM     22  O   UNL     1      11.616   9.060  15.342  0.00  0.00    -0.468 OA
ATOM     23  C   UNL     1      10.837   8.809  15.235  0.00  0.00    +0.253 C 
ENDBRANCH  21  22
BRANCH  24  25
ATOM     25  O   UNL     1      13.258   8.916  15.396  0.00  0.00    -0.468 OA
ATOM     26  C   UNL     1      14.070   9.056  15.435  0.00  0.00    +0.253 C 
ENDBRANCH  24  25
ENDBRANCH  18  19
ENDBRANCH  17  18
ENDBRANCH  14  15
ENDBRANCH  13  14
TORSDOF 10
ENDMDL
