REMARK  Name = 
REMARK  6 active torsions:
REMARK  status: ('A' for Active; 'I' for Inactive)
REMARK    1  A    between atoms: C_2  and  O_10
REMARK    2  A    between atoms: N_3  and  C_4
REMARK    3  A    between atoms: O_10  and  C_11
REMARK    4  A    between atoms: C_15  and  N_19
REMARK    5  A    between atoms: N_19  and  S_20
REMARK    6  A    between atoms: S_20  and  C_23
REMARK                            x       y       z     vdW  Elec       q    Type
REMARK                         _______ _______ _______ _____ _____    ______ ____
ROOT
ATOM     11  C   UNL     1      -3.488   0.058   0.000  0.00  0.00    +0.229 C 
ATOM     12  C   UNL     1      -3.402   0.878   0.000  0.00  0.00    +0.188 C 
ATOM     13  O   UNL     1      -2.595   1.050   0.000  0.00  0.00    -0.348 OA
ATOM     14  C   UNL     1      -2.183   0.336   0.000  0.00  0.00    +0.166 C 
ATOM     15  C   UNL     1      -1.429   0.000   0.000  0.00  0.00    +0.157 C 
ATOM     16  C   UNL     1      -1.515  -0.821   0.000  0.00  0.00    +0.164 C 
ATOM     17  O   UNL     1      -2.322  -0.992   0.000  0.00  0.00    -0.348 OA
ATOM     18  C   UNL     1      -2.735  -0.278   0.000  0.00  0.00    +0.186 C 
ENDROOT
BRANCH  11  10
ATOM     10  O   UNL     1      -4.203  -0.354   0.000  0.00  0.00    -0.432 OA
BRANCH  10   2
ATOM      1  O   UNL     1      -4.917   0.883   0.000  0.00  0.00    -0.225 OA
ATOM      2  C   UNL     1      -4.917   0.058   0.000  0.00  0.00    +0.421 C 
ATOM      3  N   UNL     1      -5.632  -0.354   0.000  0.00  0.00    -0.170 NA
BRANCH   3   4
ATOM      4  C   UNL     1      -6.346   0.058   0.000  0.00  0.00    +0.099 C 
ATOM      5  C   UNL     1      -7.061  -0.354   0.000  0.00  0.00    +0.022 C 
ATOM      6  C   UNL     1      -7.775   0.058   0.000  0.00  0.00    +0.002 C 
ATOM      7  C   UNL     1      -7.775   0.883   0.000  0.00  0.00    +0.000 C 
ATOM      8  C   UNL     1      -7.061   1.296   0.000  0.00  0.00    +0.002 C 
ATOM      9  C   UNL     1      -6.346   0.883   0.000  0.00  0.00    +0.022 C 
ENDBRANCH   3   4
ENDBRANCH  10   2
ENDBRANCH  11  10
BRANCH  15  19
ATOM     19  N   UNL     1      -0.715   0.412   0.000  0.00  0.00    -0.074 NA
BRANCH  19  20
ATOM     20  S   UNL     1       0.000   0.000   0.000  0.00  0.00    +0.077 S 
ATOM     21  O   UNL     1      -0.412  -0.715   0.000  0.00  0.00    -0.152 OA
ATOM     22  O   UNL     1       0.412   0.715   0.000  0.00  0.00    -0.152 OA
BRANCH  20  23
ATOM     23  C   UNL     1       0.715  -0.412   0.000  0.00  0.00    +0.124 A 
ATOM     24  C   UNL     1       1.429   0.000   0.000  0.00  0.00    +0.020 A 
ATOM     25  C   UNL     1       2.143  -0.412   0.000  0.00  0.00    +0.001 A 
ATOM     26  C   UNL     1       2.858   0.000   0.000  0.00  0.00    +0.000 A 
ATOM     27  C   UNL     1       3.572  -0.412   0.000  0.00  0.00    +0.000 A 
ATOM     28  C   UNL     1       3.572  -1.238   0.000  0.00  0.00    +0.000 A 
ATOM     29  C   UNL     1       2.858  -1.650   0.000  0.00  0.00    +0.000 A 
ATOM     30  C   UNL     1       2.143  -1.238   0.000  0.00  0.00    +0.000 A 
ATOM     31  C   UNL     1       1.429  -1.650   0.000  0.00  0.00    +0.001 A 
ATOM     32  C   UNL     1       0.715  -1.238   0.000  0.00  0.00    +0.020 A 
ENDBRANCH  20  23
ENDBRANCH  19  20
ENDBRANCH  15  19
TORSDOF 6
