MODEL 1
REMARK VINA RESULT:     -12.4      0.000      0.000
REMARK  Name = 
REMARK  5 active torsions:
REMARK  status: ('A' for Active; 'I' for Inactive)
REMARK    1  A    between atoms: C_2  and  C_5
REMARK    2  A    between atoms: C_8  and  C_11
REMARK    3  A    between atoms: C_14  and  C_16
REMARK    4  A    between atoms: N_21  and  C_22
REMARK    5  A    between atoms: C_22  and  C_23
REMARK                            x       y       z     vdW  Elec       q    Type
REMARK                         _______ _______ _______ _____ _____    ______ ____
ROOT
ATOM     11  C   UNL     1      -3.917   0.372  24.405  0.00  0.00    +0.102 A 
ATOM     12  C   UNL     1      -3.685   0.791  23.733  0.00  0.00    +0.119 A 
ATOM     13  N   UNL     1      -3.890   1.583  23.844  0.00  0.00    -0.226 NA
ATOM     14  C   UNL     1      -4.247   1.652  24.584  0.00  0.00    +0.156 A 
ATOM     15  N   UNL     1      -4.264   0.904  24.931  0.00  0.00    -0.228 NA
ENDROOT
BRANCH  11   8
ATOM      5  C   UNL     1      -3.620  -2.058  24.778  0.00  0.00    +0.071 A 
ATOM      6  C   UNL     1      -4.073  -1.789  24.143  0.00  0.00    +0.004 A 
ATOM      7  C   UNL     1      -4.172  -0.980  24.019  0.00  0.00    +0.001 A 
ATOM      8  C   UNL     1      -3.818  -0.438  24.530  0.00  0.00    +0.019 A 
ATOM      9  C   UNL     1      -3.364  -0.705  25.165  0.00  0.00    +0.001 A 
ATOM     10  C   UNL     1      -3.265  -1.515  25.290  0.00  0.00    +0.004 A 
BRANCH   5   2
ATOM      1  F   UNL     1      -3.423  -3.677  25.027  0.00  0.00    -0.166 F 
ATOM      2  C   UNL     1      -3.521  -2.866  24.902  0.00  0.00    +0.419 C 
ATOM      3  F   UNL     1      -3.405  -2.976  24.092  0.00  0.00    -0.166 F 
ATOM      4  F   UNL     1      -3.638  -2.756  25.711  0.00  0.00    -0.166 F 
ENDBRANCH   5   2
ENDBRANCH  11   8
BRANCH  14  16
ATOM     16  C   UNL     1      -4.537   2.349  24.919  0.00  0.00    +0.147 C 
ATOM     17  C   UNL     1      -5.347   2.438  25.047  0.00  0.00    +0.166 C 
ATOM     18  O   UNL     1      -5.637   3.134  25.382  0.00  0.00    -0.350 OA
ATOM     19  C   UNL     1      -5.118   3.741  25.587  0.00  0.00    +0.160 C 
ATOM     20  C   UNL     1      -4.307   3.652  25.459  0.00  0.00    +0.105 C 
ATOM     21  N   UNL     1      -4.017   2.955  25.124  0.00  0.00    -0.258 NA
BRANCH  21  22
ATOM     22  C   UNL     1      -3.208   2.866  24.995  0.00  0.00    +0.122 C 
BRANCH  22  23
ATOM     23  C   UNL     1      -2.681   3.443  25.261  0.00  0.00    +0.105 A 
ATOM     24  C   UNL     1      -2.348   4.042  24.803  0.00  0.00    +0.074 A 
ATOM     25  S   UNL     1      -1.856   4.493  25.290  0.00  0.00    +0.038 S 
ATOM     26  N   UNL     1      -1.887   4.171  26.049  0.00  0.00    -0.110 NA
ATOM     27  N   UNL     1      -2.396   3.523  26.031  0.00  0.00    -0.143 NA
ENDBRANCH  22  23
ENDBRANCH  21  22
ENDBRANCH  14  16
TORSDOF 5
ENDMDL
MODEL 2
REMARK VINA RESULT:     -11.5      2.179      2.829
REMARK  Name = 
REMARK  5 active torsions:
REMARK  status: ('A' for Active; 'I' for Inactive)
REMARK    1  A    between atoms: C_2  and  C_5
REMARK    2  A    between atoms: C_8  and  C_11
REMARK    3  A    between atoms: C_14  and  C_16
REMARK    4  A    between atoms: N_21  and  C_22
REMARK    5  A    between atoms: C_22  and  C_23
REMARK                            x       y       z     vdW  Elec       q    Type
REMARK                         _______ _______ _______ _____ _____    ______ ____
ROOT
ATOM     11  C   UNL     1      -1.939  -0.390  25.026  0.00  0.00    +0.102 A 
ATOM     12  C   UNL     1      -1.599  -0.348  25.776  0.00  0.00    +0.119 A 
ATOM     13  N   UNL     1      -1.079   0.293  25.784  0.00  0.00    -0.226 NA
ATOM     14  C   UNL     1      -1.098   0.646  25.038  0.00  0.00    +0.156 A 
ATOM     15  N   UNL     1      -1.630   0.223  24.570  0.00  0.00    -0.228 NA
ENDROOT
BRANCH  11   8
ATOM      5  C   UNL     1      -3.598  -2.067  24.275  0.00  0.00    +0.071 A 
ATOM      6  C   UNL     1      -2.807  -2.282  24.369  0.00  0.00    +0.004 A 
ATOM      7  C   UNL     1      -2.254  -1.723  24.619  0.00  0.00    +0.001 A 
ATOM      8  C   UNL     1      -2.492  -0.949  24.775  0.00  0.00    +0.019 A 
ATOM      9  C   UNL     1      -3.283  -0.734  24.682  0.00  0.00    +0.001 A 
ATOM     10  C   UNL     1      -3.836  -1.293  24.432  0.00  0.00    +0.004 A 
BRANCH   5   2
ATOM      1  F   UNL     1      -4.704  -3.185  23.775  0.00  0.00    -0.166 F 
ATOM      2  C   UNL     1      -4.150  -2.626  24.025  0.00  0.00    +0.419 C 
ATOM      3  F   UNL     1      -4.396  -2.114  23.425  0.00  0.00    -0.166 F 
ATOM      4  F   UNL     1      -3.904  -3.137  24.624  0.00  0.00    -0.166 F 
ENDBRANCH   5   2
ENDBRANCH  11   8
BRANCH  14  16
ATOM     16  C   UNL     1      -0.662   1.306  24.802  0.00  0.00    +0.147 C 
ATOM     17  C   UNL     1       0.082   1.207  24.461  0.00  0.00    +0.166 C 
ATOM     18  O   UNL     1       0.518   1.867  24.226  0.00  0.00    -0.350 OA
ATOM     19  C   UNL     1       0.210   2.624  24.331  0.00  0.00    +0.160 C 
ATOM     20  C   UNL     1      -0.535   2.723  24.672  0.00  0.00    +0.105 C 
ATOM     21  N   UNL     1      -0.971   2.063  24.908  0.00  0.00    -0.258 NA
BRANCH  21  22
ATOM     22  C   UNL     1      -1.715   2.161  25.249  0.00  0.00    +0.122 C 
BRANCH  22  23
ATOM     23  C   UNL     1      -2.029   2.919  25.346  0.00  0.00    +0.105 A 
ATOM     24  C   UNL     1      -2.590   3.277  24.858  0.00  0.00    +0.074 A 
ATOM     25  S   UNL     1      -2.744   4.030  25.157  0.00  0.00    +0.038 S 
ATOM     26  N   UNL     1      -2.278   4.138  25.830  0.00  0.00    -0.110 NA
ATOM     27  N   UNL     1      -1.836   3.451  25.946  0.00  0.00    -0.143 NA
ENDBRANCH  22  23
ENDBRANCH  21  22
ENDBRANCH  14  16
TORSDOF 5
ENDMDL
MODEL 3
REMARK VINA RESULT:     -11.4      1.419      2.092
REMARK  Name = 
REMARK  5 active torsions:
REMARK  status: ('A' for Active; 'I' for Inactive)
REMARK    1  A    between atoms: C_2  and  C_5
REMARK    2  A    between atoms: C_8  and  C_11
REMARK    3  A    between atoms: C_14  and  C_16
REMARK    4  A    between atoms: N_21  and  C_22
REMARK    5  A    between atoms: C_22  and  C_23
REMARK                            x       y       z     vdW  Elec       q    Type
REMARK                         _______ _______ _______ _____ _____    ______ ____
ROOT
ATOM     11  C   UNL     1      -2.823   0.361  24.321  0.00  0.00    +0.102 A 
ATOM     12  C   UNL     1      -2.671   0.745  23.606  0.00  0.00    +0.119 A 
ATOM     13  N   UNL     1      -2.497   1.534  23.774  0.00  0.00    -0.226 NA
ATOM     14  C   UNL     1      -2.541   1.637  24.591  0.00  0.00    +0.156 A 
ATOM     15  N   UNL     1      -2.743   0.912  24.929  0.00  0.00    -0.228 NA
ENDROOT
BRANCH  11   8
ATOM      5  C   UNL     1      -3.415  -2.028  24.590  0.00  0.00    +0.071 A 
ATOM      6  C   UNL     1      -2.654  -1.767  24.774  0.00  0.00    +0.004 A 
ATOM      7  C   UNL     1      -2.457  -0.971  24.685  0.00  0.00    +0.001 A 
ATOM      8  C   UNL     1      -3.020  -0.436  24.411  0.00  0.00    +0.019 A 
ATOM      9  C   UNL     1      -3.782  -0.695  24.226  0.00  0.00    +0.001 A 
ATOM     10  C   UNL     1      -3.979  -1.491  24.316  0.00  0.00    +0.004 A 
BRANCH   5   2
ATOM      1  F   UNL     1      -3.810  -3.620  24.770  0.00  0.00    -0.166 F 
ATOM      2  C   UNL     1      -3.612  -2.823  24.680  0.00  0.00    +0.419 C 
ATOM      3  F   UNL     1      -3.627  -2.726  25.500  0.00  0.00    -0.166 F 
ATOM      4  F   UNL     1      -3.598  -2.919  23.861  0.00  0.00    -0.166 F 
ENDBRANCH   5   2
ENDBRANCH  11   8
BRANCH  14  16
ATOM     16  C   UNL     1      -2.407   2.342  24.999  0.00  0.00    +0.147 C 
ATOM     17  C   UNL     1      -1.648   2.528  25.261  0.00  0.00    +0.166 C 
ATOM     18  O   UNL     1      -1.514   3.233  25.669  0.00  0.00    -0.350 OA
ATOM     19  C   UNL     1      -2.138   3.751  25.814  0.00  0.00    +0.160 C 
ATOM     20  C   UNL     1      -2.899   3.565  25.551  0.00  0.00    +0.105 C 
ATOM     21  N   UNL     1      -3.033   2.860  25.143  0.00  0.00    -0.258 NA
BRANCH  21  22
ATOM     22  C   UNL     1      -3.792   2.673  24.880  0.00  0.00    +0.122 C 
BRANCH  22  23
ATOM     23  C   UNL     1      -4.439   3.111  25.146  0.00  0.00    +0.105 A 
ATOM     24  C   UNL     1      -4.990   2.866  25.709  0.00  0.00    +0.074 A 
ATOM     25  S   UNL     1      -5.542   3.473  25.807  0.00  0.00    +0.038 S 
ATOM     26  N   UNL     1      -5.330   4.092  25.304  0.00  0.00    -0.110 NA
ATOM     27  N   UNL     1      -4.650   3.868  24.896  0.00  0.00    -0.143 NA
ENDBRANCH  22  23
ENDBRANCH  21  22
ENDBRANCH  14  16
TORSDOF 5
ENDMDL
MODEL 4
REMARK VINA RESULT:     -11.0      3.388      5.176
REMARK  Name = 
REMARK  5 active torsions:
REMARK  status: ('A' for Active; 'I' for Inactive)
REMARK    1  A    between atoms: C_2  and  C_5
REMARK    2  A    between atoms: C_8  and  C_11
REMARK    3  A    between atoms: C_14  and  C_16
REMARK    4  A    between atoms: N_21  and  C_22
REMARK    5  A    between atoms: C_22  and  C_23
REMARK                            x       y       z     vdW  Elec       q    Type
REMARK                         _______ _______ _______ _____ _____    ______ ____
ROOT
ATOM     11  C   UNL     1      -3.213   1.657  24.420  0.00  0.00    +0.102 A 
ATOM     12  C   UNL     1      -2.978   1.561  23.635  0.00  0.00    +0.119 A 
ATOM     13  N   UNL     1      -2.399   0.972  23.614  0.00  0.00    -0.226 NA
ATOM     14  C   UNL     1      -2.278   0.706  24.385  0.00  0.00    +0.156 A 
ATOM     15  N   UNL     1      -2.781   1.130  24.883  0.00  0.00    -0.228 NA
ENDROOT
BRANCH  11   8
ATOM      5  C   UNL     1      -4.918   3.254  25.239  0.00  0.00    +0.071 A 
ATOM      6  C   UNL     1      -5.151   2.541  24.896  0.00  0.00    +0.004 A 
ATOM      7  C   UNL     1      -4.583   2.009  24.623  0.00  0.00    +0.001 A 
ATOM      8  C   UNL     1      -3.782   2.190  24.693  0.00  0.00    +0.019 A 
ATOM      9  C   UNL     1      -3.547   2.903  25.036  0.00  0.00    +0.001 A 
ATOM     10  C   UNL     1      -4.116   3.435  25.309  0.00  0.00    +0.004 A 
BRANCH   5   2
ATOM      1  F   UNL     1      -6.055   4.318  25.785  0.00  0.00    -0.166 F 
ATOM      2  C   UNL     1      -5.486   3.786  25.512  0.00  0.00    +0.419 C 
ATOM      3  F   UNL     1      -5.165   4.375  25.030  0.00  0.00    -0.166 F 
ATOM      4  F   UNL     1      -5.806   3.197  25.993  0.00  0.00    -0.166 F 
ENDBRANCH   5   2
ENDBRANCH  11   8
BRANCH  14  16
ATOM     16  C   UNL     1      -1.747   0.118  24.617  0.00  0.00    +0.147 C 
ATOM     17  C   UNL     1      -0.962   0.313  24.777  0.00  0.00    +0.166 C 
ATOM     18  O   UNL     1      -0.430  -0.274  25.010  0.00  0.00    -0.350 OA
ATOM     19  C   UNL     1      -0.684  -1.055  25.082  0.00  0.00    +0.160 C 
ATOM     20  C   UNL     1      -1.470  -1.250  24.922  0.00  0.00    +0.105 C 
ATOM     21  N   UNL     1      -2.002  -0.663  24.689  0.00  0.00    -0.258 NA
BRANCH  21  22
ATOM     22  C   UNL     1      -2.787  -0.857  24.529  0.00  0.00    +0.122 C 
BRANCH  22  23
ATOM     23  C   UNL     1      -3.068  -1.614  24.700  0.00  0.00    +0.105 A 
ATOM     24  C   UNL     1      -3.158  -2.230  24.158  0.00  0.00    +0.074 A 
ATOM     25  S   UNL     1      -3.454  -2.885  24.565  0.00  0.00    +0.038 S 
ATOM     26  N   UNL     1      -3.545  -2.673  25.357  0.00  0.00    -0.110 NA
ATOM     27  N   UNL     1      -3.307  -1.888  25.440  0.00  0.00    -0.143 NA
ENDBRANCH  22  23
ENDBRANCH  21  22
ENDBRANCH  14  16
TORSDOF 5
ENDMDL
