MODEL 1
REMARK VINA RESULT:     -13.0      0.000      0.000
REMARK  Name = 
REMARK  5 active torsions:
REMARK  status: ('A' for Active; 'I' for Inactive)
REMARK    1  A    between atoms: C_2  and  C_4
REMARK    2  A    between atoms: C_7  and  C_8
REMARK    3  A    between atoms: C_8  and  N_9
REMARK    4  A    between atoms: C_14  and  C_15
REMARK    5  A    between atoms: C_17  and  C_20
REMARK                            x       y       z     vdW  Elec       q    Type
REMARK                         _______ _______ _______ _____ _____    ______ ____
ROOT
ATOM      9  N   UNL     1      -3.891   2.365  25.047  0.00  0.00    -0.257 NA
ATOM     10  C   UNL     1      -4.161   3.083  25.347  0.00  0.00    +0.121 C 
ATOM     11  C   UNL     1      -4.967   3.198  25.484  0.00  0.00    +0.090 A 
ATOM     12  C   UNL     1      -5.503   2.592  25.320  0.00  0.00    +0.077 A 
ATOM     13  C   UNL     1      -5.233   1.872  25.018  0.00  0.00    +0.073 C 
ATOM     14  C   UNL     1      -4.427   1.759  24.882  0.00  0.00    +0.144 C 
ATOM     28  N   UNL     1      -6.258   2.862  25.509  0.00  0.00    -0.227 NA
ATOM     29  C   UNL     1      -6.190   3.634  25.791  0.00  0.00    +0.198 A 
ATOM     30  N   UNL     1      -5.392   3.841  25.775  0.00  0.00    -0.226 NA
ENDROOT
BRANCH  14  15
ATOM     15  C   UNL     1      -4.158   1.040  24.581  0.00  0.00    +0.251 A 
ATOM     16  N   UNL     1      -4.139   0.321  24.984  0.00  0.00    -0.190 NA
ATOM     17  C   UNL     1      -3.830  -0.250  24.476  0.00  0.00    +0.203 A 
ATOM     18  N   UNL     1      -3.657   0.116  23.758  0.00  0.00    -0.056 NA
ATOM     19  O   UNL     1      -3.860   0.914  23.822  0.00  0.00    -0.336 OA
BRANCH  17  20
ATOM     20  C   UNL     1      -3.714  -1.047  24.655  0.00  0.00    +0.040 A 
ATOM     21  C   UNL     1      -3.323  -1.261  25.349  0.00  0.00    +0.006 A 
ATOM     22  C   UNL     1      -3.207  -2.059  25.527  0.00  0.00    +0.031 A 
ATOM     23  C   UNL     1      -3.482  -2.641  25.011  0.00  0.00    +0.151 A 
ATOM     24  F   UNL     1      -3.367  -3.439  25.190  0.00  0.00    -0.203 F 
ATOM     25  C   UNL     1      -3.873  -2.427  24.318  0.00  0.00    +0.085 A 
ATOM     26 CL   UNL     1      -4.148  -3.009  23.801  0.00  0.00    -0.080 Cl
ATOM     27  C   UNL     1      -3.989  -1.630  24.139  0.00  0.00    +0.017 A 
ENDBRANCH  17  20
ENDBRANCH  14  15
BRANCH   9   8
ATOM      8  C   UNL     1      -3.086   2.251  24.910  0.00  0.00    +0.100 C 
BRANCH   8   7
ATOM      4  C   UNL     1      -1.530   4.172  25.018  0.00  0.00    +0.080 A 
ATOM      5  C   UNL     1      -1.964   4.032  24.332  0.00  0.00    +0.006 A 
ATOM      6  C   UNL     1      -2.483   3.391  24.296  0.00  0.00    -0.003 A 
ATOM      7  C   UNL     1      -2.567   2.891  24.946  0.00  0.00    -0.006 A 
ATOM     31  C   UNL     1      -2.132   3.032  25.633  0.00  0.00    -0.003 A 
ATOM     32  C   UNL     1      -1.613   3.672  25.669  0.00  0.00    +0.006 A 
BRANCH   4   2
ATOM      1  O   UNL     1      -1.300   5.570  25.206  0.00  0.00    -0.241 OA
ATOM      2  C   UNL     1      -1.011   4.812  25.054  0.00  0.00    +0.388 C 
ATOM      3  O   UNL     1      -0.202   4.696  24.938  0.00  0.00    -0.241 OA
ENDBRANCH   4   2
ENDBRANCH   8   7
ENDBRANCH   9   8
TORSDOF 5
ENDMDL
MODEL 2
REMARK VINA RESULT:     -12.2      3.452      6.207
REMARK  Name = 
REMARK  5 active torsions:
REMARK  status: ('A' for Active; 'I' for Inactive)
REMARK    1  A    between atoms: C_2  and  C_4
REMARK    2  A    between atoms: C_7  and  C_8
REMARK    3  A    between atoms: C_8  and  N_9
REMARK    4  A    between atoms: C_14  and  C_15
REMARK    5  A    between atoms: C_17  and  C_20
REMARK                            x       y       z     vdW  Elec       q    Type
REMARK                         _______ _______ _______ _____ _____    ______ ____
ROOT
ATOM      9  N   UNL     1      -0.674   0.411  24.565  0.00  0.00    -0.257 NA
ATOM     10  C   UNL     1      -0.497  -0.246  24.101  0.00  0.00    +0.121 C 
ATOM     11  C   UNL     1       0.155  -0.232  23.594  0.00  0.00    +0.090 A 
ATOM     12  C   UNL     1       0.629   0.442  23.553  0.00  0.00    +0.077 A 
ATOM     13  C   UNL     1       0.452   1.101  24.018  0.00  0.00    +0.073 C 
ATOM     14  C   UNL     1      -0.199   1.085  24.524  0.00  0.00    +0.144 C 
ATOM     28  N   UNL     1       1.230   0.297  23.008  0.00  0.00    -0.227 NA
ATOM     29  C   UNL     1       1.128  -0.466  22.712  0.00  0.00    +0.198 A 
ATOM     30  N   UNL     1       0.463  -0.792  23.074  0.00  0.00    -0.226 NA
ENDROOT
BRANCH  14  15
ATOM     15  C   UNL     1      -0.375   1.743  24.988  0.00  0.00    +0.251 A 
ATOM     16  N   UNL     1      -0.755   2.430  24.734  0.00  0.00    -0.190 NA
ATOM     17  C   UNL     1      -0.817   2.942  25.378  0.00  0.00    +0.203 A 
ATOM     18  N   UNL     1      -0.476   2.572  26.031  0.00  0.00    -0.056 NA
ATOM     19  O   UNL     1      -0.202   1.831  25.791  0.00  0.00    -0.336 OA
BRANCH  17  20
ATOM     20  C   UNL     1      -1.161   3.692  25.369  0.00  0.00    +0.040 A 
ATOM     21  C   UNL     1      -0.754   4.328  25.038  0.00  0.00    +0.006 A 
ATOM     22  C   UNL     1      -1.099   5.078  25.030  0.00  0.00    +0.031 A 
ATOM     23  C   UNL     1      -1.849   5.191  25.353  0.00  0.00    +0.151 A 
ATOM     24  F   UNL     1      -2.193   5.941  25.345  0.00  0.00    -0.203 F 
ATOM     25  C   UNL     1      -2.255   4.555  25.685  0.00  0.00    +0.085 A 
ATOM     26 CL   UNL     1      -3.006   4.668  26.009  0.00  0.00    -0.080 Cl
ATOM     27  C   UNL     1      -1.911   3.805  25.694  0.00  0.00    +0.017 A 
ENDBRANCH  17  20
ENDBRANCH  14  15
BRANCH   9   8
ATOM      8  C   UNL     1      -1.325   0.396  25.071  0.00  0.00    +0.100 C 
BRANCH   8   7
ATOM      4  C   UNL     1      -3.021  -1.393  24.851  0.00  0.00    +0.080 A 
ATOM      5  C   UNL     1      -2.372  -1.499  25.348  0.00  0.00    +0.006 A 
ATOM      6  C   UNL     1      -1.806  -0.903  25.421  0.00  0.00    -0.003 A 
ATOM      7  C   UNL     1      -1.890  -0.200  24.997  0.00  0.00    -0.006 A 
ATOM     31  C   UNL     1      -2.540  -0.094  24.499  0.00  0.00    -0.003 A 
ATOM     32  C   UNL     1      -3.106  -0.690  24.426  0.00  0.00    +0.006 A 
BRANCH   4   2
ATOM      1  O   UNL     1      -4.168  -1.937  24.194  0.00  0.00    -0.241 OA
ATOM      2  C   UNL     1      -3.586  -1.989  24.777  0.00  0.00    +0.388 C 
ATOM      3  O   UNL     1      -3.570  -2.638  25.286  0.00  0.00    -0.241 OA
ENDBRANCH   4   2
ENDBRANCH   8   7
ENDBRANCH   9   8
TORSDOF 5
ENDMDL
MODEL 3
REMARK VINA RESULT:     -12.2      2.658      5.114
REMARK  Name = 
REMARK  5 active torsions:
REMARK  status: ('A' for Active; 'I' for Inactive)
REMARK    1  A    between atoms: C_2  and  C_4
REMARK    2  A    between atoms: C_7  and  C_8
REMARK    3  A    between atoms: C_8  and  N_9
REMARK    4  A    between atoms: C_14  and  C_15
REMARK    5  A    between atoms: C_17  and  C_20
REMARK                            x       y       z     vdW  Elec       q    Type
REMARK                         _______ _______ _______ _____ _____    ______ ____
ROOT
ATOM      9  N   UNL     1      -4.321   1.277  24.858  0.00  0.00    -0.257 NA
ATOM     10  C   UNL     1      -4.963   0.886  25.195  0.00  0.00    +0.121 C 
ATOM     11  C   UNL     1      -5.561   1.317  25.566  0.00  0.00    +0.090 A 
ATOM     12  C   UNL     1      -5.515   2.140  25.600  0.00  0.00    +0.077 A 
ATOM     13  C   UNL     1      -4.872   2.532  25.262  0.00  0.00    +0.073 C 
ATOM     14  C   UNL     1      -4.275   2.100  24.891  0.00  0.00    +0.144 C 
ATOM     28  N   UNL     1      -6.181   2.416  25.999  0.00  0.00    -0.227 NA
ATOM     29  C   UNL     1      -6.639   1.765  26.212  0.00  0.00    +0.198 A 
ATOM     30  N   UNL     1      -6.255   1.086  25.945  0.00  0.00    -0.226 NA
ENDROOT
BRANCH  14  15
ATOM     15  C   UNL     1      -3.632   2.492  24.554  0.00  0.00    +0.251 A 
ATOM     16  N   UNL     1      -3.064   2.931  24.959  0.00  0.00    -0.190 NA
ATOM     17  C   UNL     1      -2.525   3.224  24.407  0.00  0.00    +0.203 A 
ATOM     18  N   UNL     1      -2.761   2.967  23.660  0.00  0.00    -0.056 NA
ATOM     19  O   UNL     1      -3.445   2.514  23.750  0.00  0.00    -0.336 OA
BRANCH  17  20
ATOM     20  C   UNL     1      -1.867   3.693  24.573  0.00  0.00    +0.040 A 
ATOM     21  C   UNL     1      -1.109   3.368  24.537  0.00  0.00    +0.006 A 
ATOM     22  C   UNL     1      -0.451   3.838  24.704  0.00  0.00    +0.031 A 
ATOM     23  C   UNL     1      -0.551   4.631  24.907  0.00  0.00    +0.151 A 
ATOM     24  F   UNL     1       0.107   5.100  25.073  0.00  0.00    -0.203 F 
ATOM     25  C   UNL     1      -1.309   4.955  24.943  0.00  0.00    +0.085 A 
ATOM     26 CL   UNL     1      -1.409   5.749  25.146  0.00  0.00    -0.080 Cl
ATOM     27  C   UNL     1      -1.967   4.487  24.777  0.00  0.00    +0.017 A 
ENDBRANCH  17  20
ENDBRANCH  14  15
BRANCH   9   8
ATOM      8  C   UNL     1      -3.724   0.846  24.487  0.00  0.00    +0.100 C 
BRANCH   8   7
ATOM      4  C   UNL     1      -3.657  -1.618  24.708  0.00  0.00    +0.080 A 
ATOM      5  C   UNL     1      -4.066  -1.272  24.082  0.00  0.00    +0.006 A 
ATOM      6  C   UNL     1      -4.088  -0.450  24.008  0.00  0.00    -0.003 A 
ATOM      7  C   UNL     1      -3.701   0.025  24.561  0.00  0.00    -0.006 A 
ATOM     31  C   UNL     1      -3.292  -0.323  25.188  0.00  0.00    -0.003 A 
ATOM     32  C   UNL     1      -3.270  -1.144  25.262  0.00  0.00    +0.006 A 
BRANCH   4   2
ATOM      1  O   UNL     1      -3.522  -2.785  25.524  0.00  0.00    -0.241 OA
ATOM      2  C   UNL     1      -3.635  -2.440  24.782  0.00  0.00    +0.388 C 
ATOM      3  O   UNL     1      -3.725  -2.917  24.116  0.00  0.00    -0.241 OA
ENDBRANCH   4   2
ENDBRANCH   8   7
ENDBRANCH   9   8
TORSDOF 5
ENDMDL
MODEL 4
REMARK VINA RESULT:     -12.0      2.540      3.751
REMARK  Name = 
REMARK  5 active torsions:
REMARK  status: ('A' for Active; 'I' for Inactive)
REMARK    1  A    between atoms: C_2  and  C_4
REMARK    2  A    between atoms: C_7  and  C_8
REMARK    3  A    between atoms: C_8  and  N_9
REMARK    4  A    between atoms: C_14  and  C_15
REMARK    5  A    between atoms: C_17  and  C_20
REMARK                            x       y       z     vdW  Elec       q    Type
REMARK                         _______ _______ _______ _____ _____    ______ ____
ROOT
ATOM      9  N   UNL     1      -0.477   1.087  24.663  0.00  0.00    -0.257 NA
ATOM     10  C   UNL     1       0.163   1.533  24.396  0.00  0.00    +0.121 C 
ATOM     11  C   UNL     1       0.748   1.181  23.933  0.00  0.00    +0.090 A 
ATOM     12  C   UNL     1       0.693   0.382  23.737  0.00  0.00    +0.077 A 
ATOM     13  C   UNL     1       0.053  -0.066  24.004  0.00  0.00    +0.073 C 
ATOM     14  C   UNL     1      -0.532   0.288  24.467  0.00  0.00    +0.144 C 
ATOM     28  N   UNL     1       1.348   0.186  23.277  0.00  0.00    -0.227 NA
ATOM     29  C   UNL     1       1.809   0.865  23.188  0.00  0.00    +0.198 A 
ATOM     30  N   UNL     1       1.438   1.479  23.594  0.00  0.00    -0.226 NA
ENDROOT
BRANCH  14  15
ATOM     15  C   UNL     1      -1.172  -0.160  24.733  0.00  0.00    +0.251 A 
ATOM     16  N   UNL     1      -1.774  -0.472  24.265  0.00  0.00    -0.190 NA
ATOM     17  C   UNL     1      -2.297  -0.879  24.758  0.00  0.00    +0.203 A 
ATOM     18  N   UNL     1      -2.017  -0.817  25.530  0.00  0.00    -0.056 NA
ATOM     19  O   UNL     1      -1.321  -0.373  25.516  0.00  0.00    -0.336 OA
BRANCH  17  20
ATOM     20  C   UNL     1      -2.979  -1.277  24.518  0.00  0.00    +0.040 A 
ATOM     21  C   UNL     1      -3.638  -0.851  24.267  0.00  0.00    +0.006 A 
ATOM     22  C   UNL     1      -4.320  -1.249  24.028  0.00  0.00    +0.031 A 
ATOM     23  C   UNL     1      -4.342  -2.074  24.040  0.00  0.00    +0.151 A 
ATOM     24  F   UNL     1      -5.024  -2.472  23.800  0.00  0.00    -0.203 F 
ATOM     25  C   UNL     1      -3.682  -2.500  24.291  0.00  0.00    +0.085 A 
ATOM     26 CL   UNL     1      -3.703  -3.325  24.303  0.00  0.00    -0.080 Cl
ATOM     27  C   UNL     1      -3.000  -2.102  24.530  0.00  0.00    +0.017 A 
ENDBRANCH  17  20
ENDBRANCH  14  15
BRANCH   9   8
ATOM      8  C   UNL     1      -1.061   1.439  25.125  0.00  0.00    +0.100 C 
BRANCH   8   7
ATOM      4  C   UNL     1      -1.274   3.905  25.184  0.00  0.00    +0.080 A 
ATOM      5  C   UNL     1      -0.834   3.515  25.762  0.00  0.00    +0.006 A 
ATOM      6  C   UNL     1      -0.763   2.693  25.742  0.00  0.00    -0.003 A 
ATOM      7  C   UNL     1      -1.132   2.261  25.144  0.00  0.00    -0.006 A 
ATOM     31  C   UNL     1      -1.573   2.652  24.566  0.00  0.00    -0.003 A 
ATOM     32  C   UNL     1      -1.644   3.473  24.585  0.00  0.00    +0.006 A 
BRANCH   4   2
ATOM      1  O   UNL     1      -2.010   5.075  25.546  0.00  0.00    -0.241 OA
ATOM      2  C   UNL     1      -1.345   4.726  25.203  0.00  0.00    +0.388 C 
ATOM      3  O   UNL     1      -0.751   5.200  24.881  0.00  0.00    -0.241 OA
ENDBRANCH   4   2
ENDBRANCH   8   7
ENDBRANCH   9   8
TORSDOF 5
ENDMDL
MODEL 5
REMARK VINA RESULT:     -11.7      2.754      5.528
REMARK  Name = 
REMARK  5 active torsions:
REMARK  status: ('A' for Active; 'I' for Inactive)
REMARK    1  A    between atoms: C_2  and  C_4
REMARK    2  A    between atoms: C_7  and  C_8
REMARK    3  A    between atoms: C_8  and  N_9
REMARK    4  A    between atoms: C_14  and  C_15
REMARK    5  A    between atoms: C_17  and  C_20
REMARK                            x       y       z     vdW  Elec       q    Type
REMARK                         _______ _______ _______ _____ _____    ______ ____
ROOT
ATOM      9  N   UNL     1      -2.206   0.481  24.228  0.00  0.00    -0.257 NA
ATOM     10  C   UNL     1      -1.579  -0.051  24.292  0.00  0.00    +0.121 C 
ATOM     11  C   UNL     1      -0.811   0.192  24.112  0.00  0.00    +0.090 A 
ATOM     12  C   UNL     1      -0.670   0.967  23.869  0.00  0.00    +0.077 A 
ATOM     13  C   UNL     1      -1.298   1.500  23.805  0.00  0.00    +0.073 C 
ATOM     14  C   UNL     1      -2.065   1.256  23.984  0.00  0.00    +0.144 C 
ATOM     28  N   UNL     1       0.138   1.048  23.731  0.00  0.00    -0.227 NA
ATOM     29  C   UNL     1       0.498   0.323  23.888  0.00  0.00    +0.198 A 
ATOM     30  N   UNL     1      -0.089  -0.206  24.124  0.00  0.00    -0.226 NA
ENDROOT
BRANCH  14  15
ATOM     15  C   UNL     1      -2.692   1.789  23.920  0.00  0.00    +0.251 A 
ATOM     16  N   UNL     1      -3.126   2.106  24.546  0.00  0.00    -0.190 NA
ATOM     17  C   UNL     1      -3.697   2.612  24.231  0.00  0.00    +0.203 A 
ATOM     18  N   UNL     1      -3.616   2.607  23.410  0.00  0.00    -0.056 NA
ATOM     19  O   UNL     1      -2.994   2.099  23.218  0.00  0.00    -0.336 OA
BRANCH  17  20
ATOM     20  C   UNL     1      -4.251   3.045  24.661  0.00  0.00    +0.040 A 
ATOM     21  C   UNL     1      -4.138   3.853  24.784  0.00  0.00    +0.006 A 
ATOM     22  C   UNL     1      -4.693   4.286  25.216  0.00  0.00    +0.031 A 
ATOM     23  C   UNL     1      -5.360   3.911  25.523  0.00  0.00    +0.151 A 
ATOM     24  F   UNL     1      -5.915   4.344  25.954  0.00  0.00    -0.203 F 
ATOM     25  C   UNL     1      -5.473   3.103  25.400  0.00  0.00    +0.085 A 
ATOM     26 CL   UNL     1      -6.141   2.728  25.707  0.00  0.00    -0.080 Cl
ATOM     27  C   UNL     1      -4.919   2.670  24.969  0.00  0.00    +0.017 A 
ENDBRANCH  17  20
ENDBRANCH  14  15
BRANCH   9   8
ATOM      8  C   UNL     1      -2.973   0.238  24.407  0.00  0.00    +0.100 C 
BRANCH   8   7
ATOM      4  C   UNL     1      -3.477  -2.171  24.673  0.00  0.00    +0.080 A 
ATOM      5  C   UNL     1      -3.562  -1.811  23.936  0.00  0.00    +0.006 A 
ATOM      6  C   UNL     1      -3.394  -1.008  23.848  0.00  0.00    -0.003 A 
ATOM      7  C   UNL     1      -3.141  -0.565  24.496  0.00  0.00    -0.006 A 
ATOM     31  C   UNL     1      -3.056  -0.926  25.233  0.00  0.00    -0.003 A 
ATOM     32  C   UNL     1      -3.224  -1.729  25.322  0.00  0.00    +0.006 A 
BRANCH   4   2
ATOM      1  O   UNL     1      -4.014  -3.388  24.150  0.00  0.00    -0.241 OA
ATOM      2  C   UNL     1      -3.645  -2.974  24.762  0.00  0.00    +0.388 C 
ATOM      3  O   UNL     1      -3.446  -3.363  25.461  0.00  0.00    -0.241 OA
ENDBRANCH   4   2
ENDBRANCH   8   7
ENDBRANCH   9   8
TORSDOF 5
ENDMDL
MODEL 6
REMARK VINA RESULT:     -11.4      1.894      3.125
REMARK  Name = 
REMARK  5 active torsions:
REMARK  status: ('A' for Active; 'I' for Inactive)
REMARK    1  A    between atoms: C_2  and  C_4
REMARK    2  A    between atoms: C_7  and  C_8
REMARK    3  A    between atoms: C_8  and  N_9
REMARK    4  A    between atoms: C_14  and  C_15
REMARK    5  A    between atoms: C_17  and  C_20
REMARK                            x       y       z     vdW  Elec       q    Type
REMARK                         _______ _______ _______ _____ _____    ______ ____
ROOT
ATOM      9  N   UNL     1      -2.139   1.893  24.903  0.00  0.00    -0.257 NA
ATOM     10  C   UNL     1      -1.922   2.594  25.279  0.00  0.00    +0.121 C 
ATOM     11  C   UNL     1      -1.193   2.648  25.663  0.00  0.00    +0.090 A 
ATOM     12  C   UNL     1      -0.682   2.001  25.670  0.00  0.00    +0.077 A 
ATOM     13  C   UNL     1      -0.899   1.299  25.293  0.00  0.00    +0.073 C 
ATOM     14  C   UNL     1      -1.628   1.246  24.910  0.00  0.00    +0.144 C 
ATOM     28  N   UNL     1      -0.005   2.215  26.089  0.00  0.00    -0.227 NA
ATOM     29  C   UNL     1      -0.098   2.994  26.342  0.00  0.00    +0.198 A 
ATOM     30  N   UNL     1      -0.832   3.262  26.078  0.00  0.00    -0.226 NA
ENDROOT
BRANCH  14  15
ATOM     15  C   UNL     1      -1.844   0.544  24.534  0.00  0.00    +0.251 A 
ATOM     16  N   UNL     1      -2.267  -0.078  24.872  0.00  0.00    -0.190 NA
ATOM     17  C   UNL     1      -2.360  -0.665  24.299  0.00  0.00    +0.203 A 
ATOM     18  N   UNL     1      -1.995  -0.406  23.608  0.00  0.00    -0.056 NA
ATOM     19  O   UNL     1      -1.675   0.342  23.752  0.00  0.00    -0.336 OA
BRANCH  17  20
ATOM     20  C   UNL     1      -2.750  -1.385  24.402  0.00  0.00    +0.040 A 
ATOM     21  C   UNL     1      -2.407  -1.979  24.860  0.00  0.00    +0.006 A 
ATOM     22  C   UNL     1      -2.798  -2.698  24.962  0.00  0.00    +0.031 A 
ATOM     23  C   UNL     1      -3.531  -2.823  24.607  0.00  0.00    +0.151 A 
ATOM     24  F   UNL     1      -3.923  -3.543  24.709  0.00  0.00    -0.203 F 
ATOM     25  C   UNL     1      -3.875  -2.229  24.149  0.00  0.00    +0.085 A 
ATOM     26 CL   UNL     1      -4.609  -2.354  23.794  0.00  0.00    -0.080 Cl
ATOM     27  C   UNL     1      -3.485  -1.510  24.047  0.00  0.00    +0.017 A 
ENDBRANCH  17  20
ENDBRANCH  14  15
BRANCH   9   8
ATOM      8  C   UNL     1      -2.867   1.839  24.519  0.00  0.00    +0.100 C 
BRANCH   8   7
ATOM      4  C   UNL     1      -4.745   3.290  25.221  0.00  0.00    +0.080 A 
ATOM      5  C   UNL     1      -4.619   2.568  25.598  0.00  0.00    +0.006 A 
ATOM      6  C   UNL     1      -3.993   2.085  25.365  0.00  0.00    -0.003 A 
ATOM      7  C   UNL     1      -3.493   2.323  24.753  0.00  0.00    -0.006 A 
ATOM     31  C   UNL     1      -3.619   3.046  24.376  0.00  0.00    -0.003 A 
ATOM     32  C   UNL     1      -4.246   3.530  24.609  0.00  0.00    +0.006 A 
BRANCH   4   2
ATOM      1  O   UNL     1      -5.312   4.594  25.375  0.00  0.00    -0.241 OA
ATOM      2  C   UNL     1      -5.371   3.774  25.455  0.00  0.00    +0.388 C 
ATOM      3  O   UNL     1      -6.057   3.439  25.769  0.00  0.00    -0.241 OA
ENDBRANCH   4   2
ENDBRANCH   8   7
ENDBRANCH   9   8
TORSDOF 5
ENDMDL
