REMARK  Name = 
REMARK  8 active torsions:
REMARK  status: ('A' for Active; 'I' for Inactive)
REMARK    1  A    between atoms: N_2  and  C_4
REMARK    2  A    between atoms: C_7  and  C_10
REMARK    3  A    between atoms: N_15  and  S_35
REMARK    4  A    between atoms: C_16  and  C_18
REMARK    5  A    between atoms: N_20  and  C_21
REMARK    6  A    between atoms: C_21  and  C_22
REMARK    7  A    between atoms: C_21  and  C_32
REMARK    8  A    between atoms: C_22  and  C_23
REMARK                            x       y       z     vdW  Elec       q    Type
REMARK                         _______ _______ _______ _____ _____    ______ ____
ROOT
ATOM     10  C   UNL     1      -4.391   3.794   0.000  0.00  0.00    +0.249 C 
ATOM     11  O   UNL     1      -4.943   3.181   0.000  0.00  0.00    -0.270 OA
ATOM     12  N   UNL     1      -3.584   3.623   0.000  0.00  0.00    -0.273 N 
ATOM     13  C   UNL     1      -3.032   4.236   0.000  0.00  0.00    +0.113 C 
ATOM     14  C   UNL     1      -2.225   4.064   0.000  0.00  0.00    +0.117 C 
ATOM     15  N   UNL     1      -1.970   3.280   0.000  0.00  0.00    -0.148 NA
ATOM     16  C   UNL     1      -2.522   2.666   0.000  0.00  0.00    +0.176 C 
ATOM     17  C   UNL     1      -3.329   2.838   0.000  0.00  0.00    +0.121 C 
ENDROOT
BRANCH  10   7
ATOM      4  C   UNL     1      -5.156   6.148   0.000  0.00  0.00    +0.048 A 
ATOM      5  C   UNL     1      -4.349   5.976   0.000  0.00  0.00    +0.015 A 
ATOM      6  C   UNL     1      -4.094   5.192   0.000  0.00  0.00    +0.006 A 
ATOM      7  C   UNL     1      -4.646   4.579   0.000  0.00  0.00    +0.054 A 
ATOM      8  C   UNL     1      -5.453   4.750   0.000  0.00  0.00    +0.006 A 
ATOM      9  C   UNL     1      -5.708   5.535   0.000  0.00  0.00    +0.015 A 
BRANCH   4   2
ATOM      1  C   UNL     1      -6.218   7.104   0.000  0.00  0.00    +0.112 C 
ATOM      2  N   UNL     1      -5.411   6.933   0.000  0.00  0.00    -0.304 N 
ATOM      3  C   UNL     1      -4.859   7.546   0.000  0.00  0.00    +0.112 C 
ENDBRANCH   4   2
ENDBRANCH  10   7
BRANCH  15  35
ATOM     35  S   UNL     1      -1.163   3.108   0.000  0.00  0.00    +0.046 S 
ATOM     36  C   UNL     1      -0.356   2.937   0.000  0.00  0.00    +0.196 C 
ATOM     37  O   UNL     1      -1.335   2.301   0.000  0.00  0.00    -0.157 OA
ATOM     38  O   UNL     1      -0.992   3.915   0.000  0.00  0.00    -0.157 OA
ENDBRANCH  15  35
BRANCH  16  18
ATOM     18  C   UNL     1      -2.267   1.882   0.000  0.00  0.00    +0.260 C 
ATOM     19  O   UNL     1      -2.819   1.269   0.000  0.00  0.00    -0.272 OA
ATOM     20  N   UNL     1      -1.460   1.710   0.000  0.00  0.00    -0.196 NA
BRANCH  20  21
ATOM     21  C   UNL     1      -1.205   0.926   0.000  0.00  0.00    +0.179 C 
BRANCH  21  32
ATOM     32  C   UNL     1      -1.758   0.313   0.000  0.00  0.00    +0.281 C 
ATOM     33  N   UNL     1      -1.502  -0.472   0.000  0.00  0.00    -0.086 NA
ATOM     34  O   UNL     1      -2.564   0.484   0.000  0.00  0.00    -0.270 OA
ENDBRANCH  21  32
BRANCH  21  22
ATOM     22  C   UNL     1      -0.398   0.754   0.000  0.00  0.00    +0.059 C 
BRANCH  22  23
ATOM     23  C   UNL     1      -0.143  -0.030   0.000  0.00  0.00    +0.001 A 
ATOM     24  C   UNL     1      -0.628  -0.698   0.000  0.00  0.00    +0.095 A 
ATOM     25  N   UNL     1      -0.143  -1.365   0.000  0.00  0.00    -0.244 NA
ATOM     26  C   UNL     1       0.641  -1.110   0.000  0.00  0.00    +0.081 A 
ATOM     27  C   UNL     1       0.641  -0.285   0.000  0.00  0.00    +0.015 A 
ATOM     28  C   UNL     1       1.356   0.127   0.000  0.00  0.00    +0.001 A 
ATOM     29  C   UNL     1       2.070  -0.285   0.000  0.00  0.00    +0.000 A 
ATOM     30  C   UNL     1       2.070  -1.110   0.000  0.00  0.00    +0.002 A 
ATOM     31  C   UNL     1       1.356  -1.523   0.000  0.00  0.00    +0.019 A 
ENDBRANCH  22  23
ENDBRANCH  21  22
ENDBRANCH  20  21
ENDBRANCH  16  18
TORSDOF 8
