MODEL 1
REMARK VINA RESULT:     -15.1      0.000      0.000
REMARK  Name = 
REMARK  5 active torsions:
REMARK  status: ('A' for Active; 'I' for Inactive)
REMARK    1  A    between atoms: C_5  and  S_8
REMARK    2  A    between atoms: S_8  and  N_11
REMARK    3  A    between atoms: N_11  and  C_12
REMARK    4  A    between atoms: N_20  and  C_21
REMARK    5  A    between atoms: C_21  and  C_22
REMARK                            x       y       z     vdW  Elec       q    Type
REMARK                         _______ _______ _______ _____ _____    ______ ____
ROOT
ATOM     12  C   UNL     1      -3.780   1.272  24.584  0.00  0.00    +0.147 A 
ATOM     13  C   UNL     1      -4.566   1.025  24.625  0.00  0.00    +0.024 A 
ATOM     14  C   UNL     1      -5.144   1.536  24.917  0.00  0.00    +0.014 A 
ATOM     15  C   UNL     1      -4.936   2.294  25.168  0.00  0.00    +0.041 A 
ATOM     16  C   UNL     1      -5.308   3.057  25.521  0.00  0.00    +0.054 C 
ATOM     17  C   UNL     1      -5.923   3.324  25.727  0.00  0.00    +0.011 C 
ATOM     18  C   UNL     1      -5.146   3.564  25.685  0.00  0.00    +0.039 C 
ATOM     19  C   UNL     1      -4.276   4.031  25.713  0.00  0.00    +0.074 C 
ATOM     20  N   UNL     1      -3.785   3.431  25.402  0.00  0.00    -0.272 NA
ATOM     28  C   UNL     1      -4.475   3.522  25.554  0.00  0.00    +0.078 C 
ATOM     29  C   UNL     1      -4.748   2.772  25.317  0.00  0.00    +0.110 C 
ATOM     30  N   UNL     1      -4.149   2.540  25.127  0.00  0.00    -0.298 N 
ATOM     31  C   UNL     1      -3.571   2.029  24.835  0.00  0.00    +0.277 A 
ATOM     32  O   UNL     1      -2.785   2.276  24.794  0.00  0.00    -0.266 OA
ENDROOT
BRANCH  12  11
ATOM     11  N   UNL     1      -3.203   0.760  24.292  0.00  0.00    -0.092 NA
BRANCH  11   8
ATOM      8  S   UNL     1      -3.310  -0.056  24.346  0.00  0.00    +0.093 S 
ATOM      9  O   UNL     1      -2.974  -0.050  25.099  0.00  0.00    -0.148 OA
ATOM     10  O   UNL     1      -3.646  -0.062  23.592  0.00  0.00    -0.148 OA
BRANCH   8   5
ATOM      1  C   UNL     1      -3.740  -3.321  24.561  0.00  0.00    +0.031 C 
ATOM      2  C   UNL     1      -3.633  -2.505  24.507  0.00  0.00    -0.022 A 
ATOM      3  C   UNL     1      -4.022  -2.076  23.921  0.00  0.00    -0.003 A 
ATOM      4  C   UNL     1      -3.915  -1.259  23.867  0.00  0.00    +0.020 A 
ATOM      5  C   UNL     1      -3.418  -0.872  24.400  0.00  0.00    +0.127 A 
ATOM      6  C   UNL     1      -3.028  -1.302  24.986  0.00  0.00    +0.020 A 
ATOM      7  C   UNL     1      -3.136  -2.118  25.040  0.00  0.00    -0.003 A 
ENDBRANCH   8   5
ENDBRANCH  11   8
ENDBRANCH  12  11
BRANCH  20  21
ATOM     21  C   UNL     1      -3.096   3.058  25.143  0.00  0.00    +0.072 C 
BRANCH  21  22
ATOM     22  C   UNL     1      -2.372   3.451  25.186  0.00  0.00    +0.016 C 
ATOM     23  C   UNL     1      -2.184   4.031  24.630  0.00  0.00    +0.001 C 
ATOM     24  C   UNL     1      -1.460   4.425  24.673  0.00  0.00    +0.000 C 
ATOM     25  C   UNL     1      -0.925   4.238  25.272  0.00  0.00    +0.000 C 
ATOM     26  C   UNL     1      -1.112   3.659  25.828  0.00  0.00    +0.000 C 
ATOM     27  C   UNL     1      -1.836   3.265  25.785  0.00  0.00    +0.001 C 
ENDBRANCH  21  22
ENDBRANCH  20  21
TORSDOF 5
ENDMDL
MODEL 2
REMARK VINA RESULT:     -13.3      1.120      4.478
REMARK  Name = 
REMARK  5 active torsions:
REMARK  status: ('A' for Active; 'I' for Inactive)
REMARK    1  A    between atoms: C_5  and  S_8
REMARK    2  A    between atoms: S_8  and  N_11
REMARK    3  A    between atoms: N_11  and  C_12
REMARK    4  A    between atoms: N_20  and  C_21
REMARK    5  A    between atoms: C_21  and  C_22
REMARK                            x       y       z     vdW  Elec       q    Type
REMARK                         _______ _______ _______ _____ _____    ______ ____
ROOT
ATOM     12  C   UNL     1      -3.272   2.202  25.006  0.00  0.00    +0.147 A 
ATOM     13  C   UNL     1      -3.661   2.928  25.054  0.00  0.00    +0.024 A 
ATOM     14  C   UNL     1      -4.485   2.954  25.078  0.00  0.00    +0.014 A 
ATOM     15  C   UNL     1      -4.920   2.253  25.055  0.00  0.00    +0.041 A 
ATOM     16  C   UNL     1      -5.788   1.952  25.063  0.00  0.00    +0.054 C 
ATOM     17  C   UNL     1      -6.450   2.182  25.093  0.00  0.00    +0.011 C 
ATOM     18  C   UNL     1      -6.063   1.467  25.046  0.00  0.00    +0.039 C 
ATOM     19  C   UNL     1      -5.784   0.521  24.990  0.00  0.00    +0.074 C 
ATOM     20  N   UNL     1      -4.955   0.621  24.972  0.00  0.00    -0.272 NA
ATOM     28  C   UNL     1      -5.534   1.033  25.009  0.00  0.00    +0.078 C 
ATOM     29  C   UNL     1      -5.153   1.773  25.036  0.00  0.00    +0.110 C 
ATOM     30  N   UNL     1      -4.531   1.527  25.007  0.00  0.00    -0.298 N 
ATOM     31  C   UNL     1      -3.707   1.501  24.983  0.00  0.00    +0.277 A 
ATOM     32  O   UNL     1      -3.318   0.775  24.935  0.00  0.00    -0.266 OA
ENDROOT
BRANCH  12  11
ATOM     11  N   UNL     1      -2.448   2.177  24.983  0.00  0.00    -0.092 NA
BRANCH  11   8
ATOM      8  S   UNL     1      -2.016   2.878  24.927  0.00  0.00    +0.093 S 
ATOM      9  O   UNL     1      -1.985   2.924  25.750  0.00  0.00    -0.148 OA
ATOM     10  O   UNL     1      -2.046   2.831  24.103  0.00  0.00    -0.148 OA
BRANCH   8   5
ATOM      1  C   UNL     1      -0.288   5.681  24.703  0.00  0.00    +0.031 C 
ATOM      2  C   UNL     1      -0.720   4.980  24.759  0.00  0.00    -0.022 A 
ATOM      3  C   UNL     1      -1.389   4.945  25.240  0.00  0.00    -0.003 A 
ATOM      4  C   UNL     1      -1.821   4.244  25.296  0.00  0.00    +0.020 A 
ATOM      5  C   UNL     1      -1.584   3.578  24.871  0.00  0.00    +0.127 A 
ATOM      6  C   UNL     1      -0.915   3.613  24.389  0.00  0.00    +0.020 A 
ATOM      7  C   UNL     1      -0.483   4.314  24.334  0.00  0.00    -0.003 A 
ENDBRANCH   8   5
ENDBRANCH  11   8
ENDBRANCH  12  11
BRANCH  20  21
ATOM     21  C   UNL     1      -4.155   0.417  24.940  0.00  0.00    +0.072 C 
BRANCH  21  22
ATOM     22  C   UNL     1      -3.934  -0.376  24.897  0.00  0.00    +0.016 C 
ATOM     23  C   UNL     1      -3.699  -0.777  25.578  0.00  0.00    +0.001 C 
ATOM     24  C   UNL     1      -3.477  -1.571  25.535  0.00  0.00    +0.000 C 
ATOM     25  C   UNL     1      -3.490  -1.963  24.810  0.00  0.00    +0.000 C 
ATOM     26  C   UNL     1      -3.725  -1.563  24.128  0.00  0.00    +0.000 C 
ATOM     27  C   UNL     1      -3.947  -0.769  24.171  0.00  0.00    +0.001 C 
ENDBRANCH  21  22
ENDBRANCH  20  21
TORSDOF 5
ENDMDL
MODEL 3
REMARK VINA RESULT:     -13.2      1.697      3.040
REMARK  Name = 
REMARK  5 active torsions:
REMARK  status: ('A' for Active; 'I' for Inactive)
REMARK    1  A    between atoms: C_5  and  S_8
REMARK    2  A    between atoms: S_8  and  N_11
REMARK    3  A    between atoms: N_11  and  C_12
REMARK    4  A    between atoms: N_20  and  C_21
REMARK    5  A    between atoms: C_21  and  C_22
REMARK                            x       y       z     vdW  Elec       q    Type
REMARK                         _______ _______ _______ _____ _____    ______ ____
ROOT
ATOM     12  C   UNL     1      -1.980   0.501  25.080  0.00  0.00    +0.147 A 
ATOM     13  C   UNL     1      -1.402  -0.040  24.849  0.00  0.00    +0.024 A 
ATOM     14  C   UNL     1      -0.669   0.227  24.582  0.00  0.00    +0.014 A 
ATOM     15  C   UNL     1      -0.513   1.036  24.547  0.00  0.00    +0.041 A 
ATOM     16  C   UNL     1       0.153   1.625  24.315  0.00  0.00    +0.054 C 
ATOM     17  C   UNL     1       0.811   1.644  24.070  0.00  0.00    +0.011 C 
ATOM     18  C   UNL     1       0.238   2.176  24.299  0.00  0.00    +0.039 C 
ATOM     19  C   UNL     1      -0.315   2.963  24.528  0.00  0.00    +0.074 C 
ATOM     20  N   UNL     1      -1.012   2.576  24.778  0.00  0.00    -0.272 NA
ATOM     28  C   UNL     1      -0.368   2.395  24.532  0.00  0.00    +0.078 C 
ATOM     29  C   UNL     1      -0.464   1.568  24.544  0.00  0.00    +0.110 C 
ATOM     30  N   UNL     1      -1.091   1.578  24.779  0.00  0.00    -0.298 N 
ATOM     31  C   UNL     1      -1.824   1.311  25.045  0.00  0.00    +0.277 A 
ATOM     32  O   UNL     1      -2.402   1.852  25.276  0.00  0.00    -0.266 OA
ENDROOT
BRANCH  12  11
ATOM     11  N   UNL     1      -2.713   0.233  25.346  0.00  0.00    -0.092 NA
BRANCH  11   8
ATOM      8  S   UNL     1      -3.028  -0.469  25.048  0.00  0.00    +0.093 S 
ATOM      9  O   UNL     1      -3.330  -0.057  24.400  0.00  0.00    -0.148 OA
ATOM     10  O   UNL     1      -2.726  -0.880  25.696  0.00  0.00    -0.148 OA
BRANCH   8   5
ATOM      1  C   UNL     1      -4.288  -3.276  23.855  0.00  0.00    +0.031 C 
ATOM      2  C   UNL     1      -3.973  -2.574  24.153  0.00  0.00    -0.022 A 
ATOM      3  C   UNL     1      -3.429  -2.597  24.772  0.00  0.00    -0.003 A 
ATOM      4  C   UNL     1      -3.114  -1.895  25.071  0.00  0.00    +0.020 A 
ATOM      5  C   UNL     1      -3.343  -1.170  24.750  0.00  0.00    +0.127 A 
ATOM      6  C   UNL     1      -3.887  -1.148  24.130  0.00  0.00    +0.020 A 
ATOM      7  C   UNL     1      -4.202  -1.850  23.832  0.00  0.00    -0.003 A 
ENDBRANCH   8   5
ENDBRANCH  11   8
ENDBRANCH  12  11
BRANCH  20  21
ATOM     21  C   UNL     1      -1.781   2.484  25.062  0.00  0.00    +0.072 C 
BRANCH  21  22
ATOM     22  C   UNL     1      -2.235   3.148  25.245  0.00  0.00    +0.016 C 
ATOM     23  C   UNL     1      -2.158   3.511  25.981  0.00  0.00    +0.001 C 
ATOM     24  C   UNL     1      -2.613   4.176  26.163  0.00  0.00    +0.000 C 
ATOM     25  C   UNL     1      -3.145   4.476  25.609  0.00  0.00    +0.000 C 
ATOM     26  C   UNL     1      -3.223   4.113  24.873  0.00  0.00    +0.000 C 
ATOM     27  C   UNL     1      -2.768   3.448  24.690  0.00  0.00    +0.001 C 
ENDBRANCH  21  22
ENDBRANCH  20  21
TORSDOF 5
ENDMDL
