MODEL 1
REMARK VINA RESULT:     -12.7      0.000      0.000
REMARK  Name = 
REMARK  3 active torsions:
REMARK  status: ('A' for Active; 'I' for Inactive)
REMARK    1  A    between atoms: C_7  and  C_9
REMARK    2  A    between atoms: N_12  and  C_13
REMARK    3  A    between atoms: C_13  and  C_14
REMARK                            x       y       z     vdW  Elec       q    Type
REMARK                         _______ _______ _______ _____ _____    ______ ____
ROOT
ATOM      9  C   UNL     1      -4.365   1.003  24.749  0.00  0.00    +0.094 C 
ATOM     10  C   UNL     1      -5.042   1.352  25.065  0.00  0.00    +0.028 C 
ATOM     11  C   UNL     1      -4.968   2.170  24.987  0.00  0.00    +0.073 C 
ATOM     12  N   UNL     1      -4.245   2.326  24.622  0.00  0.00    -0.268 NA
ATOM     20  C   UNL     1      -3.873   1.605  24.474  0.00  0.00    +0.082 C 
ENDROOT
BRANCH   9   7
ATOM      1  F   UNL     1      -3.229  -3.123  25.317  0.00  0.00    -0.204 F 
ATOM      2  C   UNL     1      -3.531  -2.438  24.972  0.00  0.00    +0.142 A 
ATOM      3  C   UNL     1      -3.499  -1.722  25.379  0.00  0.00    +0.052 A 
ATOM      4  C   UNL     1      -3.801  -1.036  25.034  0.00  0.00    +0.121 A 
ATOM      5  C   UNL     1      -4.135  -1.067  24.281  0.00  0.00    +0.165 A 
ATOM      6  O   UNL     1      -4.387  -0.307  24.082  0.00  0.00    -0.438 OA
ATOM      7  C   UNL     1      -4.209   0.193  24.713  0.00  0.00    +0.207 A 
ATOM      8  N   UNL     1      -3.847  -0.257  25.301  0.00  0.00    -0.212 NA
ATOM     21  C   UNL     1      -4.167  -1.783  23.872  0.00  0.00    +0.041 A 
ATOM     22  C   UNL     1      -3.865  -2.468  24.218  0.00  0.00    +0.033 A 
ENDBRANCH   9   7
BRANCH  12  13
ATOM     13  C   UNL     1      -3.946   3.072  24.436  0.00  0.00    +0.099 C 
BRANCH  13  14
ATOM     14  C   UNL     1      -3.380   3.424  24.924  0.00  0.00    -0.006 A 
ATOM     15  C   UNL     1      -3.612   3.790  25.627  0.00  0.00    -0.003 A 
ATOM     16  C   UNL     1      -3.046   4.141  26.113  0.00  0.00    -0.000 A 
ATOM     17  C   UNL     1      -2.250   4.127  25.899  0.00  0.00    -0.000 A 
ATOM     18  C   UNL     1      -2.019   3.761  25.196  0.00  0.00    -0.000 A 
ATOM     19  C   UNL     1      -2.584   3.409  24.708  0.00  0.00    -0.003 A 
ENDBRANCH  13  14
ENDBRANCH  12  13
TORSDOF 3
ENDMDL
MODEL 2
REMARK VINA RESULT:     -12.5      2.266      5.066
REMARK  Name = 
REMARK  3 active torsions:
REMARK  status: ('A' for Active; 'I' for Inactive)
REMARK    1  A    between atoms: C_7  and  C_9
REMARK    2  A    between atoms: N_12  and  C_13
REMARK    3  A    between atoms: C_13  and  C_14
REMARK                            x       y       z     vdW  Elec       q    Type
REMARK                         _______ _______ _______ _____ _____    ______ ____
ROOT
ATOM      9  C   UNL     1      -3.045   1.672  24.361  0.00  0.00    +0.094 C 
ATOM     10  C   UNL     1      -3.133   1.358  23.604  0.00  0.00    +0.028 C 
ATOM     11  C   UNL     1      -3.615   0.690  23.658  0.00  0.00    +0.073 C 
ATOM     12  N   UNL     1      -3.825   0.591  24.449  0.00  0.00    -0.268 NA
ATOM     20  C   UNL     1      -3.473   1.198  24.884  0.00  0.00    +0.082 C 
ENDROOT
BRANCH   9   7
ATOM      1  F   UNL     1      -1.489   5.553  25.432  0.00  0.00    -0.204 F 
ATOM      2  C   UNL     1      -1.521   4.753  25.236  0.00  0.00    +0.142 A 
ATOM      3  C   UNL     1      -2.248   4.394  25.086  0.00  0.00    +0.052 A 
ATOM      4  C   UNL     1      -2.280   3.593  24.891  0.00  0.00    +0.121 A 
ATOM      5  C   UNL     1      -1.585   3.151  24.845  0.00  0.00    +0.165 A 
ATOM      6  O   UNL     1      -1.787   2.378  24.641  0.00  0.00    -0.438 OA
ATOM      7  C   UNL     1      -2.607   2.341  24.561  0.00  0.00    +0.207 A 
ATOM      8  N   UNL     1      -2.911   3.092  24.715  0.00  0.00    -0.212 NA
ATOM     21  C   UNL     1      -0.857   3.510  24.995  0.00  0.00    +0.041 A 
ATOM     22  C   UNL     1      -0.825   4.311  25.191  0.00  0.00    +0.033 A 
ENDBRANCH   9   7
BRANCH  12  13
ATOM     13  C   UNL     1      -4.303  -0.008  24.754  0.00  0.00    +0.099 C 
BRANCH  13  14
ATOM     14  C   UNL     1      -4.023  -0.784  24.785  0.00  0.00    -0.006 A 
ATOM     15  C   UNL     1      -3.602  -1.045  25.445  0.00  0.00    -0.003 A 
ATOM     16  C   UNL     1      -3.323  -1.820  25.475  0.00  0.00    -0.000 A 
ATOM     17  C   UNL     1      -3.464  -2.335  24.847  0.00  0.00    -0.000 A 
ATOM     18  C   UNL     1      -3.885  -2.074  24.186  0.00  0.00    -0.000 A 
ATOM     19  C   UNL     1      -4.165  -1.298  24.155  0.00  0.00    -0.003 A 
ENDBRANCH  13  14
ENDBRANCH  12  13
TORSDOF 3
ENDMDL
MODEL 3
REMARK VINA RESULT:     -11.8      1.753      2.306
REMARK  Name = 
REMARK  3 active torsions:
REMARK  status: ('A' for Active; 'I' for Inactive)
REMARK    1  A    between atoms: C_7  and  C_9
REMARK    2  A    between atoms: N_12  and  C_13
REMARK    3  A    between atoms: C_13  and  C_14
REMARK                            x       y       z     vdW  Elec       q    Type
REMARK                         _______ _______ _______ _____ _____    ______ ____
ROOT
ATOM      9  C   UNL     1      -1.660   0.855  24.781  0.00  0.00    +0.094 C 
ATOM     10  C   UNL     1      -1.046   1.057  24.269  0.00  0.00    +0.028 C 
ATOM     11  C   UNL     1      -0.673   1.728  24.569  0.00  0.00    +0.073 C 
ATOM     12  N   UNL     1      -1.056   1.942  25.267  0.00  0.00    -0.268 NA
ATOM     20  C   UNL     1      -1.666   1.402  25.399  0.00  0.00    +0.082 C 
ENDROOT
BRANCH   9   7
ATOM      1  F   UNL     1      -4.792  -1.959  23.830  0.00  0.00    -0.204 F 
ATOM      2  C   UNL     1      -4.106  -1.636  24.153  0.00  0.00    +0.142 A 
ATOM      3  C   UNL     1      -3.898  -0.857  23.984  0.00  0.00    +0.052 A 
ATOM      4  C   UNL     1      -3.211  -0.533  24.308  0.00  0.00    +0.121 A 
ATOM      5  C   UNL     1      -2.733  -0.990  24.801  0.00  0.00    +0.165 A 
ATOM      6  O   UNL     1      -2.094  -0.526  25.038  0.00  0.00    -0.438 OA
ATOM      7  C   UNL     1      -2.177   0.218  24.692  0.00  0.00    +0.207 A 
ATOM      8  N   UNL     1      -2.867   0.213  24.241  0.00  0.00    -0.212 NA
ATOM     21  C   UNL     1      -2.942  -1.771  24.971  0.00  0.00    +0.041 A 
ATOM     22  C   UNL     1      -3.628  -2.093  24.647  0.00  0.00    +0.033 A 
ENDBRANCH   9   7
BRANCH  12  13
ATOM     13  C   UNL     1      -0.863   2.582  25.750  0.00  0.00    +0.099 C 
BRANCH  13  14
ATOM     14  C   UNL     1      -1.151   3.335  25.572  0.00  0.00    -0.006 A 
ATOM     15  C   UNL     1      -1.899   3.564  25.834  0.00  0.00    -0.003 A 
ATOM     16  C   UNL     1      -2.185   4.316  25.655  0.00  0.00    -0.000 A 
ATOM     17  C   UNL     1      -1.725   4.840  25.216  0.00  0.00    -0.000 A 
ATOM     18  C   UNL     1      -0.976   4.612  24.954  0.00  0.00    -0.000 A 
ATOM     19  C   UNL     1      -0.689   3.858  25.132  0.00  0.00    -0.003 A 
ENDBRANCH  13  14
ENDBRANCH  12  13
TORSDOF 3
ENDMDL
