REMARK  Name = 
REMARK  6 active torsions:
REMARK  status: ('A' for Active; 'I' for Inactive)
REMARK    1  A    between atoms: C_2  and  C_4
REMARK    2  A    between atoms: C_6  and  C_7
REMARK    3  A    between atoms: C_7  and  C_8
REMARK    4  A    between atoms: C_20  and  C_21
REMARK    5  A    between atoms: C_21  and  N_22
REMARK    6  A    between atoms: C_23  and  C_25
REMARK                            x       y       z     vdW  Elec       q    Type
REMARK                         _______ _______ _______ _____ _____    ______ ____
ROOT
ATOM      4  C   UNL     1       2.858  -2.475   0.000  0.00  0.00    +0.006 C 
ATOM      5  C   UNL     1       3.572  -2.888   0.000  0.00  0.00    +0.005 C 
ATOM      6  C   UNL     1       3.572  -3.712   0.000  0.00  0.00    +0.027 C 
ATOM     17  C   UNL     1       2.858  -4.125   0.000  0.00  0.00    -0.048 C 
ATOM     18  C   UNL     1       2.858  -4.950   0.000  0.00  0.00    +0.026 C 
ATOM     19  C   UNL     1       2.143  -3.712   0.000  0.00  0.00    -0.033 C 
ATOM     20  C   UNL     1       2.143  -2.888   0.000  0.00  0.00    +0.043 C 
ENDROOT
BRANCH   4   2
ATOM      1  C   UNL     1       2.143  -1.238   0.000  0.00  0.00    +0.000 C 
ATOM      2  C   UNL     1       2.858  -1.650   0.000  0.00  0.00    +0.000 C 
ATOM      3  C   UNL     1       3.572  -1.238   0.000  0.00  0.00    +0.000 C 
ENDBRANCH   4   2
BRANCH   6   7
ATOM      7  C   UNL     1       4.287  -4.125   0.000  0.00  0.00    +0.089 C 
BRANCH   7   8
ATOM      8  C   UNL     1       4.287  -4.950   0.000  0.00  0.00    +0.226 C 
ATOM      9  O   UNL     1       3.572  -5.362   0.000  0.00  0.00    -0.275 OA
ATOM     10  N   UNL     1       5.001  -5.362   0.000  0.00  0.00    -0.277 N 
ATOM     11  C   UNL     1       5.716  -4.950   0.000  0.00  0.00    +0.111 C 
ATOM     12  C   UNL     1       6.430  -5.362   0.000  0.00  0.00    +0.094 C 
ATOM     13  N   UNL     1       6.430  -6.188   0.000  0.00  0.00    -0.269 NA
ATOM     14  C   UNL     1       7.145  -6.600   0.000  0.00  0.00    +0.090 C 
ATOM     15  C   UNL     1       5.716  -6.600   0.000  0.00  0.00    +0.094 C 
ATOM     16  C   UNL     1       5.001  -6.188   0.000  0.00  0.00    +0.111 C 
ENDBRANCH   7   8
ENDBRANCH   6   7
BRANCH  20  21
ATOM     21  C   UNL     1       1.429  -2.475   0.000  0.00  0.00    +0.119 C 
BRANCH  21  22
ATOM     22  N   UNL     1       1.429  -1.650   0.000  0.00  0.00    -0.205 NA
ATOM     23  C   UNL     1       0.715  -1.238   0.000  0.00  0.00    +0.241 C 
ATOM     24  O   UNL     1       0.000  -1.650   0.000  0.00  0.00    -0.273 OA
BRANCH  23  25
ATOM     25  C   UNL     1       0.715  -0.412   0.000  0.00  0.00    +0.078 C 
ATOM     26  C   UNL     1       0.000   0.000   0.000  0.00  0.00    +0.009 C 
ATOM     27  C   UNL     1       0.000   0.825   0.000  0.00  0.00    +0.000 C 
ATOM     28  C   UNL     1       0.715   1.238   0.000  0.00  0.00    +0.000 C 
ATOM     29  C   UNL     1       1.429   0.825   0.000  0.00  0.00    +0.000 C 
ATOM     30  C   UNL     1       1.429   0.000   0.000  0.00  0.00    +0.009 C 
ENDBRANCH  23  25
ENDBRANCH  21  22
ENDBRANCH  20  21
TORSDOF 6
