MODEL 1
REMARK VINA RESULT:     -12.2      0.000      0.000
REMARK  Name = 
REMARK  9 active torsions:
REMARK  status: ('A' for Active; 'I' for Inactive)
REMARK    1  A    between atoms: C_2  and  C_3
REMARK    2  A    between atoms: C_3  and  C_4
REMARK    3  A    between atoms: C_9  and  C_10
REMARK    4  A    between atoms: C_10  and  C_11
REMARK    5  A    between atoms: C_14  and  C_15
REMARK    6  A    between atoms: C_15  and  S_16
REMARK    7  A    between atoms: S_16  and  C_17
REMARK    8  A    between atoms: N_24  and  C_25
REMARK    9  A    between atoms: C_25  and  C_26
REMARK                            x       y       z     vdW  Elec       q    Type
REMARK                         _______ _______ _______ _____ _____    ______ ____
ROOT
ATOM      4  C   UNL     1      -2.817   3.605  25.012  0.00  0.00    +0.012 C 
ATOM      5  C   UNL     1      -2.467   4.014  25.637  0.00  0.00    +0.019 C 
ATOM      6  C   UNL     1      -2.919   4.229  26.293  0.00  0.00    +0.089 C 
ATOM      7  N   UNL     1      -3.720   4.035  26.324  0.00  0.00    -0.218 NA
ATOM      8  C   UNL     1      -4.070   3.626  25.699  0.00  0.00    +0.089 C 
ATOM      9  C   UNL     1      -3.619   3.410  25.043  0.00  0.00    +0.024 C 
ENDROOT
BRANCH   4   3
ATOM      3  C   UNL     1      -2.365   3.390  24.356  0.00  0.00    +0.087 C 
BRANCH   3   2
ATOM      1  O   UNL     1      -1.003   3.634  24.708  0.00  0.00    -0.273 OA
ATOM      2  C   UNL     1      -1.594   3.116  24.458  0.00  0.00    +0.242 C 
ATOM     24  N   UNL     1      -1.414   2.325  24.309  0.00  0.00    -0.201 NA
BRANCH  24  25
ATOM     25  C   UNL     1      -0.643   2.052  24.411  0.00  0.00    +0.142 C 
BRANCH  25  26
ATOM     26  C   UNL     1      -0.472   1.250  24.311  0.00  0.00    +0.003 A 
ATOM     27  C   UNL     1      -0.181   0.977  23.588  0.00  0.00    +0.001 A 
ATOM     28  C   UNL     1      -0.011   0.177  23.488  0.00  0.00    +0.040 A 
ATOM     29  C   UNL     1      -0.132  -0.352  24.110  0.00  0.00    +0.176 A 
ATOM     30  O   UNL     1      -0.015  -1.165  24.174  0.00  0.00    -0.435 OA
ATOM     31  C   UNL     1      -0.233  -1.396  24.935  0.00  0.00    +0.429 C 
ATOM     32  O   UNL     1      -0.485  -0.725  25.342  0.00  0.00    -0.435 OA
ATOM     33  C   UNL     1      -0.422  -0.079  24.833  0.00  0.00    +0.176 A 
ATOM     34  C   UNL     1      -0.593   0.722  24.933  0.00  0.00    +0.038 A 
ENDBRANCH  25  26
ENDBRANCH  24  25
ENDBRANCH   3   2
ENDBRANCH   4   3
BRANCH   9  10
ATOM     10  C   UNL     1      -3.968   3.001  24.418  0.00  0.00    +0.051 C 
BRANCH  10  11
ATOM     11  C   UNL     1      -4.401   2.315  24.566  0.00  0.00    +0.100 A 
ATOM     12  N   UNL     1      -5.204   2.279  24.750  0.00  0.00    -0.082 NA
ATOM     13  O   UNL     1      -5.407   1.485  24.853  0.00  0.00    -0.357 OA
ATOM     14  C   UNL     1      -4.729   1.031  24.732  0.00  0.00    +0.165 A 
ATOM     23  C   UNL     1      -4.107   1.544  24.554  0.00  0.00    +0.054 A 
BRANCH  14  15
ATOM     15  C   UNL     1      -4.681   0.209  24.781  0.00  0.00    +0.129 C 
BRANCH  15  16
ATOM     16  S   UNL     1      -4.142  -0.200  24.309  0.00  0.00    -0.105 S 
BRANCH  16  17
ATOM     17  C   UNL     1      -4.003  -1.002  24.443  0.00  0.00    +0.026 A 
ATOM     18  C   UNL     1      -3.804  -1.265  25.200  0.00  0.00    +0.006 A 
ATOM     19  C   UNL     1      -3.665  -2.067  25.335  0.00  0.00    +0.001 A 
ATOM     20  C   UNL     1      -3.725  -2.606  24.713  0.00  0.00    +0.000 A 
ATOM     21  C   UNL     1      -3.923  -2.344  23.958  0.00  0.00    +0.001 A 
ATOM     22  C   UNL     1      -4.063  -1.542  23.822  0.00  0.00    +0.006 A 
ENDBRANCH  16  17
ENDBRANCH  15  16
ENDBRANCH  14  15
ENDBRANCH  10  11
ENDBRANCH   9  10
TORSDOF 9
ENDMDL
MODEL 2
REMARK VINA RESULT:     -12.1      1.187      3.955
REMARK  Name = 
REMARK  9 active torsions:
REMARK  status: ('A' for Active; 'I' for Inactive)
REMARK    1  A    between atoms: C_2  and  C_3
REMARK    2  A    between atoms: C_3  and  C_4
REMARK    3  A    between atoms: C_9  and  C_10
REMARK    4  A    between atoms: C_10  and  C_11
REMARK    5  A    between atoms: C_14  and  C_15
REMARK    6  A    between atoms: C_15  and  S_16
REMARK    7  A    between atoms: S_16  and  C_17
REMARK    8  A    between atoms: N_24  and  C_25
REMARK    9  A    between atoms: C_25  and  C_26
REMARK                            x       y       z     vdW  Elec       q    Type
REMARK                         _______ _______ _______ _____ _____    ______ ____
ROOT
ATOM      4  C   UNL     1      -0.812   2.854  25.009  0.00  0.00    +0.012 C 
ATOM      5  C   UNL     1      -0.661   3.306  25.683  0.00  0.00    +0.019 C 
ATOM      6  C   UNL     1      -0.105   3.047  26.235  0.00  0.00    +0.089 C 
ATOM      7  N   UNL     1       0.299   2.339  26.114  0.00  0.00    -0.218 NA
ATOM      8  C   UNL     1       0.148   1.888  25.441  0.00  0.00    +0.089 C 
ATOM      9  C   UNL     1      -0.408   2.145  24.887  0.00  0.00    +0.024 C 
ENDROOT
BRANCH   4   3
ATOM      3  C   UNL     1      -1.368   3.112  24.456  0.00  0.00    +0.087 C 
BRANCH   3   2
ATOM      1  O   UNL     1      -1.887   4.355  24.931  0.00  0.00    -0.273 OA
ATOM      2  C   UNL     1      -2.008   3.573  24.699  0.00  0.00    +0.242 C 
ATOM     24  N   UNL     1      -2.767   3.251  24.709  0.00  0.00    -0.201 NA
BRANCH  24  25
ATOM     25  C   UNL     1      -3.407   3.712  24.951  0.00  0.00    +0.142 C 
BRANCH  25  26
ATOM     26  C   UNL     1      -4.139   3.358  25.094  0.00  0.00    +0.003 A 
ATOM     27  C   UNL     1      -4.673   3.712  25.614  0.00  0.00    +0.001 A 
ATOM     28  C   UNL     1      -5.404   3.359  25.757  0.00  0.00    +0.040 A 
ATOM     29  C   UNL     1      -5.602   2.652  25.381  0.00  0.00    +0.176 A 
ATOM     30  O   UNL     1      -6.277   2.179  25.413  0.00  0.00    -0.435 OA
ATOM     31  C   UNL     1      -6.160   1.533  24.914  0.00  0.00    +0.429 C 
ATOM     32  O   UNL     1      -5.413   1.607  24.573  0.00  0.00    -0.435 OA
ATOM     33  C   UNL     1      -5.068   2.298  24.861  0.00  0.00    +0.176 A 
ATOM     34  C   UNL     1      -4.336   2.651  24.718  0.00  0.00    +0.038 A 
ENDBRANCH  25  26
ENDBRANCH  24  25
ENDBRANCH   3   2
ENDBRANCH   4   3
BRANCH   9  10
ATOM     10  C   UNL     1      -0.559   1.694  24.214  0.00  0.00    +0.051 C 
BRANCH  10  11
ATOM     11  C   UNL     1      -0.608   0.873  24.270  0.00  0.00    +0.100 A 
ATOM     12  N   UNL     1       0.029   0.352  24.323  0.00  0.00    -0.082 NA
ATOM     13  O   UNL     1      -0.272  -0.416  24.369  0.00  0.00    -0.357 OA
ATOM     14  C   UNL     1      -1.095  -0.368  24.344  0.00  0.00    +0.165 A 
ATOM     23  C   UNL     1      -1.303   0.428  24.283  0.00  0.00    +0.054 A 
BRANCH  14  15
ATOM     15  C   UNL     1      -1.619  -1.005  24.375  0.00  0.00    +0.129 C 
BRANCH  15  16
ATOM     16  S   UNL     1      -2.388  -0.893  24.654  0.00  0.00    -0.105 S 
BRANCH  16  17
ATOM     17  C   UNL     1      -2.965  -1.464  24.510  0.00  0.00    +0.026 A 
ATOM     18  C   UNL     1      -3.638  -1.269  24.073  0.00  0.00    +0.006 A 
ATOM     19  C   UNL     1      -4.216  -1.841  23.930  0.00  0.00    +0.001 A 
ATOM     20  C   UNL     1      -4.120  -2.607  24.223  0.00  0.00    +0.000 A 
ATOM     21  C   UNL     1      -3.449  -2.800  24.659  0.00  0.00    +0.001 A 
ATOM     22  C   UNL     1      -2.870  -2.230  24.803  0.00  0.00    +0.006 A 
ENDBRANCH  16  17
ENDBRANCH  15  16
ENDBRANCH  14  15
ENDBRANCH  10  11
ENDBRANCH   9  10
TORSDOF 9
ENDMDL
MODEL 3
REMARK VINA RESULT:     -12.0      1.747      5.589
REMARK  Name = 
REMARK  9 active torsions:
REMARK  status: ('A' for Active; 'I' for Inactive)
REMARK    1  A    between atoms: C_2  and  C_3
REMARK    2  A    between atoms: C_3  and  C_4
REMARK    3  A    between atoms: C_9  and  C_10
REMARK    4  A    between atoms: C_10  and  C_11
REMARK    5  A    between atoms: C_14  and  C_15
REMARK    6  A    between atoms: C_15  and  S_16
REMARK    7  A    between atoms: S_16  and  C_17
REMARK    8  A    between atoms: N_24  and  C_25
REMARK    9  A    between atoms: C_25  and  C_26
REMARK                            x       y       z     vdW  Elec       q    Type
REMARK                         _______ _______ _______ _____ _____    ______ ____
ROOT
ATOM      4  C   UNL     1      -2.502  -1.378  25.220  0.00  0.00    +0.012 C 
ATOM      5  C   UNL     1      -2.742  -1.973  24.700  0.00  0.00    +0.019 C 
ATOM      6  C   UNL     1      -2.183  -2.361  24.233  0.00  0.00    +0.089 C 
ATOM      7  N   UNL     1      -1.386  -2.154  24.284  0.00  0.00    -0.218 NA
ATOM      8  C   UNL     1      -1.147  -1.560  24.803  0.00  0.00    +0.089 C 
ATOM      9  C   UNL     1      -1.705  -1.171  25.271  0.00  0.00    +0.024 C 
ENDROOT
BRANCH   4   3
ATOM      3  C   UNL     1      -3.060  -0.990  25.687  0.00  0.00    +0.087 C 
BRANCH   3   2
ATOM      1  O   UNL     1      -4.279  -1.255  24.990  0.00  0.00    -0.273 OA
ATOM      2  C   UNL     1      -3.764  -0.721  25.352  0.00  0.00    +0.242 C 
ATOM     24  N   UNL     1      -3.953   0.081  25.379  0.00  0.00    -0.201 NA
BRANCH  24  25
ATOM     25  C   UNL     1      -4.657   0.351  25.044  0.00  0.00    +0.142 C 
BRANCH  25  26
ATOM     26  C   UNL     1      -4.805   1.161  24.990  0.00  0.00    +0.003 A 
ATOM     27  C   UNL     1      -4.599   1.574  24.307  0.00  0.00    +0.001 A 
ATOM     28  C   UNL     1      -4.747   2.384  24.254  0.00  0.00    +0.040 A 
ATOM     29  C   UNL     1      -5.102   2.781  24.884  0.00  0.00    +0.176 A 
ATOM     30  O   UNL     1      -5.314   3.570  24.990  0.00  0.00    -0.435 OA
ATOM     31  C   UNL     1      -5.652   3.646  25.739  0.00  0.00    +0.429 C 
ATOM     32  O   UNL     1      -5.648   2.902  26.096  0.00  0.00    -0.435 OA
ATOM     33  C   UNL     1      -5.308   2.368  25.568  0.00  0.00    +0.176 A 
ATOM     34  C   UNL     1      -5.160   1.557  25.621  0.00  0.00    +0.038 A 
ENDBRANCH  25  26
ENDBRANCH  24  25
ENDBRANCH   3   2
ENDBRANCH   4   3
BRANCH   9  10
ATOM     10  C   UNL     1      -1.466  -0.577  25.790  0.00  0.00    +0.051 C 
BRANCH  10  11
ATOM     11  C   UNL     1      -1.039   0.070  25.508  0.00  0.00    +0.100 A 
ATOM     12  N   UNL     1      -0.388   0.039  25.003  0.00  0.00    -0.082 NA
ATOM     13  O   UNL     1      -0.135   0.812  24.864  0.00  0.00    -0.357 OA
ATOM     14  C   UNL     1      -0.631   1.321  25.282  0.00  0.00    +0.165 A 
ATOM     23  C   UNL     1      -1.190   0.863  25.681  0.00  0.00    +0.054 A 
BRANCH  14  15
ATOM     15  C   UNL     1      -0.577   2.144  25.300  0.00  0.00    +0.129 C 
BRANCH  15  16
ATOM     16  S   UNL     1      -1.033   2.598  24.783  0.00  0.00    -0.105 S 
BRANCH  16  17
ATOM     17  C   UNL     1      -1.117   3.409  24.910  0.00  0.00    +0.026 A 
ATOM     18  C   UNL     1      -1.744   3.692  25.365  0.00  0.00    +0.006 A 
ATOM     19  C   UNL     1      -1.828   4.503  25.493  0.00  0.00    +0.001 A 
ATOM     20  C   UNL     1      -1.283   5.030  25.165  0.00  0.00    +0.000 A 
ATOM     21  C   UNL     1      -0.657   4.747  24.711  0.00  0.00    +0.001 A 
ATOM     22  C   UNL     1      -0.573   3.936  24.583  0.00  0.00    +0.006 A 
ENDBRANCH  16  17
ENDBRANCH  15  16
ENDBRANCH  14  15
ENDBRANCH  10  11
ENDBRANCH   9  10
TORSDOF 9
ENDMDL
MODEL 4
REMARK VINA RESULT:     -11.2      1.456      2.268
REMARK  Name = 
REMARK  9 active torsions:
REMARK  status: ('A' for Active; 'I' for Inactive)
REMARK    1  A    between atoms: C_2  and  C_3
REMARK    2  A    between atoms: C_3  and  C_4
REMARK    3  A    between atoms: C_9  and  C_10
REMARK    4  A    between atoms: C_10  and  C_11
REMARK    5  A    between atoms: C_14  and  C_15
REMARK    6  A    between atoms: C_15  and  S_16
REMARK    7  A    between atoms: S_16  and  C_17
REMARK    8  A    between atoms: N_24  and  C_25
REMARK    9  A    between atoms: C_25  and  C_26
REMARK                            x       y       z     vdW  Elec       q    Type
REMARK                         _______ _______ _______ _____ _____    ______ ____
ROOT
ATOM      4  C   UNL     1      -4.638   3.187  24.944  0.00  0.00    +0.012 C 
ATOM      5  C   UNL     1      -4.800   3.758  25.519  0.00  0.00    +0.019 C 
ATOM      6  C   UNL     1      -5.367   3.608  26.099  0.00  0.00    +0.089 C 
ATOM      7  N   UNL     1      -5.772   2.890  26.106  0.00  0.00    -0.218 NA
ATOM      8  C   UNL     1      -5.610   2.320  25.532  0.00  0.00    +0.089 C 
ATOM      9  C   UNL     1      -5.043   2.468  24.951  0.00  0.00    +0.024 C 
ENDROOT
BRANCH   4   3
ATOM      3  C   UNL     1      -4.071   3.336  24.364  0.00  0.00    +0.087 C 
BRANCH   3   2
ATOM      1  O   UNL     1      -3.363   4.535  24.684  0.00  0.00    -0.273 OA
ATOM      2  C   UNL     1      -3.368   3.719  24.562  0.00  0.00    +0.242 C 
ATOM     24  N   UNL     1      -2.670   3.286  24.639  0.00  0.00    -0.201 NA
BRANCH  24  25
ATOM     25  C   UNL     1      -1.967   3.669  24.838  0.00  0.00    +0.142 C 
BRANCH  25  26
ATOM     26  C   UNL     1      -1.276   3.231  24.950  0.00  0.00    +0.003 A 
ATOM     27  C   UNL     1      -0.921   3.206  25.694  0.00  0.00    +0.001 A 
ATOM     28  C   UNL     1      -0.231   2.768  25.806  0.00  0.00    +0.040 A 
ATOM     29  C   UNL     1       0.105   2.356  25.175  0.00  0.00    +0.176 A 
ATOM     30  O   UNL     1       0.777   1.883  25.119  0.00  0.00    -0.435 OA
ATOM     31  C   UNL     1       0.837   1.615  24.341  0.00  0.00    +0.429 C 
ATOM     32  O   UNL     1       0.202   1.924  23.916  0.00  0.00    -0.435 OA
ATOM     33  C   UNL     1      -0.251   2.382  24.431  0.00  0.00    +0.176 A 
ATOM     34  C   UNL     1      -0.942   2.820  24.318  0.00  0.00    +0.038 A 
ENDBRANCH  25  26
ENDBRANCH  24  25
ENDBRANCH   3   2
ENDBRANCH   4   3
BRANCH   9  10
ATOM     10  C   UNL     1      -4.881   1.898  24.378  0.00  0.00    +0.051 C 
BRANCH  10  11
ATOM     11  C   UNL     1      -4.702   1.125  24.604  0.00  0.00    +0.100 A 
ATOM     12  N   UNL     1      -5.146   0.654  25.114  0.00  0.00    -0.082 NA
ATOM     13  O   UNL     1      -4.766  -0.075  25.184  0.00  0.00    -0.357 OA
ATOM     14  C   UNL     1      -4.086  -0.054  24.717  0.00  0.00    +0.165 A 
ATOM     23  C   UNL     1      -4.046   0.688  24.358  0.00  0.00    +0.054 A 
BRANCH  14  15
ATOM     15  C   UNL     1      -3.542  -0.667  24.625  0.00  0.00    +0.129 C 
BRANCH  15  16
ATOM     16  S   UNL     1      -3.030  -0.860  25.244  0.00  0.00    -0.105 S 
BRANCH  16  17
ATOM     17  C   UNL     1      -2.348  -1.298  25.092  0.00  0.00    +0.026 A 
ATOM     18  C   UNL     1      -1.607  -0.988  25.286  0.00  0.00    +0.006 A 
ATOM     19  C   UNL     1      -0.924  -1.426  25.134  0.00  0.00    +0.001 A 
ATOM     20  C   UNL     1      -0.982  -2.174  24.789  0.00  0.00    +0.000 A 
ATOM     21  C   UNL     1      -1.722  -2.482  24.595  0.00  0.00    +0.001 A 
ATOM     22  C   UNL     1      -2.405  -2.045  24.746  0.00  0.00    +0.006 A 
ENDBRANCH  16  17
ENDBRANCH  15  16
ENDBRANCH  14  15
ENDBRANCH  10  11
ENDBRANCH   9  10
TORSDOF 9
ENDMDL
MODEL 5
REMARK VINA RESULT:     -11.1      1.595      4.374
REMARK  Name = 
REMARK  9 active torsions:
REMARK  status: ('A' for Active; 'I' for Inactive)
REMARK    1  A    between atoms: C_2  and  C_3
REMARK    2  A    between atoms: C_3  and  C_4
REMARK    3  A    between atoms: C_9  and  C_10
REMARK    4  A    between atoms: C_10  and  C_11
REMARK    5  A    between atoms: C_14  and  C_15
REMARK    6  A    between atoms: C_15  and  S_16
REMARK    7  A    between atoms: S_16  and  C_17
REMARK    8  A    between atoms: N_24  and  C_25
REMARK    9  A    between atoms: C_25  and  C_26
REMARK                            x       y       z     vdW  Elec       q    Type
REMARK                         _______ _______ _______ _____ _____    ______ ____
ROOT
ATOM      4  C   UNL     1      -1.915  -1.604  25.118  0.00  0.00    +0.012 C 
ATOM      5  C   UNL     1      -1.394  -2.029  24.639  0.00  0.00    +0.019 C 
ATOM      6  C   UNL     1      -1.685  -2.595  24.114  0.00  0.00    +0.089 C 
ATOM      7  N   UNL     1      -2.496  -2.736  24.067  0.00  0.00    -0.218 NA
ATOM      8  C   UNL     1      -3.017  -2.311  24.545  0.00  0.00    +0.089 C 
ATOM      9  C   UNL     1      -2.727  -1.745  25.071  0.00  0.00    +0.024 C 
ENDROOT
BRANCH   4   3
ATOM      3  C   UNL     1      -1.625  -1.039  25.643  0.00  0.00    +0.087 C 
BRANCH   3   2
ATOM      1  O   UNL     1      -0.288  -0.895  25.159  0.00  0.00    -0.273 OA
ATOM      2  C   UNL     1      -0.993  -0.556  25.423  0.00  0.00    +0.242 C 
ATOM     24  N   UNL     1      -1.066   0.264  25.465  0.00  0.00    -0.201 NA
BRANCH  24  25
ATOM     25  C   UNL     1      -0.434   0.746  25.245  0.00  0.00    +0.142 C 
BRANCH  25  26
ATOM     26  C   UNL     1      -0.504   1.567  25.296  0.00  0.00    +0.003 A 
ATOM     27  C   UNL     1      -0.597   1.928  26.032  0.00  0.00    +0.001 A 
ATOM     28  C   UNL     1      -0.666   2.748  26.084  0.00  0.00    +0.040 A 
ATOM     29  C   UNL     1      -0.644   3.208  25.399  0.00  0.00    +0.176 A 
ATOM     30  O   UNL     1      -0.698   4.022  25.278  0.00  0.00    -0.435 OA
ATOM     31  C   UNL     1      -0.639   4.164  24.468  0.00  0.00    +0.429 C 
ATOM     32  O   UNL     1      -0.549   3.438  24.088  0.00  0.00    -0.435 OA
ATOM     33  C   UNL     1      -0.551   2.847  24.663  0.00  0.00    +0.176 A 
ATOM     34  C   UNL     1      -0.482   2.026  24.611  0.00  0.00    +0.038 A 
ENDBRANCH  25  26
ENDBRANCH  24  25
ENDBRANCH   3   2
ENDBRANCH   4   3
BRANCH   9  10
ATOM     10  C   UNL     1      -3.247  -1.321  25.549  0.00  0.00    +0.051 C 
BRANCH  10  11
ATOM     11  C   UNL     1      -3.813  -0.828  25.206  0.00  0.00    +0.100 A 
ATOM     12  N   UNL     1      -4.311  -1.024  24.578  0.00  0.00    -0.082 NA
ATOM     13  O   UNL     1      -4.787  -0.370  24.415  0.00  0.00    -0.357 OA
ATOM     14  C   UNL     1      -4.583   0.231  24.942  0.00  0.00    +0.165 A 
ATOM     23  C   UNL     1      -3.981  -0.052  25.431  0.00  0.00    +0.054 A 
BRANCH  14  15
ATOM     15  C   UNL     1      -4.920   0.983  24.975  0.00  0.00    +0.129 C 
BRANCH  15  16
ATOM     16  S   UNL     1      -4.532   1.624  24.630  0.00  0.00    -0.105 S 
BRANCH  16  17
ATOM     17  C   UNL     1      -4.699   2.391  24.883  0.00  0.00    +0.026 A 
ATOM     18  C   UNL     1      -5.379   2.540  25.327  0.00  0.00    +0.006 A 
ATOM     19  C   UNL     1      -5.547   3.308  25.581  0.00  0.00    +0.001 A 
ATOM     20  C   UNL     1      -5.034   3.926  25.389  0.00  0.00    +0.000 A 
ATOM     21  C   UNL     1      -4.355   3.777  24.946  0.00  0.00    +0.001 A 
ATOM     22  C   UNL     1      -4.187   3.010  24.692  0.00  0.00    +0.006 A 
ENDBRANCH  16  17
ENDBRANCH  15  16
ENDBRANCH  14  15
ENDBRANCH  10  11
ENDBRANCH   9  10
TORSDOF 9
ENDMDL
MODEL 6
REMARK VINA RESULT:     -11.0      1.299      3.659
REMARK  Name = 
REMARK  9 active torsions:
REMARK  status: ('A' for Active; 'I' for Inactive)
REMARK    1  A    between atoms: C_2  and  C_3
REMARK    2  A    between atoms: C_3  and  C_4
REMARK    3  A    between atoms: C_9  and  C_10
REMARK    4  A    between atoms: C_10  and  C_11
REMARK    5  A    between atoms: C_14  and  C_15
REMARK    6  A    between atoms: C_15  and  S_16
REMARK    7  A    between atoms: S_16  and  C_17
REMARK    8  A    between atoms: N_24  and  C_25
REMARK    9  A    between atoms: C_25  and  C_26
REMARK                            x       y       z     vdW  Elec       q    Type
REMARK                         _______ _______ _______ _____ _____    ______ ____
ROOT
ATOM      4  C   UNL     1      -4.053   3.120  25.014  0.00  0.00    +0.012 C 
ATOM      5  C   UNL     1      -4.520   3.193  25.691  0.00  0.00    +0.019 C 
ATOM      6  C   UNL     1      -4.288   3.701  26.298  0.00  0.00    +0.089 C 
ATOM      7  N   UNL     1      -3.590   4.136  26.229  0.00  0.00    -0.218 NA
ATOM      8  C   UNL     1      -3.124   4.063  25.553  0.00  0.00    +0.089 C 
ATOM      9  C   UNL     1      -3.355   3.555  24.945  0.00  0.00    +0.024 C 
ENDROOT
BRANCH   4   3
ATOM      3  C   UNL     1      -4.285   2.613  24.407  0.00  0.00    +0.087 C 
BRANCH   3   2
ATOM      1  O   UNL     1      -5.528   1.986  24.726  0.00  0.00    -0.273 OA
ATOM      2  C   UNL     1      -4.718   1.932  24.580  0.00  0.00    +0.242 C 
ATOM     24  N   UNL     1      -4.341   1.200  24.607  0.00  0.00    -0.201 NA
BRANCH  24  25
ATOM     25  C   UNL     1      -4.774   0.519  24.780  0.00  0.00    +0.142 C 
BRANCH  25  26
ATOM     26  C   UNL     1      -4.388  -0.207  24.859  0.00  0.00    +0.003 A 
ATOM     27  C   UNL     1      -3.984  -0.386  25.556  0.00  0.00    +0.001 A 
ATOM     28  C   UNL     1      -3.600  -1.111  25.634  0.00  0.00    +0.040 A 
ATOM     29  C   UNL     1      -3.618  -1.658  25.016  0.00  0.00    +0.176 A 
ATOM     30  O   UNL     1      -3.293  -2.411  24.934  0.00  0.00    -0.435 OA
ATOM     31  C   UNL     1      -3.495  -2.697  24.188  0.00  0.00    +0.429 C 
ATOM     32  O   UNL     1      -3.946  -2.121  23.808  0.00  0.00    -0.435 OA
ATOM     33  C   UNL     1      -4.022  -1.478  24.319  0.00  0.00    +0.176 A 
ATOM     34  C   UNL     1      -4.408  -0.752  24.241  0.00  0.00    +0.038 A 
ENDBRANCH  25  26
ENDBRANCH  24  25
ENDBRANCH   3   2
ENDBRANCH   4   3
BRANCH   9  10
ATOM     10  C   UNL     1      -2.889   3.482  24.269  0.00  0.00    +0.051 C 
BRANCH  10  11
ATOM     11  C   UNL     1      -2.093   3.275  24.337  0.00  0.00    +0.100 A 
ATOM     12  N   UNL     1      -1.504   3.726  24.699  0.00  0.00    -0.082 NA
ATOM     13  O   UNL     1      -0.793   3.310  24.641  0.00  0.00    -0.357 OA
ATOM     14  C   UNL     1      -0.943   2.603  24.243  0.00  0.00    +0.165 A 
ATOM     23  C   UNL     1      -1.747   2.581  24.056  0.00  0.00    +0.054 A 
BRANCH  14  15
ATOM     15  C   UNL     1      -0.388   2.020  24.065  0.00  0.00    +0.129 C 
BRANCH  15  16
ATOM     16  S   UNL     1      -0.320   1.354  24.548  0.00  0.00    -0.105 S 
BRANCH  16  17
ATOM     17  C   UNL     1      -0.093   0.631  24.222  0.00  0.00    +0.026 A 
ATOM     18  C   UNL     1      -0.409  -0.072  24.518  0.00  0.00    +0.006 A 
ATOM     19  C   UNL     1      -0.182  -0.796  24.193  0.00  0.00    +0.001 A 
ATOM     20  C   UNL     1       0.361  -0.816  23.571  0.00  0.00    +0.000 A 
ATOM     21  C   UNL     1       0.676  -0.114  23.276  0.00  0.00    +0.001 A 
ATOM     22  C   UNL     1       0.450   0.610  23.600  0.00  0.00    +0.006 A 
ENDBRANCH  16  17
ENDBRANCH  15  16
ENDBRANCH  14  15
ENDBRANCH  10  11
ENDBRANCH   9  10
TORSDOF 9
ENDMDL
MODEL 7
REMARK VINA RESULT:     -10.9      1.640      3.649
REMARK  Name = 
REMARK  9 active torsions:
REMARK  status: ('A' for Active; 'I' for Inactive)
REMARK    1  A    between atoms: C_2  and  C_3
REMARK    2  A    between atoms: C_3  and  C_4
REMARK    3  A    between atoms: C_9  and  C_10
REMARK    4  A    between atoms: C_10  and  C_11
REMARK    5  A    between atoms: C_14  and  C_15
REMARK    6  A    between atoms: C_15  and  S_16
REMARK    7  A    between atoms: S_16  and  C_17
REMARK    8  A    between atoms: N_24  and  C_25
REMARK    9  A    between atoms: C_25  and  C_26
REMARK                            x       y       z     vdW  Elec       q    Type
REMARK                         _______ _______ _______ _____ _____    ______ ____
ROOT
ATOM      4  C   UNL     1      -0.457   2.342  25.117  0.00  0.00    +0.012 C 
ATOM      5  C   UNL     1      -0.020   2.170  24.438  0.00  0.00    +0.019 C 
ATOM      6  C   UNL     1       0.135   2.764  23.887  0.00  0.00    +0.089 C 
ATOM      7  N   UNL     1      -0.146   3.529  24.014  0.00  0.00    -0.218 NA
ATOM      8  C   UNL     1      -0.583   3.700  24.692  0.00  0.00    +0.089 C 
ATOM      9  C   UNL     1      -0.739   3.107  25.244  0.00  0.00    +0.024 C 
ENDROOT
BRANCH   4   3
ATOM      3  C   UNL     1      -0.612   1.748  25.668  0.00  0.00    +0.087 C 
BRANCH   3   2
ATOM      1  O   UNL     1       0.004   0.589  25.104  0.00  0.00    -0.273 OA
ATOM      2  C   UNL     1      -0.659   0.961  25.424  0.00  0.00    +0.242 C 
ATOM     24  N   UNL     1      -1.368   0.547  25.502  0.00  0.00    -0.201 NA
BRANCH  24  25
ATOM     25  C   UNL     1      -1.414  -0.240  25.258  0.00  0.00    +0.142 C 
BRANCH  25  26
ATOM     26  C   UNL     1      -2.150  -0.606  25.183  0.00  0.00    +0.003 A 
ATOM     27  C   UNL     1      -2.593  -0.786  25.856  0.00  0.00    +0.001 A 
ATOM     28  C   UNL     1      -3.327  -1.152  25.780  0.00  0.00    +0.040 A 
ATOM     29  C   UNL     1      -3.621  -1.338  25.032  0.00  0.00    +0.176 A 
ATOM     30  O   UNL     1      -4.322  -1.696  24.787  0.00  0.00    -0.435 OA
ATOM     31  C   UNL     1      -4.314  -1.738  23.963  0.00  0.00    +0.429 C 
ATOM     32  O   UNL     1      -3.607  -1.406  23.699  0.00  0.00    -0.435 OA
ATOM     33  C   UNL     1      -3.179  -1.158  24.359  0.00  0.00    +0.176 A 
ATOM     34  C   UNL     1      -2.443  -0.792  24.434  0.00  0.00    +0.038 A 
ENDBRANCH  25  26
ENDBRANCH  24  25
ENDBRANCH   3   2
ENDBRANCH   4   3
BRANCH   9  10
ATOM     10  C   UNL     1      -1.175   3.278  25.922  0.00  0.00    +0.051 C 
BRANCH  10  11
ATOM     11  C   UNL     1      -1.921   3.625  25.856  0.00  0.00    +0.100 A 
ATOM     12  N   UNL     1      -2.074   4.427  25.742  0.00  0.00    -0.082 NA
ATOM     13  O   UNL     1      -2.892   4.528  25.708  0.00  0.00    -0.357 OA
ATOM     14  C   UNL     1      -3.245   3.788  25.801  0.00  0.00    +0.165 A 
ATOM     23  C   UNL     1      -2.644   3.229  25.892  0.00  0.00    +0.054 A 
BRANCH  14  15
ATOM     15  C   UNL     1      -4.055   3.633  25.802  0.00  0.00    +0.129 C 
BRANCH  15  16
ATOM     16  S   UNL     1      -4.419   3.337  25.123  0.00  0.00    -0.105 S 
BRANCH  16  17
ATOM     17  C   UNL     1      -5.028   2.785  25.190  0.00  0.00    +0.026 A 
ATOM     18  C   UNL     1      -5.089   2.170  24.642  0.00  0.00    +0.006 A 
ATOM     19  C   UNL     1      -5.698   1.617  24.708  0.00  0.00    +0.001 A 
ATOM     20  C   UNL     1      -6.246   1.680  25.323  0.00  0.00    +0.000 A 
ATOM     21  C   UNL     1      -6.185   2.293  25.870  0.00  0.00    +0.001 A 
ATOM     22  C   UNL     1      -5.576   2.846  25.804  0.00  0.00    +0.006 A 
ENDBRANCH  16  17
ENDBRANCH  15  16
ENDBRANCH  14  15
ENDBRANCH  10  11
ENDBRANCH   9  10
TORSDOF 9
ENDMDL
