MODEL 1
REMARK VINA RESULT:      -8.2      0.000      0.000
REMARK  Name = 
REMARK  8 active torsions:
REMARK  status: ('A' for Active; 'I' for Inactive)
REMARK    1  A    between atoms: N_6  and  C_7
REMARK    2  A    between atoms: C_7  and  C_8
REMARK    3  A    between atoms: C_11  and  C_14
REMARK    4  A    between atoms: C_22  and  C_23
REMARK    5  A    between atoms: C_23  and  C_24
REMARK    6  A    between atoms: C_24  and  C_25
REMARK    7  A    between atoms: N_27  and  C_28
REMARK    8  A    between atoms: C_28  and  C_29
REMARK                            x       y       z     vdW  Elec       q    Type
REMARK                         _______ _______ _______ _____ _____    ______ ____
ROOT
ATOM      1  C   UNL     1      -0.419   0.096  23.865  0.00  0.00    +0.090 C 
ATOM      2  N   UNL     1      -0.411   0.914  23.965  0.00  0.00    -0.271 NA
ATOM      3  C   UNL     1      -1.133   1.257  24.169  0.00  0.00    +0.083 C 
ATOM      4  C   UNL     1      -1.829   0.825  24.270  0.00  0.00    +0.035 C 
ATOM      5  C   UNL     1      -2.431   1.352  24.470  0.00  0.00    +0.074 C 
ATOM      6  N   UNL     1      -2.107   2.111  24.493  0.00  0.00    -0.262 NA
ATOM     17  C   UNL     1      -1.306   2.052  24.307  0.00  0.00    +0.151 C 
ATOM     18  C   UNL     1      -0.797   2.701  24.275  0.00  0.00    +0.257 C 
ATOM     19  O   UNL     1      -1.140   3.433  24.443  0.00  0.00    -0.272 OA
ATOM     20  N   UNL     1       0.008   2.715  24.098  0.00  0.00    -0.203 NA
ATOM     21  C   UNL     1       0.504   2.084  23.908  0.00  0.00    +0.131 C 
ATOM     22  C   UNL     1       0.318   1.282  23.849  0.00  0.00    +0.080 C 
ENDROOT
BRANCH   6   7
ATOM      7  C   UNL     1      -2.514   2.806  24.671  0.00  0.00    +0.100 C 
BRANCH   7   8
ATOM      8  C   UNL     1      -3.321   2.780  24.841  0.00  0.00    -0.006 A 
ATOM      9  C   UNL     1      -3.578   2.789  25.624  0.00  0.00    -0.003 A 
ATOM     10  C   UNL     1      -4.385   2.763  25.794  0.00  0.00    +0.006 A 
ATOM     11  C   UNL     1      -4.935   2.729  25.180  0.00  0.00    +0.080 A 
ATOM     12  C   UNL     1      -4.678   2.720  24.397  0.00  0.00    +0.006 A 
ATOM     13  C   UNL     1      -3.871   2.746  24.226  0.00  0.00    -0.003 A 
BRANCH  11  14
ATOM     14  C   UNL     1      -5.742   2.703  25.350  0.00  0.00    +0.388 C 
ATOM     15  O   UNL     1      -6.194   2.058  25.107  0.00  0.00    -0.241 OA
ATOM     16  O   UNL     1      -6.096   3.323  25.764  0.00  0.00    -0.241 OA
ENDBRANCH  11  14
ENDBRANCH   7   8
ENDBRANCH   6   7
BRANCH  22  23
ATOM     23  C   UNL     1       0.943   0.784  23.647  0.00  0.00    +0.027 C 
BRANCH  23  24
ATOM     24  C   UNL     1       1.676   1.102  23.441  0.00  0.00    +0.088 C 
BRANCH  24  25
ATOM     25  C   UNL     1       2.248   0.626  23.087  0.00  0.00    +0.242 C 
ATOM     26  O   UNL     1       2.020  -0.031  22.643  0.00  0.00    -0.273 OA
ATOM     27  N   UNL     1       3.047   0.806  23.176  0.00  0.00    -0.191 NA
BRANCH  27  28
ATOM     28  C   UNL     1       3.620   0.329  22.821  0.00  0.00    +0.191 C 
BRANCH  28  29
ATOM     29  C   UNL     1       4.402   0.361  23.081  0.00  0.00    -0.054 C 
ATOM     30  C   UNL     1       5.185   0.393  23.340  0.00  0.00    -0.012 C 
ENDBRANCH  28  29
ENDBRANCH  27  28
ENDBRANCH  24  25
ENDBRANCH  23  24
ENDBRANCH  22  23
TORSDOF 8
ENDMDL
MODEL 2
REMARK VINA RESULT:      -5.8     17.721     18.486
REMARK  Name = 
REMARK  8 active torsions:
REMARK  status: ('A' for Active; 'I' for Inactive)
REMARK    1  A    between atoms: N_6  and  C_7
REMARK    2  A    between atoms: C_7  and  C_8
REMARK    3  A    between atoms: C_11  and  C_14
REMARK    4  A    between atoms: C_22  and  C_23
REMARK    5  A    between atoms: C_23  and  C_24
REMARK    6  A    between atoms: C_24  and  C_25
REMARK    7  A    between atoms: N_27  and  C_28
REMARK    8  A    between atoms: C_28  and  C_29
REMARK                            x       y       z     vdW  Elec       q    Type
REMARK                         _______ _______ _______ _____ _____    ______ ____
ROOT
ATOM      1  C   UNL     1      -5.186  -9.105  11.455  0.00  0.00    +0.090 C 
ATOM      2  N   UNL     1      -5.242  -9.179  10.636  0.00  0.00    -0.271 NA
ATOM      3  C   UNL     1      -5.961  -8.949  10.303  0.00  0.00    +0.083 C 
ATOM      4  C   UNL     1      -6.595  -8.659  10.745  0.00  0.00    +0.035 C 
ATOM      5  C   UNL     1      -7.212  -8.488  10.226  0.00  0.00    +0.074 C 
ATOM      6  N   UNL     1      -6.960  -8.672   9.462  0.00  0.00    -0.262 NA
ATOM     17  C   UNL     1      -6.187  -8.956   9.509  0.00  0.00    +0.151 C 
ATOM     18  C   UNL     1      -5.750  -9.196   8.853  0.00  0.00    +0.257 C 
ATOM     19  O   UNL     1      -6.135  -9.137   8.125  0.00  0.00    -0.272 OA
ATOM     20  N   UNL     1      -4.979  -9.488   8.827  0.00  0.00    -0.203 NA
ATOM     21  C   UNL     1      -4.455  -9.612   9.451  0.00  0.00    +0.131 C 
ATOM     22  C   UNL     1      -4.571  -9.475  10.257  0.00  0.00    +0.080 C 
ENDROOT
BRANCH   6   7
ATOM      7  C   UNL     1      -7.403  -8.586   8.772  0.00  0.00    +0.100 C 
BRANCH   7   8
ATOM      8  C   UNL     1      -8.033  -8.053   8.750  0.00  0.00    -0.006 A 
ATOM      9  C   UNL     1      -7.907  -7.275   8.507  0.00  0.00    -0.003 A 
ATOM     10  C   UNL     1      -8.537  -6.743   8.485  0.00  0.00    +0.006 A 
ATOM     11  C   UNL     1      -9.293  -6.988   8.705  0.00  0.00    +0.080 A 
ATOM     12  C   UNL     1      -9.419  -7.766   8.947  0.00  0.00    +0.006 A 
ATOM     13  C   UNL     1      -8.790  -8.300   8.970  0.00  0.00    -0.003 A 
BRANCH  11  14
ATOM     14  C   UNL     1      -9.923  -6.456   8.682  0.00  0.00    +0.388 C 
ATOM     15  O   UNL     1     -10.699  -6.734   8.694  0.00  0.00    -0.241 OA
ATOM     16  O   UNL     1      -9.776  -5.644   8.649  0.00  0.00    -0.241 OA
ENDBRANCH  11  14
ENDBRANCH   7   8
ENDBRANCH   6   7
BRANCH  22  23
ATOM     23  C   UNL     1      -3.934  -9.657  10.747  0.00  0.00    +0.027 C 
BRANCH  23  24
ATOM     24  C   UNL     1      -3.171  -9.693  10.436  0.00  0.00    +0.088 C 
BRANCH  24  25
ATOM     25  C   UNL     1      -2.527  -9.823  10.935  0.00  0.00    +0.242 C 
ATOM     26  O   UNL     1      -2.549 -10.439  11.484  0.00  0.00    -0.273 OA
ATOM     27  N   UNL     1      -1.863  -9.338  10.886  0.00  0.00    -0.191 NA
BRANCH  27  28
ATOM     28  C   UNL     1      -1.219  -9.468  11.386  0.00  0.00    +0.191 C 
BRANCH  28  29
ATOM     29  C   UNL     1      -0.539  -9.008  11.311  0.00  0.00    -0.054 C 
ATOM     30  C   UNL     1       0.142  -8.547  11.236  0.00  0.00    -0.012 C 
ENDBRANCH  28  29
ENDBRANCH  27  28
ENDBRANCH  24  25
ENDBRANCH  23  24
ENDBRANCH  22  23
TORSDOF 8
ENDMDL
MODEL 3
REMARK VINA RESULT:      -5.6     15.667     17.385
REMARK  Name = 
REMARK  8 active torsions:
REMARK  status: ('A' for Active; 'I' for Inactive)
REMARK    1  A    between atoms: N_6  and  C_7
REMARK    2  A    between atoms: C_7  and  C_8
REMARK    3  A    between atoms: C_11  and  C_14
REMARK    4  A    between atoms: C_22  and  C_23
REMARK    5  A    between atoms: C_23  and  C_24
REMARK    6  A    between atoms: C_24  and  C_25
REMARK    7  A    between atoms: N_27  and  C_28
REMARK    8  A    between atoms: C_28  and  C_29
REMARK                            x       y       z     vdW  Elec       q    Type
REMARK                         _______ _______ _______ _____ _____    ______ ____
ROOT
ATOM      1  C   UNL     1      -6.011 -10.596  14.664  0.00  0.00    +0.090 C 
ATOM      2  N   UNL     1      -5.203 -10.606  14.503  0.00  0.00    -0.271 NA
ATOM      3  C   UNL     1      -4.994 -10.520  13.710  0.00  0.00    +0.083 C 
ATOM      4  C   UNL     1      -5.545 -10.427  13.102  0.00  0.00    +0.035 C 
ATOM      5  C   UNL     1      -5.133 -10.358  12.391  0.00  0.00    +0.074 C 
ATOM      6  N   UNL     1      -4.327 -10.407  12.559  0.00  0.00    -0.262 NA
ATOM     17  C   UNL     1      -4.241 -10.507  13.373  0.00  0.00    +0.151 C 
ATOM     18  C   UNL     1      -3.510 -10.578  13.749  0.00  0.00    +0.257 C 
ATOM     19  O   UNL     1      -2.849 -10.544  13.255  0.00  0.00    -0.272 OA
ATOM     20  N   UNL     1      -3.351 -10.679  14.551  0.00  0.00    -0.203 NA
ATOM     21  C   UNL     1      -3.884 -10.735  15.178  0.00  0.00    +0.131 C 
ATOM     22  C   UNL     1      -4.709 -10.702  15.157  0.00  0.00    +0.080 C 
ENDROOT
BRANCH   6   7
ATOM      7  C   UNL     1      -3.714 -10.364  12.009  0.00  0.00    +0.100 C 
BRANCH   7   8
ATOM      8  C   UNL     1      -3.880 -10.193  11.219  0.00  0.00    -0.006 A 
ATOM      9  C   UNL     1      -3.806 -10.780  10.645  0.00  0.00    -0.003 A 
ATOM     10  C   UNL     1      -3.972 -10.609   9.855  0.00  0.00    +0.006 A 
ATOM     11  C   UNL     1      -4.211  -9.850   9.639  0.00  0.00    +0.080 A 
ATOM     12  C   UNL     1      -4.285  -9.262  10.213  0.00  0.00    +0.006 A 
ATOM     13  C   UNL     1      -4.119  -9.432  11.003  0.00  0.00    -0.003 A 
BRANCH  11  14
ATOM     14  C   UNL     1      -4.377  -9.678   8.849  0.00  0.00    +0.388 C 
ATOM     15  O   UNL     1      -4.417 -10.287   8.295  0.00  0.00    -0.241 OA
ATOM     16  O   UNL     1      -4.502  -8.897   8.614  0.00  0.00    -0.241 OA
ENDBRANCH  11  14
ENDBRANCH   7   8
ENDBRANCH   6   7
BRANCH  22  23
ATOM     23  C   UNL     1      -5.089 -10.775  15.885  0.00  0.00    +0.027 C 
BRANCH  23  24
ATOM     24  C   UNL     1      -4.913 -10.250  16.497  0.00  0.00    +0.088 C 
BRANCH  24  25
ATOM     25  C   UNL     1      -5.052 -10.468  17.280  0.00  0.00    +0.242 C 
ATOM     26  O   UNL     1      -4.436 -10.766  17.741  0.00  0.00    -0.273 OA
ATOM     27  N   UNL     1      -5.806 -10.387  17.603  0.00  0.00    -0.191 NA
BRANCH  27  28
ATOM     28  C   UNL     1      -5.945 -10.605  18.387  0.00  0.00    +0.191 C 
BRANCH  28  29
ATOM     29  C   UNL     1      -6.709 -10.574  18.695  0.00  0.00    -0.054 C 
ATOM     30  C   UNL     1      -7.475 -10.543  19.003  0.00  0.00    -0.012 C 
ENDBRANCH  28  29
ENDBRANCH  27  28
ENDBRANCH  24  25
ENDBRANCH  23  24
ENDBRANCH  22  23
TORSDOF 8
ENDMDL
MODEL 4
REMARK VINA RESULT:      -5.5     15.708     17.345
REMARK  Name = 
REMARK  8 active torsions:
REMARK  status: ('A' for Active; 'I' for Inactive)
REMARK    1  A    between atoms: N_6  and  C_7
REMARK    2  A    between atoms: C_7  and  C_8
REMARK    3  A    between atoms: C_11  and  C_14
REMARK    4  A    between atoms: C_22  and  C_23
REMARK    5  A    between atoms: C_23  and  C_24
REMARK    6  A    between atoms: C_24  and  C_25
REMARK    7  A    between atoms: N_27  and  C_28
REMARK    8  A    between atoms: C_28  and  C_29
REMARK                            x       y       z     vdW  Elec       q    Type
REMARK                         _______ _______ _______ _____ _____    ______ ____
ROOT
ATOM      1  C   UNL     1      -5.478 -10.552  15.192  0.00  0.00    +0.090 C 
ATOM      2  N   UNL     1      -6.093 -10.283  14.714  0.00  0.00    -0.271 NA
ATOM      3  C   UNL     1      -5.894 -10.119  13.930  0.00  0.00    +0.083 C 
ATOM      4  C   UNL     1      -5.133 -10.214  13.626  0.00  0.00    +0.035 C 
ATOM      5  C   UNL     1      -5.148  -9.998  12.830  0.00  0.00    +0.074 C 
ATOM      6  N   UNL     1      -5.918  -9.770  12.642  0.00  0.00    -0.262 NA
ATOM     17  C   UNL     1      -6.379  -9.845  13.322  0.00  0.00    +0.151 C 
ATOM     18  C   UNL     1      -7.184  -9.666  13.347  0.00  0.00    +0.257 C 
ATOM     19  O   UNL     1      -7.514  -9.401  12.639  0.00  0.00    -0.272 OA
ATOM     20  N   UNL     1      -7.702  -9.717  13.986  0.00  0.00    -0.203 NA
ATOM     21  C   UNL     1      -7.544  -9.960  14.759  0.00  0.00    +0.131 C 
ATOM     22  C   UNL     1      -6.828 -10.211  15.083  0.00  0.00    +0.080 C 
ENDROOT
BRANCH   6   7
ATOM      7  C   UNL     1      -6.180  -9.512  11.904  0.00  0.00    +0.100 C 
BRANCH   7   8
ATOM      8  C   UNL     1      -5.642  -9.410  11.287  0.00  0.00    -0.006 A 
ATOM      9  C   UNL     1      -5.349  -8.659  11.116  0.00  0.00    -0.003 A 
ATOM     10  C   UNL     1      -4.810  -8.556  10.499  0.00  0.00    +0.006 A 
ATOM     11  C   UNL     1      -4.566  -9.205  10.053  0.00  0.00    +0.080 A 
ATOM     12  C   UNL     1      -4.859  -9.957  10.224  0.00  0.00    +0.006 A 
ATOM     13  C   UNL     1      -5.398 -10.060  10.841  0.00  0.00    -0.003 A 
BRANCH  11  14
ATOM     14  C   UNL     1      -4.028  -9.103   9.436  0.00  0.00    +0.388 C 
ATOM     15  O   UNL     1      -3.231  -8.966   9.602  0.00  0.00    -0.241 OA
ATOM     16  O   UNL     1      -4.286  -9.138   8.653  0.00  0.00    -0.241 OA
ENDBRANCH  11  14
ENDBRANCH   7   8
ENDBRANCH   6   7
BRANCH  22  23
ATOM     23  C   UNL     1      -6.850 -10.419  15.881  0.00  0.00    +0.027 C 
BRANCH  23  24
ATOM     24  C   UNL     1      -7.336 -10.005  16.403  0.00  0.00    +0.088 C 
BRANCH  24  25
ATOM     25  C   UNL     1      -7.512 -10.322  17.143  0.00  0.00    +0.242 C 
ATOM     26  O   UNL     1      -8.194 -10.774  17.247  0.00  0.00    -0.273 OA
ATOM     27  N   UNL     1      -7.006 -10.187  17.780  0.00  0.00    -0.191 NA
BRANCH  27  28
ATOM     28  C   UNL     1      -7.182 -10.504  18.522  0.00  0.00    +0.191 C 
BRANCH  28  29
ATOM     29  C   UNL     1      -6.640 -10.434  19.139  0.00  0.00    -0.054 C 
ATOM     30  C   UNL     1      -6.097 -10.365  19.758  0.00  0.00    -0.012 C 
ENDBRANCH  28  29
ENDBRANCH  27  28
ENDBRANCH  24  25
ENDBRANCH  23  24
ENDBRANCH  22  23
TORSDOF 8
ENDMDL
MODEL 5
REMARK VINA RESULT:      -5.5     14.996     15.732
REMARK  Name = 
REMARK  8 active torsions:
REMARK  status: ('A' for Active; 'I' for Inactive)
REMARK    1  A    between atoms: N_6  and  C_7
REMARK    2  A    between atoms: C_7  and  C_8
REMARK    3  A    between atoms: C_11  and  C_14
REMARK    4  A    between atoms: C_22  and  C_23
REMARK    5  A    between atoms: C_23  and  C_24
REMARK    6  A    between atoms: C_24  and  C_25
REMARK    7  A    between atoms: N_27  and  C_28
REMARK    8  A    between atoms: C_28  and  C_29
REMARK                            x       y       z     vdW  Elec       q    Type
REMARK                         _______ _______ _______ _____ _____    ______ ____
ROOT
ATOM      1  C   UNL     1      -4.533 -10.148  16.088  0.00  0.00    +0.090 C 
ATOM      2  N   UNL     1      -5.164 -10.169  15.558  0.00  0.00    -0.271 NA
ATOM      3  C   UNL     1      -5.910 -10.031  15.881  0.00  0.00    +0.083 C 
ATOM      4  C   UNL     1      -6.037  -9.879  16.683  0.00  0.00    +0.035 C 
ATOM      5  C   UNL     1      -6.846  -9.770  16.797  0.00  0.00    +0.074 C 
ATOM      6  N   UNL     1      -7.219  -9.854  16.066  0.00  0.00    -0.262 NA
ATOM     17  C   UNL     1      -6.642 -10.015  15.500  0.00  0.00    +0.151 C 
ATOM     18  C   UNL     1      -6.807 -10.134  14.701  0.00  0.00    +0.257 C 
ATOM     19  O   UNL     1      -7.604 -10.082  14.490  0.00  0.00    -0.272 OA
ATOM     20  N   UNL     1      -6.284 -10.298  14.086  0.00  0.00    -0.203 NA
ATOM     21  C   UNL     1      -5.464 -10.383  14.117  0.00  0.00    +0.131 C 
ATOM     22  C   UNL     1      -4.965 -10.326  14.772  0.00  0.00    +0.080 C 
ENDROOT
BRANCH   6   7
ATOM      7  C   UNL     1      -8.030  -9.788  15.926  0.00  0.00    +0.100 C 
BRANCH   7   8
ATOM      8  C   UNL     1      -8.564  -9.869  16.549  0.00  0.00    -0.006 A 
ATOM      9  C   UNL     1      -8.792 -10.620  16.802  0.00  0.00    -0.003 A 
ATOM     10  C   UNL     1      -9.326 -10.702  17.426  0.00  0.00    +0.006 A 
ATOM     11  C   UNL     1      -9.634 -10.032  17.796  0.00  0.00    +0.080 A 
ATOM     12  C   UNL     1      -9.406  -9.280  17.542  0.00  0.00    +0.006 A 
ATOM     13  C   UNL     1      -8.872  -9.198  16.919  0.00  0.00    -0.003 A 
BRANCH  11  14
ATOM     14  C   UNL     1     -10.168 -10.113  18.419  0.00  0.00    +0.388 C 
ATOM     15  O   UNL     1     -10.719 -10.727  18.413  0.00  0.00    -0.241 OA
ATOM     16  O   UNL     1     -10.152  -9.579  19.048  0.00  0.00    -0.241 OA
ENDBRANCH  11  14
ENDBRANCH   7   8
ENDBRANCH   6   7
BRANCH  22  23
ATOM     23  C   UNL     1      -4.163 -10.441  14.622  0.00  0.00    +0.027 C 
BRANCH  23  24
ATOM     24  C   UNL     1      -3.906 -10.611  13.856  0.00  0.00    +0.088 C 
BRANCH  24  25
ATOM     25  C   UNL     1      -3.099 -10.621  13.684  0.00  0.00    +0.242 C 
ATOM     26  O   UNL     1      -2.551 -10.761  14.285  0.00  0.00    -0.273 OA
ATOM     27  N   UNL     1      -2.841 -10.492  12.912  0.00  0.00    -0.191 NA
BRANCH  27  28
ATOM     28  C   UNL     1      -2.034 -10.502  12.739  0.00  0.00    +0.191 C 
BRANCH  28  29
ATOM     29  C   UNL     1      -1.753 -10.132  12.058  0.00  0.00    -0.054 C 
ATOM     30  C   UNL     1      -1.472  -9.761  11.377  0.00  0.00    -0.012 C 
ENDBRANCH  28  29
ENDBRANCH  27  28
ENDBRANCH  24  25
ENDBRANCH  23  24
ENDBRANCH  22  23
TORSDOF 8
ENDMDL
MODEL 6
REMARK VINA RESULT:      -5.1     17.171     18.136
REMARK  Name = 
REMARK  8 active torsions:
REMARK  status: ('A' for Active; 'I' for Inactive)
REMARK    1  A    between atoms: N_6  and  C_7
REMARK    2  A    between atoms: C_7  and  C_8
REMARK    3  A    between atoms: C_11  and  C_14
REMARK    4  A    between atoms: C_22  and  C_23
REMARK    5  A    between atoms: C_23  and  C_24
REMARK    6  A    between atoms: C_24  and  C_25
REMARK    7  A    between atoms: N_27  and  C_28
REMARK    8  A    between atoms: C_28  and  C_29
REMARK                            x       y       z     vdW  Elec       q    Type
REMARK                         _______ _______ _______ _____ _____    ______ ____
ROOT
ATOM      1  C   UNL     1      -4.644 -10.523  12.226  0.00  0.00    +0.090 C 
ATOM      2  N   UNL     1      -4.358 -10.138  11.556  0.00  0.00    -0.271 NA
ATOM      3  C   UNL     1      -4.930  -9.852  11.034  0.00  0.00    +0.083 C 
ATOM      4  C   UNL     1      -5.742  -9.937  11.159  0.00  0.00    +0.035 C 
ATOM      5  C   UNL     1      -6.135  -9.584  10.526  0.00  0.00    +0.074 C 
ATOM      6  N   UNL     1      -5.567  -9.281  10.010  0.00  0.00    -0.262 NA
ATOM     17  C   UNL     1      -4.823  -9.446  10.324  0.00  0.00    +0.151 C 
ATOM     18  C   UNL     1      -4.116  -9.227   9.959  0.00  0.00    +0.257 C 
ATOM     19  O   UNL     1      -4.193  -8.822   9.244  0.00  0.00    -0.272 OA
ATOM     20  N   UNL     1      -3.343  -9.358  10.214  0.00  0.00    -0.203 NA
ATOM     21  C   UNL     1      -3.085  -9.741  10.898  0.00  0.00    +0.131 C 
ATOM     22  C   UNL     1      -3.536 -10.089  11.495  0.00  0.00    +0.080 C 
ENDROOT
BRANCH   6   7
ATOM      7  C   UNL     1      -5.718  -8.883   9.304  0.00  0.00    +0.100 C 
BRANCH   7   8
ATOM      8  C   UNL     1      -6.496  -8.756   9.059  0.00  0.00    -0.006 A 
ATOM      9  C   UNL     1      -6.941  -8.150   9.398  0.00  0.00    -0.003 A 
ATOM     10  C   UNL     1      -7.719  -8.024   9.153  0.00  0.00    +0.006 A 
ATOM     11  C   UNL     1      -8.051  -8.503   8.569  0.00  0.00    +0.080 A 
ATOM     12  C   UNL     1      -7.606  -9.108   8.231  0.00  0.00    +0.006 A 
ATOM     13  C   UNL     1      -6.828  -9.236   8.475  0.00  0.00    -0.003 A 
BRANCH  11  14
ATOM     14  C   UNL     1      -8.829  -8.376   8.324  0.00  0.00    +0.388 C 
ATOM     15  O   UNL     1      -9.080  -7.616   8.124  0.00  0.00    -0.241 OA
ATOM     16  O   UNL     1      -9.356  -9.010   8.280  0.00  0.00    -0.241 OA
ENDBRANCH  11  14
ENDBRANCH   7   8
ENDBRANCH   6   7
BRANCH  22  23
ATOM     23  C   UNL     1      -3.111 -10.431  12.112  0.00  0.00    +0.027 C 
BRANCH  23  24
ATOM     24  C   UNL     1      -2.602  -9.970  12.569  0.00  0.00    +0.088 C 
BRANCH  24  25
ATOM     25  C   UNL     1      -2.010 -10.329  13.017  0.00  0.00    +0.242 C 
ATOM     26  O   UNL     1      -1.428 -10.781  12.646  0.00  0.00    -0.273 OA
ATOM     27  N   UNL     1      -1.999 -10.236  13.836  0.00  0.00    -0.191 NA
BRANCH  27  28
ATOM     28  C   UNL     1      -1.407 -10.594  14.285  0.00  0.00    +0.191 C 
BRANCH  28  29
ATOM     29  C   UNL     1      -1.391 -10.495  15.103  0.00  0.00    -0.054 C 
ATOM     30  C   UNL     1      -1.376 -10.396  15.923  0.00  0.00    -0.012 C 
ENDBRANCH  28  29
ENDBRANCH  27  28
ENDBRANCH  24  25
ENDBRANCH  23  24
ENDBRANCH  22  23
TORSDOF 8
ENDMDL
MODEL 7
REMARK VINA RESULT:      -5.1     16.186     17.998
REMARK  Name = 
REMARK  8 active torsions:
REMARK  status: ('A' for Active; 'I' for Inactive)
REMARK    1  A    between atoms: N_6  and  C_7
REMARK    2  A    between atoms: C_7  and  C_8
REMARK    3  A    between atoms: C_11  and  C_14
REMARK    4  A    between atoms: C_22  and  C_23
REMARK    5  A    between atoms: C_23  and  C_24
REMARK    6  A    between atoms: C_24  and  C_25
REMARK    7  A    between atoms: N_27  and  C_28
REMARK    8  A    between atoms: C_28  and  C_29
REMARK                            x       y       z     vdW  Elec       q    Type
REMARK                         _______ _______ _______ _____ _____    ______ ____
ROOT
ATOM      1  C   UNL     1      -6.948 -10.036  14.822  0.00  0.00    +0.090 C 
ATOM      2  N   UNL     1      -7.316  -9.913  14.094  0.00  0.00    -0.271 NA
ATOM      3  C   UNL     1      -6.815  -9.878  13.440  0.00  0.00    +0.083 C 
ATOM      4  C   UNL     1      -5.994  -9.959  13.491  0.00  0.00    +0.035 C 
ATOM      5  C   UNL     1      -5.684  -9.894  12.730  0.00  0.00    +0.074 C 
ATOM      6  N   UNL     1      -6.311  -9.772  12.209  0.00  0.00    -0.262 NA
ATOM     17  C   UNL     1      -7.010  -9.763  12.647  0.00  0.00    +0.151 C 
ATOM     18  C   UNL     1      -7.756  -9.654  12.312  0.00  0.00    +0.257 C 
ATOM     19  O   UNL     1      -7.769  -9.552  11.493  0.00  0.00    -0.272 OA
ATOM     20  N   UNL     1      -8.490  -9.633  12.687  0.00  0.00    -0.203 NA
ATOM     21  C   UNL     1      -8.660  -9.716  13.490  0.00  0.00    +0.131 C 
ATOM     22  C   UNL     1      -8.138  -9.841  14.117  0.00  0.00    +0.080 C 
ENDROOT
BRANCH   6   7
ATOM      7  C   UNL     1      -6.251  -9.677  11.392  0.00  0.00    +0.100 C 
BRANCH   7   8
ATOM      8  C   UNL     1      -5.513  -9.552  11.044  0.00  0.00    -0.006 A 
ATOM      9  C   UNL     1      -5.050 -10.196  10.815  0.00  0.00    -0.003 A 
ATOM     10  C   UNL     1      -4.312 -10.071  10.468  0.00  0.00    +0.006 A 
ATOM     11  C   UNL     1      -4.037  -9.303  10.349  0.00  0.00    +0.080 A 
ATOM     12  C   UNL     1      -4.499  -8.659  10.578  0.00  0.00    +0.006 A 
ATOM     13  C   UNL     1      -5.237  -8.783  10.925  0.00  0.00    -0.003 A 
BRANCH  11  14
ATOM     14  C   UNL     1      -3.299  -9.178  10.002  0.00  0.00    +0.388 C 
ATOM     15  O   UNL     1      -2.614  -9.425  10.389  0.00  0.00    -0.241 OA
ATOM     16  O   UNL     1      -3.247  -8.806   9.267  0.00  0.00    -0.241 OA
ENDBRANCH  11  14
ENDBRANCH   7   8
ENDBRANCH   6   7
BRANCH  22  23
ATOM     23  C   UNL     1      -8.482  -9.901  14.863  0.00  0.00    +0.027 C 
BRANCH  23  24
ATOM     24  C   UNL     1      -9.273  -9.692  14.972  0.00  0.00    +0.088 C 
BRANCH  24  25
ATOM     25  C   UNL     1      -9.570  -9.582  15.733  0.00  0.00    +0.242 C 
ATOM     26  O   UNL     1      -9.593 -10.215  16.262  0.00  0.00    -0.273 OA
ATOM     27  N   UNL     1      -9.845  -8.841  15.965  0.00  0.00    -0.191 NA
BRANCH  27  28
ATOM     28  C   UNL     1     -10.143  -8.730  16.726  0.00  0.00    +0.191 C 
BRANCH  28  29
ATOM     29  C   UNL     1     -10.429  -7.992  16.955  0.00  0.00    -0.054 C 
ATOM     30  C   UNL     1     -10.716  -7.252  17.184  0.00  0.00    -0.012 C 
ENDBRANCH  28  29
ENDBRANCH  27  28
ENDBRANCH  24  25
ENDBRANCH  23  24
ENDBRANCH  22  23
TORSDOF 8
ENDMDL
MODEL 8
REMARK VINA RESULT:      -5.0     15.102     17.129
REMARK  Name = 
REMARK  8 active torsions:
REMARK  status: ('A' for Active; 'I' for Inactive)
REMARK    1  A    between atoms: N_6  and  C_7
REMARK    2  A    between atoms: C_7  and  C_8
REMARK    3  A    between atoms: C_11  and  C_14
REMARK    4  A    between atoms: C_22  and  C_23
REMARK    5  A    between atoms: C_23  and  C_24
REMARK    6  A    between atoms: C_24  and  C_25
REMARK    7  A    between atoms: N_27  and  C_28
REMARK    8  A    between atoms: C_28  and  C_29
REMARK                            x       y       z     vdW  Elec       q    Type
REMARK                         _______ _______ _______ _____ _____    ______ ____
ROOT
ATOM      1  C   UNL     1      -5.486  -9.989  16.366  0.00  0.00    +0.090 C 
ATOM      2  N   UNL     1      -5.836 -10.106  15.629  0.00  0.00    -0.271 NA
ATOM      3  C   UNL     1      -5.321 -10.290  15.012  0.00  0.00    +0.083 C 
ATOM      4  C   UNL     1      -4.504 -10.358  15.107  0.00  0.00    +0.035 C 
ATOM      5  C   UNL     1      -4.176 -10.546  14.373  0.00  0.00    +0.074 C 
ATOM      6  N   UNL     1      -4.790 -10.595  13.825  0.00  0.00    -0.262 NA
ATOM     17  C   UNL     1      -5.498 -10.437  14.219  0.00  0.00    +0.151 C 
ATOM     18  C   UNL     1      -6.235 -10.436  13.848  0.00  0.00    +0.257 C 
ATOM     19  O   UNL     1      -6.229 -10.605  13.041  0.00  0.00    -0.272 OA
ATOM     20  N   UNL     1      -6.976 -10.287  14.177  0.00  0.00    -0.203 NA
ATOM     21  C   UNL     1      -7.164 -10.104  14.959  0.00  0.00    +0.131 C 
ATOM     22  C   UNL     1      -6.657 -10.023  15.606  0.00  0.00    +0.080 C 
ENDROOT
BRANCH   6   7
ATOM      7  C   UNL     1      -4.711 -10.771  13.024  0.00  0.00    +0.100 C 
BRANCH   7   8
ATOM      8  C   UNL     1      -4.020 -10.566  12.622  0.00  0.00    -0.006 A 
ATOM      9  C   UNL     1      -3.286 -10.781  12.929  0.00  0.00    -0.003 A 
ATOM     10  C   UNL     1      -2.594 -10.576  12.528  0.00  0.00    +0.006 A 
ATOM     11  C   UNL     1      -2.638 -10.156  11.819  0.00  0.00    +0.080 A 
ATOM     12  C   UNL     1      -3.372  -9.941  11.512  0.00  0.00    +0.006 A 
ATOM     13  C   UNL     1      -4.064 -10.146  11.913  0.00  0.00    -0.003 A 
BRANCH  11  14
ATOM     14  C   UNL     1      -1.947  -9.951  11.418  0.00  0.00    +0.388 C 
ATOM     15  O   UNL     1      -1.244 -10.355  11.573  0.00  0.00    -0.241 OA
ATOM     16  O   UNL     1      -1.958  -9.342  10.861  0.00  0.00    -0.241 OA
ENDBRANCH  11  14
ENDBRANCH   7   8
ENDBRANCH   6   7
BRANCH  22  23
ATOM     23  C   UNL     1      -7.018  -9.834  16.322  0.00  0.00    +0.027 C 
BRANCH  23  24
ATOM     24  C   UNL     1      -7.841  -9.833  16.383  0.00  0.00    +0.088 C 
BRANCH  24  25
ATOM     25  C   UNL     1      -8.209  -9.422  16.996  0.00  0.00    +0.242 C 
ATOM     26  O   UNL     1      -7.952  -9.523  17.773  0.00  0.00    -0.273 OA
ATOM     27  N   UNL     1      -8.834  -8.910  16.832  0.00  0.00    -0.191 NA
BRANCH  27  28
ATOM     28  C   UNL     1      -9.203  -8.498  17.445  0.00  0.00    +0.191 C 
BRANCH  28  29
ATOM     29  C   UNL     1      -9.837  -7.997  17.283  0.00  0.00    -0.054 C 
ATOM     30  C   UNL     1     -10.472  -7.495  17.120  0.00  0.00    -0.012 C 
ENDBRANCH  28  29
ENDBRANCH  27  28
ENDBRANCH  24  25
ENDBRANCH  23  24
ENDBRANCH  22  23
TORSDOF 8
ENDMDL
