MODEL 1
REMARK VINA RESULT:      -8.7      0.000      0.000
REMARK  Name = 
REMARK  8 active torsions:
REMARK  status: ('A' for Active; 'I' for Inactive)
REMARK    1  A    between atoms: C_5  and  S_8
REMARK    2  A    between atoms: S_8  and  N_11
REMARK    3  A    between atoms: N_11  and  C_12
REMARK    4  A    between atoms: C_12  and  C_13
REMARK    5  A    between atoms: C_20  and  C_21
REMARK    6  A    between atoms: C_21  and  N_22
REMARK    7  A    between atoms: N_25  and  S_28
REMARK    8  A    between atoms: S_28  and  C_31
REMARK                            x       y       z     vdW  Elec       q    Type
REMARK                         _______ _______ _______ _____ _____    ______ ____
ROOT
ATOM     13  C   UNL     1       0.511  -0.147  23.701  0.00  0.00    +0.077 C 
ATOM     14  C   UNL     1       0.166  -0.807  23.928  0.00  0.00    +0.018 C 
ATOM     15  C   UNL     1      -0.613  -0.884  24.134  0.00  0.00    +0.005 C 
ATOM     16  C   UNL     1      -0.816  -1.726  24.366  0.00  0.00    +0.017 C 
ATOM     17  C   UNL     1      -0.426  -1.241  24.166  0.00  0.00    +0.072 C 
ATOM     18  N   UNL     1      -0.282  -0.234  23.913  0.00  0.00    -0.272 NA
ATOM     19  C   UNL     1      -0.972   0.362  23.951  0.00  0.00    +0.073 C 
ATOM     20  C   UNL     1      -1.273  -0.305  24.169  0.00  0.00    +0.032 C 
ENDROOT
BRANCH  13  12
ATOM     12  C   UNL     1       1.161   0.293  23.448  0.00  0.00    +0.131 C 
BRANCH  12  11
ATOM     11  N   UNL     1       1.661  -0.007  22.864  0.00  0.00    -0.076 NA
BRANCH  11   8
ATOM      8  S   UNL     1       2.478   0.072  22.942  0.00  0.00    +0.077 S 
ATOM      9  O   UNL     1       2.382   0.857  23.174  0.00  0.00    -0.152 OA
ATOM     10  O   UNL     1       2.575  -0.713  22.710  0.00  0.00    -0.152 OA
BRANCH   8   5
ATOM      1 CL   UNL     1       5.749   0.386  23.250  0.00  0.00    -0.082 Cl
ATOM      2  C   UNL     1       4.931   0.307  23.173  0.00  0.00    +0.058 A 
ATOM      3  C   UNL     1       4.554  -0.372  23.451  0.00  0.00    +0.013 A 
ATOM      4  C   UNL     1       3.736  -0.451  23.374  0.00  0.00    +0.021 A 
ATOM      5  C   UNL     1       3.296   0.150  23.019  0.00  0.00    +0.124 A 
ATOM      6  C   UNL     1       3.673   0.830  22.741  0.00  0.00    +0.021 A 
ATOM      7  C   UNL     1       4.491   0.908  22.819  0.00  0.00    +0.013 A 
ENDBRANCH   8   5
ENDBRANCH  11   8
ENDBRANCH  12  11
ENDBRANCH  13  12
BRANCH  20  21
ATOM     21  C   UNL     1      -2.054  -0.452  24.391  0.00  0.00    +0.074 C 
BRANCH  21  22
ATOM     22  N   UNL     1      -2.563   0.178  24.546  0.00  0.00    -0.270 NA
ATOM     23  C   UNL     1      -2.594   0.506  25.303  0.00  0.00    +0.092 C 
ATOM     24  C   UNL     1      -3.104   1.136  25.459  0.00  0.00    +0.113 C 
ATOM     25  N   UNL     1      -3.581   1.438  24.858  0.00  0.00    -0.153 NA
ATOM     26  C   UNL     1      -3.551   1.111  24.101  0.00  0.00    +0.113 C 
ATOM     27  C   UNL     1      -3.041   0.480  23.946  0.00  0.00    +0.092 C 
BRANCH  25  28
ATOM     28  S   UNL     1      -4.091   2.068  25.013  0.00  0.00    +0.063 S 
ATOM     29  O   UNL     1      -3.443   2.572  25.101  0.00  0.00    -0.153 OA
ATOM     30  O   UNL     1      -4.739   1.565  24.926  0.00  0.00    -0.153 OA
BRANCH  28  31
ATOM     31  C   UNL     1      -4.600   2.698  25.169  0.00  0.00    +0.122 A 
ATOM     32  C   UNL     1      -5.344   2.556  25.497  0.00  0.00    +0.021 A 
ATOM     33  C   UNL     1      -5.855   3.185  25.652  0.00  0.00    +0.013 A 
ATOM     34  C   UNL     1      -5.620   3.958  25.480  0.00  0.00    +0.058 A 
ATOM     35 CL   UNL     1      -6.130   4.587  25.636  0.00  0.00    -0.082 Cl
ATOM     36  C   UNL     1      -4.877   4.100  25.152  0.00  0.00    +0.013 A 
ATOM     37  C   UNL     1      -4.366   3.470  24.997  0.00  0.00    +0.021 A 
ENDBRANCH  28  31
ENDBRANCH  25  28
ENDBRANCH  21  22
ENDBRANCH  20  21
TORSDOF 8
ENDMDL
MODEL 2
REMARK VINA RESULT:      -8.4      1.260      7.072
REMARK  Name = 
REMARK  8 active torsions:
REMARK  status: ('A' for Active; 'I' for Inactive)
REMARK    1  A    between atoms: C_5  and  S_8
REMARK    2  A    between atoms: S_8  and  N_11
REMARK    3  A    between atoms: N_11  and  C_12
REMARK    4  A    between atoms: C_12  and  C_13
REMARK    5  A    between atoms: C_20  and  C_21
REMARK    6  A    between atoms: C_21  and  N_22
REMARK    7  A    between atoms: N_25  and  S_28
REMARK    8  A    between atoms: S_28  and  C_31
REMARK                            x       y       z     vdW  Elec       q    Type
REMARK                         _______ _______ _______ _____ _____    ______ ____
ROOT
ATOM     13  C   UNL     1      -4.013  -0.443  25.150  0.00  0.00    +0.077 C 
ATOM     14  C   UNL     1      -3.950  -1.195  24.957  0.00  0.00    +0.018 C 
ATOM     15  C   UNL     1      -3.260  -1.581  24.784  0.00  0.00    +0.005 C 
ATOM     16  C   UNL     1      -3.401  -2.444  24.586  0.00  0.00    +0.017 C 
ATOM     17  C   UNL     1      -3.572  -1.837  24.756  0.00  0.00    +0.072 C 
ATOM     18  N   UNL     1      -3.314  -0.844  24.972  0.00  0.00    -0.272 NA
ATOM     19  C   UNL     1      -2.444  -0.570  24.942  0.00  0.00    +0.073 C 
ATOM     20  C   UNL     1      -2.426  -1.310  24.757  0.00  0.00    +0.032 C 
ENDROOT
BRANCH  13  12
ATOM     12  C   UNL     1      -4.442   0.228  25.364  0.00  0.00    +0.131 C 
BRANCH  12  11
ATOM     11  N   UNL     1      -4.760   0.718  24.781  0.00  0.00    -0.076 NA
BRANCH  11   8
ATOM      8  S   UNL     1      -4.945   1.502  24.958  0.00  0.00    +0.077 S 
ATOM      9  O   UNL     1      -5.304   1.260  25.660  0.00  0.00    -0.152 OA
ATOM     10  O   UNL     1      -4.587   1.744  24.256  0.00  0.00    -0.152 OA
BRANCH   8   5
ATOM      1 CL   UNL     1      -5.686   4.639  25.664  0.00  0.00    -0.082 Cl
ATOM      2  C   UNL     1      -5.500   3.855  25.487  0.00  0.00    +0.058 A 
ATOM      3  C   UNL     1      -4.761   3.666  25.173  0.00  0.00    +0.013 A 
ATOM      4  C   UNL     1      -4.576   2.882  24.997  0.00  0.00    +0.021 A 
ATOM      5  C   UNL     1      -5.130   2.286  25.134  0.00  0.00    +0.124 A 
ATOM      6  C   UNL     1      -5.869   2.475  25.449  0.00  0.00    +0.021 A 
ATOM      7  C   UNL     1      -6.054   3.259  25.625  0.00  0.00    +0.013 A 
ENDBRANCH   8   5
ENDBRANCH  11   8
ENDBRANCH  12  11
ENDBRANCH  13  12
BRANCH  20  21
ATOM     21  C   UNL     1      -1.760  -1.761  24.570  0.00  0.00    +0.074 C 
BRANCH  21  22
ATOM     22  N   UNL     1      -1.077  -1.393  24.293  0.00  0.00    -0.270 NA
ATOM     23  C   UNL     1      -0.501  -1.136  24.826  0.00  0.00    +0.092 C 
ATOM     24  C   UNL     1       0.182  -0.767  24.548  0.00  0.00    +0.113 C 
ATOM     25  N   UNL     1       0.291  -0.655  23.738  0.00  0.00    -0.153 NA
ATOM     26  C   UNL     1      -0.284  -0.912  23.205  0.00  0.00    +0.113 C 
ATOM     27  C   UNL     1      -0.968  -1.280  23.483  0.00  0.00    +0.092 C 
BRANCH  25  28
ATOM     28  S   UNL     1       0.974  -0.286  23.460  0.00  0.00    +0.063 S 
ATOM     29  O   UNL     1       1.407  -0.973  23.610  0.00  0.00    -0.153 OA
ATOM     30  O   UNL     1       0.543   0.401  23.310  0.00  0.00    -0.153 OA
BRANCH  28  31
ATOM     31  C   UNL     1       1.658   0.083  23.182  0.00  0.00    +0.122 A 
ATOM     32  C   UNL     1       1.884   0.816  23.486  0.00  0.00    +0.021 A 
ATOM     33  C   UNL     1       2.567   1.186  23.209  0.00  0.00    +0.013 A 
ATOM     34  C   UNL     1       3.025   0.821  22.627  0.00  0.00    +0.058 A 
ATOM     35 CL   UNL     1       3.709   1.191  22.350  0.00  0.00    -0.082 Cl
ATOM     36  C   UNL     1       2.800   0.088  22.323  0.00  0.00    +0.013 A 
ATOM     37  C   UNL     1       2.116  -0.281  22.601  0.00  0.00    +0.021 A 
ENDBRANCH  28  31
ENDBRANCH  25  28
ENDBRANCH  21  22
ENDBRANCH  20  21
TORSDOF 8
ENDMDL
MODEL 3
REMARK VINA RESULT:      -7.9     17.409     18.496
REMARK  Name = 
REMARK  8 active torsions:
REMARK  status: ('A' for Active; 'I' for Inactive)
REMARK    1  A    between atoms: C_5  and  S_8
REMARK    2  A    between atoms: S_8  and  N_11
REMARK    3  A    between atoms: N_11  and  C_12
REMARK    4  A    between atoms: C_12  and  C_13
REMARK    5  A    between atoms: C_20  and  C_21
REMARK    6  A    between atoms: C_21  and  N_22
REMARK    7  A    between atoms: N_25  and  S_28
REMARK    8  A    between atoms: S_28  and  C_31
REMARK                            x       y       z     vdW  Elec       q    Type
REMARK                         _______ _______ _______ _____ _____    ______ ____
ROOT
ATOM     13  C   UNL     1      17.130  -5.594  25.160  0.00  0.00    +0.077 C 
ATOM     14  C   UNL     1      17.247  -6.363  25.148  0.00  0.00    +0.018 C 
ATOM     15  C   UNL     1      17.046  -6.880  25.737  0.00  0.00    +0.005 C 
ATOM     16  C   UNL     1      17.266  -7.725  25.530  0.00  0.00    +0.017 C 
ATOM     17  C   UNL     1      17.219  -7.081  25.431  0.00  0.00    +0.072 C 
ATOM     18  N   UNL     1      16.927  -6.128  25.756  0.00  0.00    -0.272 NA
ATOM     19  C   UNL     1      16.529  -6.012  26.569  0.00  0.00    +0.073 C 
ATOM     20  C   UNL     1      16.662  -6.762  26.517  0.00  0.00    +0.032 C 
ENDROOT
BRANCH  13  12
ATOM     12  C   UNL     1      17.173  -4.838  24.834  0.00  0.00    +0.131 C 
BRANCH  12  11
ATOM     11  N   UNL     1      17.156  -4.740  24.015  0.00  0.00    -0.076 NA
BRANCH  11   8
ATOM      8  S   UNL     1      16.995  -3.998  23.692  0.00  0.00    +0.077 S 
ATOM      9  O   UNL     1      16.702  -4.358  23.010  0.00  0.00    -0.152 OA
ATOM     10  O   UNL     1      17.288  -3.638  24.374  0.00  0.00    -0.152 OA
BRANCH   8   5
ATOM      1 CL   UNL     1      16.352  -1.030  22.401  0.00  0.00    -0.082 Cl
ATOM      2  C   UNL     1      16.512  -1.772  22.724  0.00  0.00    +0.058 A 
ATOM      3  C   UNL     1      15.941  -2.157  23.178  0.00  0.00    +0.013 A 
ATOM      4  C   UNL     1      16.102  -2.899  23.501  0.00  0.00    +0.021 A 
ATOM      5  C   UNL     1      16.834  -3.256  23.370  0.00  0.00    +0.124 A 
ATOM      6  C   UNL     1      17.405  -2.871  22.915  0.00  0.00    +0.021 A 
ATOM      7  C   UNL     1      17.244  -2.129  22.593  0.00  0.00    +0.013 A 
ENDBRANCH   8   5
ENDBRANCH  11   8
ENDBRANCH  12  11
ENDBRANCH  13  12
BRANCH  20  21
ATOM     21  C   UNL     1      16.483  -7.341  27.078  0.00  0.00    +0.074 C 
BRANCH  21  22
ATOM     22  N   UNL     1      15.986  -7.162  27.711  0.00  0.00    -0.270 NA
ATOM     23  C   UNL     1      16.306  -7.002  28.454  0.00  0.00    +0.092 C 
ATOM     24  C   UNL     1      15.809  -6.823  29.088  0.00  0.00    +0.113 C 
ATOM     25  N   UNL     1      14.992  -6.802  28.978  0.00  0.00    -0.153 NA
ATOM     26  C   UNL     1      14.671  -6.961  28.235  0.00  0.00    +0.113 C 
ATOM     27  C   UNL     1      15.168  -7.141  27.601  0.00  0.00    +0.092 C 
BRANCH  25  28
ATOM     28  S   UNL     1      14.494  -6.622  29.611  0.00  0.00    +0.063 S 
ATOM     29  O   UNL     1      14.586  -5.817  29.456  0.00  0.00    -0.153 OA
ATOM     30  O   UNL     1      14.402  -7.427  29.767  0.00  0.00    -0.153 OA
BRANCH  28  31
ATOM     31  C   UNL     1      13.997  -6.443  30.244  0.00  0.00    +0.122 A 
ATOM     32  C   UNL     1      13.223  -6.731  30.256  0.00  0.00    +0.021 A 
ATOM     33  C   UNL     1      12.725  -6.552  30.889  0.00  0.00    +0.013 A 
ATOM     34  C   UNL     1      13.001  -6.084  31.510  0.00  0.00    +0.058 A 
ATOM     35 CL   UNL     1      12.503  -5.905  32.143  0.00  0.00    -0.082 Cl
ATOM     36  C   UNL     1      13.774  -5.796  31.498  0.00  0.00    +0.013 A 
ATOM     37  C   UNL     1      14.272  -5.975  30.865  0.00  0.00    +0.021 A 
ENDBRANCH  28  31
ENDBRANCH  25  28
ENDBRANCH  21  22
ENDBRANCH  20  21
TORSDOF 8
ENDMDL
MODEL 4
REMARK VINA RESULT:      -6.4      3.911      6.228
REMARK  Name = 
REMARK  8 active torsions:
REMARK  status: ('A' for Active; 'I' for Inactive)
REMARK    1  A    between atoms: C_5  and  S_8
REMARK    2  A    between atoms: S_8  and  N_11
REMARK    3  A    between atoms: N_11  and  C_12
REMARK    4  A    between atoms: C_12  and  C_13
REMARK    5  A    between atoms: C_20  and  C_21
REMARK    6  A    between atoms: C_21  and  N_22
REMARK    7  A    between atoms: N_25  and  S_28
REMARK    8  A    between atoms: S_28  and  C_31
REMARK                            x       y       z     vdW  Elec       q    Type
REMARK                         _______ _______ _______ _____ _____    ______ ____
ROOT
ATOM     13  C   UNL     1      -4.731   3.571  25.521  0.00  0.00    +0.077 C 
ATOM     14  C   UNL     1      -5.372   3.231  25.803  0.00  0.00    +0.018 C 
ATOM     15  C   UNL     1      -5.574   2.453  25.708  0.00  0.00    +0.005 C 
ATOM     16  C   UNL     1      -6.352   2.259  26.110  0.00  0.00    +0.017 C 
ATOM     17  C   UNL     1      -5.857   2.643  25.926  0.00  0.00    +0.072 C 
ATOM     18  N   UNL     1      -4.944   2.778  25.429  0.00  0.00    -0.272 NA
ATOM     19  C   UNL     1      -4.537   2.083  25.001  0.00  0.00    +0.073 C 
ATOM     20  C   UNL     1      -5.177   1.788  25.295  0.00  0.00    +0.032 C 
ENDROOT
BRANCH  13  12
ATOM     12  C   UNL     1      -4.231   4.216  25.405  0.00  0.00    +0.131 C 
BRANCH  12  11
ATOM     11  N   UNL     1      -3.610   4.356  25.929  0.00  0.00    -0.076 NA
BRANCH  11   8
ATOM      8  S   UNL     1      -2.849   4.494  25.640  0.00  0.00    +0.077 S 
ATOM      9  O   UNL     1      -3.169   4.783  24.937  0.00  0.00    -0.152 OA
ATOM     10  O   UNL     1      -2.530   4.205  26.343  0.00  0.00    -0.152 OA
BRANCH   8   5
ATOM      1 CL   UNL     1       0.193   5.044  24.486  0.00  0.00    -0.082 Cl
ATOM      2  C   UNL     1      -0.568   4.907  24.775  0.00  0.00    +0.058 A 
ATOM      3  C   UNL     1      -1.088   5.538  24.883  0.00  0.00    +0.013 A 
ATOM      4  C   UNL     1      -1.849   5.400  25.171  0.00  0.00    +0.021 A 
ATOM      5  C   UNL     1      -2.089   4.632  25.352  0.00  0.00    +0.124 A 
ATOM      6  C   UNL     1      -1.568   4.001  25.243  0.00  0.00    +0.021 A 
ATOM      7  C   UNL     1      -0.808   4.139  24.955  0.00  0.00    +0.013 A 
ENDBRANCH   8   5
ENDBRANCH  11   8
ENDBRANCH  12  11
ENDBRANCH  13  12
BRANCH  20  21
ATOM     21  C   UNL     1      -5.440   1.008  25.235  0.00  0.00    +0.074 C 
BRANCH  21  22
ATOM     22  N   UNL     1      -4.904   0.404  25.075  0.00  0.00    -0.270 NA
ATOM     23  C   UNL     1      -4.791   0.148  24.298  0.00  0.00    +0.092 C 
ATOM     24  C   UNL     1      -4.254  -0.457  24.137  0.00  0.00    +0.113 C 
ATOM     25  N   UNL     1      -3.830  -0.807  24.752  0.00  0.00    -0.153 NA
ATOM     26  C   UNL     1      -3.943  -0.553  25.529  0.00  0.00    +0.113 C 
ATOM     27  C   UNL     1      -4.480   0.053  25.690  0.00  0.00    +0.092 C 
BRANCH  25  28
ATOM     28  S   UNL     1      -3.293  -1.413  24.591  0.00  0.00    +0.063 S 
ATOM     29  O   UNL     1      -3.781  -1.951  24.983  0.00  0.00    -0.153 OA
ATOM     30  O   UNL     1      -2.805  -0.875  24.200  0.00  0.00    -0.153 OA
BRANCH  28  31
ATOM     31  C   UNL     1      -2.756  -2.018  24.431  0.00  0.00    +0.122 A 
ATOM     32  C   UNL     1      -1.947  -1.886  24.521  0.00  0.00    +0.021 A 
ATOM     33  C   UNL     1      -1.409  -2.491  24.361  0.00  0.00    +0.013 A 
ATOM     34  C   UNL     1      -1.682  -3.228  24.109  0.00  0.00    +0.058 A 
ATOM     35 CL   UNL     1      -1.144  -3.833  23.949  0.00  0.00    -0.082 Cl
ATOM     36  C   UNL     1      -2.491  -3.360  24.019  0.00  0.00    +0.013 A 
ATOM     37  C   UNL     1      -3.028  -2.755  24.180  0.00  0.00    +0.021 A 
ENDBRANCH  28  31
ENDBRANCH  25  28
ENDBRANCH  21  22
ENDBRANCH  20  21
TORSDOF 8
ENDMDL
MODEL 5
REMARK VINA RESULT:      -6.2      2.376      6.776
REMARK  Name = 
REMARK  8 active torsions:
REMARK  status: ('A' for Active; 'I' for Inactive)
REMARK    1  A    between atoms: C_5  and  S_8
REMARK    2  A    between atoms: S_8  and  N_11
REMARK    3  A    between atoms: N_11  and  C_12
REMARK    4  A    between atoms: C_12  and  C_13
REMARK    5  A    between atoms: C_20  and  C_21
REMARK    6  A    between atoms: C_21  and  N_22
REMARK    7  A    between atoms: N_25  and  S_28
REMARK    8  A    between atoms: S_28  and  C_31
REMARK                            x       y       z     vdW  Elec       q    Type
REMARK                         _______ _______ _______ _____ _____    ______ ____
ROOT
ATOM     13  C   UNL     1      -3.758   1.579  24.818  0.00  0.00    +0.077 C 
ATOM     14  C   UNL     1      -3.587   2.292  25.080  0.00  0.00    +0.018 C 
ATOM     15  C   UNL     1      -2.851   2.631  25.079  0.00  0.00    +0.005 C 
ATOM     16  C   UNL     1      -2.864   3.459  25.424  0.00  0.00    +0.017 C 
ATOM     17  C   UNL     1      -3.121   2.888  25.237  0.00  0.00    +0.072 C 
ATOM     18  N   UNL     1      -3.011   1.931  24.821  0.00  0.00    -0.272 NA
ATOM     19  C   UNL     1      -2.195   1.633  24.543  0.00  0.00    +0.073 C 
ATOM     20  C   UNL     1      -2.069   2.337  24.810  0.00  0.00    +0.032 C 
ENDROOT
BRANCH  13  12
ATOM     12  C   UNL     1      -4.277   0.959  24.661  0.00  0.00    +0.131 C 
BRANCH  12  11
ATOM     11  N   UNL     1      -4.373   0.351  25.211  0.00  0.00    -0.076 NA
BRANCH  11   8
ATOM      8  S   UNL     1      -4.228  -0.431  24.991  0.00  0.00    +0.077 S 
ATOM      9  O   UNL     1      -3.898  -0.579  25.732  0.00  0.00    -0.152 OA
ATOM     10  O   UNL     1      -4.558  -0.282  24.250  0.00  0.00    -0.152 OA
BRANCH   8   5
ATOM      1 CL   UNL     1      -3.649  -3.557  24.108  0.00  0.00    -0.082 Cl
ATOM      2  C   UNL     1      -3.794  -2.775  24.328  0.00  0.00    +0.058 A 
ATOM      3  C   UNL     1      -4.233  -2.282  23.835  0.00  0.00    +0.013 A 
ATOM      4  C   UNL     1      -4.378  -1.500  24.055  0.00  0.00    +0.021 A 
ATOM      5  C   UNL     1      -4.084  -1.212  24.770  0.00  0.00    +0.124 A 
ATOM      6  C   UNL     1      -3.644  -1.706  25.264  0.00  0.00    +0.021 A 
ATOM      7  C   UNL     1      -3.500  -2.487  25.043  0.00  0.00    +0.013 A 
ENDBRANCH   8   5
ENDBRANCH  11   8
ENDBRANCH  12  11
ENDBRANCH  13  12
BRANCH  20  21
ATOM     21  C   UNL     1      -1.348   2.739  24.838  0.00  0.00    +0.074 C 
BRANCH  21  22
ATOM     22  N   UNL     1      -0.672   2.394  24.519  0.00  0.00    -0.270 NA
ATOM     23  C   UNL     1      -0.160   1.964  25.004  0.00  0.00    +0.092 C 
ATOM     24  C   UNL     1       0.517   1.618  24.685  0.00  0.00    +0.113 C 
ATOM     25  N   UNL     1       0.684   1.701  23.881  0.00  0.00    -0.153 NA
ATOM     26  C   UNL     1       0.173   2.131  23.396  0.00  0.00    +0.113 C 
ATOM     27  C   UNL     1      -0.504   2.477  23.715  0.00  0.00    +0.092 C 
BRANCH  25  28
ATOM     28  S   UNL     1       1.362   1.355  23.562  0.00  0.00    +0.063 S 
ATOM     29  O   UNL     1       1.821   1.964  23.876  0.00  0.00    -0.153 OA
ATOM     30  O   UNL     1       0.902   0.746  23.249  0.00  0.00    -0.153 OA
BRANCH  28  31
ATOM     31  C   UNL     1       2.039   1.009  23.243  0.00  0.00    +0.122 A 
ATOM     32  C   UNL     1       2.745   1.436  23.213  0.00  0.00    +0.021 A 
ATOM     33  C   UNL     1       3.423   1.091  22.894  0.00  0.00    +0.013 A 
ATOM     34  C   UNL     1       3.395   0.318  22.605  0.00  0.00    +0.058 A 
ATOM     35 CL   UNL     1       4.073  -0.027  22.286  0.00  0.00    -0.082 Cl
ATOM     36  C   UNL     1       2.690  -0.108  22.635  0.00  0.00    +0.013 A 
ATOM     37  C   UNL     1       2.011   0.237  22.954  0.00  0.00    +0.021 A 
ENDBRANCH  28  31
ENDBRANCH  25  28
ENDBRANCH  21  22
ENDBRANCH  20  21
TORSDOF 8
ENDMDL
