MODEL 1
REMARK VINA RESULT:     -11.4      0.000      0.000
REMARK  Name = 
REMARK  5 active torsions:
REMARK  status: ('A' for Active; 'I' for Inactive)
REMARK    1  A    between atoms: O_2  and  C_3
REMARK    2  A    between atoms: C_6  and  C_7
REMARK    3  A    between atoms: C_7  and  N_8
REMARK    4  A    between atoms: C_18  and  C_20
REMARK    5  A    between atoms: C_23  and  C_26
REMARK                            x       y       z     vdW  Elec       q    Type
REMARK                         _______ _______ _______ _____ _____    ______ ____
ROOT
ATOM      8  N   UNL     1      -4.009   0.086  24.853  0.00  0.00    -0.258 N 
ATOM      9  C   UNL     1      -3.195   0.092  24.991  0.00  0.00    +0.117 C 
ATOM     10  C   UNL     1      -2.940   0.875  24.976  0.00  0.00    +0.116 C 
ATOM     11  C   UNL     1      -2.195   1.216  25.077  0.00  0.00    +0.115 C 
ATOM     12  N   UNL     1      -2.106   2.034  25.031  0.00  0.00    -0.273 N 
ATOM     13  C   UNL     1      -2.761   2.513  24.884  0.00  0.00    +0.115 C 
ATOM     14  C   UNL     1      -3.506   2.174  24.783  0.00  0.00    +0.116 C 
ATOM     15  N   UNL     1      -3.596   1.354  24.829  0.00  0.00    -0.261 N 
ATOM     16  C   UNL     1      -4.256   0.867  24.753  0.00  0.00    +0.308 C 
ATOM     17  O   UNL     1      -5.028   1.116  24.603  0.00  0.00    -0.252 OA
ATOM     18  C   UNL     1      -1.361   2.375  25.132  0.00  0.00    +0.249 C 
ATOM     19  O   UNL     1      -0.706   1.896  25.279  0.00  0.00    -0.270 OA
ENDROOT
BRANCH  18  20
ATOM     20  C   UNL     1      -1.271   3.193  25.086  0.00  0.00    +0.054 A 
ATOM     21  C   UNL     1      -0.956   3.537  24.405  0.00  0.00    +0.004 A 
ATOM     22  C   UNL     1      -0.867   4.355  24.360  0.00  0.00    +0.004 A 
ATOM     23  C   UNL     1      -1.092   4.831  24.995  0.00  0.00    +0.071 A 
ATOM     24  C   UNL     1      -1.407   4.488  25.676  0.00  0.00    +0.004 A 
ATOM     25  C   UNL     1      -1.497   3.669  25.722  0.00  0.00    +0.004 A 
BRANCH  23  26
ATOM     26  C   UNL     1      -1.002   5.650  24.949  0.00  0.00    +0.419 C 
ATOM     27  F   UNL     1      -0.913   6.468  24.904  0.00  0.00    -0.166 F 
ATOM     28  F   UNL     1      -0.261   5.549  24.602  0.00  0.00    -0.166 F 
ATOM     29  F   UNL     1      -1.744   5.750  25.296  0.00  0.00    -0.166 F 
ENDBRANCH  23  26
ENDBRANCH  18  20
BRANCH   8   7
ATOM      7  C   UNL     1      -4.491  -0.583  24.821  0.00  0.00    +0.122 C 
BRANCH   7   6
ATOM      3  C   UNL     1      -3.506  -2.796  24.317  0.00  0.00    +0.139 A 
ATOM      4  C   UNL     1      -3.430  -2.474  25.071  0.00  0.00    +0.037 A 
ATOM      5  C   UNL     1      -3.758  -1.735  25.240  0.00  0.00    +0.001 A 
ATOM      6  C   UNL     1      -4.163  -1.321  24.653  0.00  0.00    -0.002 A 
ATOM     30  C   UNL     1      -4.239  -1.644  23.897  0.00  0.00    +0.001 A 
ATOM     31  C   UNL     1      -3.911  -2.381  23.730  0.00  0.00    +0.037 A 
BRANCH   3   2
ATOM      1  C   UNL     1      -2.382  -3.595  23.942  0.00  0.00    +0.252 C 
ATOM      2  O   UNL     1      -3.178  -3.535  24.148  0.00  0.00    -0.471 OA
ENDBRANCH   3   2
ENDBRANCH   7   6
ENDBRANCH   8   7
TORSDOF 5
ENDMDL
MODEL 2
REMARK VINA RESULT:     -11.2      3.251      6.410
REMARK  Name = 
REMARK  5 active torsions:
REMARK  status: ('A' for Active; 'I' for Inactive)
REMARK    1  A    between atoms: O_2  and  C_3
REMARK    2  A    between atoms: C_6  and  C_7
REMARK    3  A    between atoms: C_7  and  N_8
REMARK    4  A    between atoms: C_18  and  C_20
REMARK    5  A    between atoms: C_23  and  C_26
REMARK                            x       y       z     vdW  Elec       q    Type
REMARK                         _______ _______ _______ _____ _____    ______ ____
ROOT
ATOM      8  N   UNL     1      -0.712   2.000  24.989  0.00  0.00    -0.258 N 
ATOM      9  C   UNL     1      -1.494   1.984  25.253  0.00  0.00    +0.117 C 
ATOM     10  C   UNL     1      -1.814   1.249  25.057  0.00  0.00    +0.116 C 
ATOM     11  C   UNL     1      -2.561   0.922  25.179  0.00  0.00    +0.115 C 
ATOM     12  N   UNL     1      -2.725   0.157  24.917  0.00  0.00    -0.273 N 
ATOM     13  C   UNL     1      -2.141  -0.281  24.533  0.00  0.00    +0.115 C 
ATOM     14  C   UNL     1      -1.393   0.046  24.410  0.00  0.00    +0.116 C 
ATOM     15  N   UNL     1      -1.230   0.811  24.673  0.00  0.00    -0.261 N 
ATOM     16  C   UNL     1      -0.549   1.275  24.631  0.00  0.00    +0.308 C 
ATOM     17  O   UNL     1       0.169   1.053  24.290  0.00  0.00    -0.252 OA
ATOM     18  C   UNL     1      -3.472  -0.170  25.039  0.00  0.00    +0.249 C 
ATOM     19  O   UNL     1      -4.056   0.268  25.424  0.00  0.00    -0.270 OA
ENDROOT
BRANCH  18  20
ATOM     20  C   UNL     1      -3.636  -0.934  24.777  0.00  0.00    +0.054 A 
ATOM     21  C   UNL     1      -3.447  -1.583  25.251  0.00  0.00    +0.004 A 
ATOM     22  C   UNL     1      -3.610  -2.347  24.989  0.00  0.00    +0.004 A 
ATOM     23  C   UNL     1      -3.964  -2.464  24.253  0.00  0.00    +0.071 A 
ATOM     24  C   UNL     1      -4.154  -1.817  23.779  0.00  0.00    +0.004 A 
ATOM     25  C   UNL     1      -3.990  -1.051  24.041  0.00  0.00    +0.004 A 
BRANCH  23  26
ATOM     26  C   UNL     1      -4.128  -3.230  23.990  0.00  0.00    +0.419 C 
ATOM     27  F   UNL     1      -4.292  -3.994  23.728  0.00  0.00    -0.166 F 
ATOM     28  F   UNL     1      -3.530  -3.524  24.476  0.00  0.00    -0.166 F 
ATOM     29  F   UNL     1      -4.726  -2.934  23.505  0.00  0.00    -0.166 F 
ENDBRANCH  23  26
ENDBRANCH  18  20
BRANCH   8   7
ATOM      7  C   UNL     1      -0.186   2.630  25.070  0.00  0.00    +0.122 C 
BRANCH   7   6
ATOM      3  C   UNL     1      -1.014   4.959  24.946  0.00  0.00    +0.139 A 
ATOM      4  C   UNL     1      -1.141   4.512  25.627  0.00  0.00    +0.037 A 
ATOM      5  C   UNL     1      -0.865   3.735  25.669  0.00  0.00    +0.001 A 
ATOM      6  C   UNL     1      -0.462   3.406  25.029  0.00  0.00    -0.002 A 
ATOM     30  C   UNL     1      -0.335   3.854  24.347  0.00  0.00    +0.001 A 
ATOM     31  C   UNL     1      -0.611   4.630  24.306  0.00  0.00    +0.037 A 
BRANCH   3   2
ATOM      1  C   UNL     1      -2.072   5.907  25.099  0.00  0.00    +0.252 C 
ATOM      2  O   UNL     1      -1.290   5.736  24.904  0.00  0.00    -0.471 OA
ENDBRANCH   3   2
ENDBRANCH   7   6
ENDBRANCH   8   7
TORSDOF 5
ENDMDL
MODEL 3
REMARK VINA RESULT:     -10.4      3.292      6.196
REMARK  Name = 
REMARK  5 active torsions:
REMARK  status: ('A' for Active; 'I' for Inactive)
REMARK    1  A    between atoms: O_2  and  C_3
REMARK    2  A    between atoms: C_6  and  C_7
REMARK    3  A    between atoms: C_7  and  N_8
REMARK    4  A    between atoms: C_18  and  C_20
REMARK    5  A    between atoms: C_23  and  C_26
REMARK                            x       y       z     vdW  Elec       q    Type
REMARK                         _______ _______ _______ _____ _____    ______ ____
ROOT
ATOM      8  N   UNL     1      -3.788   2.827  25.240  0.00  0.00    -0.258 N 
ATOM      9  C   UNL     1      -3.101   2.378  25.330  0.00  0.00    +0.117 C 
ATOM     10  C   UNL     1      -3.285   1.594  25.157  0.00  0.00    +0.116 C 
ATOM     11  C   UNL     1      -2.828   0.907  25.154  0.00  0.00    +0.115 C 
ATOM     12  N   UNL     1      -3.170   0.184  24.953  0.00  0.00    -0.273 N 
ATOM     13  C   UNL     1      -3.970   0.147  24.757  0.00  0.00    +0.115 C 
ATOM     14  C   UNL     1      -4.428   0.833  24.760  0.00  0.00    +0.116 C 
ATOM     15  N   UNL     1      -4.085   1.557  24.961  0.00  0.00    -0.261 N 
ATOM     16  C   UNL     1      -4.396   2.319  25.012  0.00  0.00    +0.308 C 
ATOM     17  O   UNL     1      -5.178   2.535  24.861  0.00  0.00    -0.252 OA
ATOM     18  C   UNL     1      -2.713  -0.503  24.950  0.00  0.00    +0.249 C 
ATOM     19  O   UNL     1      -1.912  -0.466  25.146  0.00  0.00    -0.270 OA
ENDROOT
BRANCH  18  20
ATOM     20  C   UNL     1      -3.055  -1.226  24.749  0.00  0.00    +0.054 A 
ATOM     21  C   UNL     1      -3.157  -1.429  23.956  0.00  0.00    +0.004 A 
ATOM     22  C   UNL     1      -3.499  -2.152  23.756  0.00  0.00    +0.004 A 
ATOM     23  C   UNL     1      -3.740  -2.673  24.349  0.00  0.00    +0.071 A 
ATOM     24  C   UNL     1      -3.638  -2.470  25.142  0.00  0.00    +0.004 A 
ATOM     25  C   UNL     1      -3.295  -1.746  25.343  0.00  0.00    +0.004 A 
BRANCH  23  26
ATOM     26  C   UNL     1      -4.083  -3.397  24.149  0.00  0.00    +0.419 C 
ATOM     27  F   UNL     1      -4.425  -4.120  23.950  0.00  0.00    -0.166 F 
ATOM     28  F   UNL     1      -4.579  -3.013  23.614  0.00  0.00    -0.166 F 
ATOM     29  F   UNL     1      -3.585  -3.779  24.685  0.00  0.00    -0.166 F 
ENDBRANCH  23  26
ENDBRANCH  18  20
BRANCH   8   7
ATOM      7  C   UNL     1      -3.854   3.641  25.358  0.00  0.00    +0.122 C 
BRANCH   7   6
ATOM      3  C   UNL     1      -1.854   5.087  25.177  0.00  0.00    +0.139 A 
ATOM      4  C   UNL     1      -2.304   4.920  24.507  0.00  0.00    +0.037 A 
ATOM      5  C   UNL     1      -2.971   4.438  24.566  0.00  0.00    +0.001 A 
ATOM      6  C   UNL     1      -3.187   4.123  25.297  0.00  0.00    -0.002 A 
ATOM     30  C   UNL     1      -2.737   4.289  25.969  0.00  0.00    +0.001 A 
ATOM     31  C   UNL     1      -2.070   4.771  25.908  0.00  0.00    +0.037 A 
BRANCH   3   2
ATOM      1  C   UNL     1      -0.515   5.297  24.724  0.00  0.00    +0.252 C 
ATOM      2  O   UNL     1      -1.186   5.568  25.118  0.00  0.00    -0.471 OA
ENDBRANCH   3   2
ENDBRANCH   7   6
ENDBRANCH   8   7
TORSDOF 5
ENDMDL
MODEL 4
REMARK VINA RESULT:      -9.8      3.156      4.549
REMARK  Name = 
REMARK  5 active torsions:
REMARK  status: ('A' for Active; 'I' for Inactive)
REMARK    1  A    between atoms: O_2  and  C_3
REMARK    2  A    between atoms: C_6  and  C_7
REMARK    3  A    between atoms: C_7  and  N_8
REMARK    4  A    between atoms: C_18  and  C_20
REMARK    5  A    between atoms: C_23  and  C_26
REMARK                            x       y       z     vdW  Elec       q    Type
REMARK                         _______ _______ _______ _____ _____    ______ ____
ROOT
ATOM      8  N   UNL     1      -0.349  -0.004  23.915  0.00  0.00    -0.258 N 
ATOM      9  C   UNL     1      -0.631   0.571  23.394  0.00  0.00    +0.117 C 
ATOM     10  C   UNL     1      -1.285   0.931  23.742  0.00  0.00    +0.116 C 
ATOM     11  C   UNL     1      -1.786   1.534  23.485  0.00  0.00    +0.115 C 
ATOM     12  N   UNL     1      -2.409   1.785  23.963  0.00  0.00    -0.273 N 
ATOM     13  C   UNL     1      -2.532   1.433  24.699  0.00  0.00    +0.115 C 
ATOM     14  C   UNL     1      -2.032   0.830  24.957  0.00  0.00    +0.116 C 
ATOM     15  N   UNL     1      -1.408   0.579  24.478  0.00  0.00    -0.261 N 
ATOM     16  C   UNL     1      -0.829   0.001  24.585  0.00  0.00    +0.308 C 
ATOM     17  O   UNL     1      -0.746  -0.486  25.246  0.00  0.00    -0.252 OA
ATOM     18  C   UNL     1      -2.910   2.388  23.706  0.00  0.00    +0.249 C 
ATOM     19  O   UNL     1      -2.787   2.740  22.970  0.00  0.00    -0.270 OA
ENDROOT
BRANCH  18  20
ATOM     20  C   UNL     1      -3.533   2.639  24.184  0.00  0.00    +0.054 A 
ATOM     21  C   UNL     1      -4.271   2.275  24.127  0.00  0.00    +0.004 A 
ATOM     22  C   UNL     1      -4.894   2.526  24.605  0.00  0.00    +0.004 A 
ATOM     23  C   UNL     1      -4.780   3.142  25.141  0.00  0.00    +0.071 A 
ATOM     24  C   UNL     1      -4.043   3.508  25.199  0.00  0.00    +0.004 A 
ATOM     25  C   UNL     1      -3.419   3.256  24.720  0.00  0.00    +0.004 A 
BRANCH  23  26
ATOM     26  C   UNL     1      -5.404   3.394  25.620  0.00  0.00    +0.419 C 
ATOM     27  F   UNL     1      -6.026   3.645  26.098  0.00  0.00    -0.166 F 
ATOM     28  F   UNL     1      -5.386   4.133  25.254  0.00  0.00    -0.166 F 
ATOM     29  F   UNL     1      -5.421   2.654  25.985  0.00  0.00    -0.166 F 
ENDBRANCH  23  26
ENDBRANCH  18  20
BRANCH   8   7
ATOM      7  C   UNL     1       0.300  -0.498  23.787  0.00  0.00    +0.122 C 
BRANCH   7   6
ATOM      3  C   UNL     1       2.268   0.341  22.542  0.00  0.00    +0.139 A 
ATOM      4  C   UNL     1       1.760  -0.205  22.191  0.00  0.00    +0.037 A 
ATOM      5  C   UNL     1       1.104  -0.485  22.605  0.00  0.00    +0.001 A 
ATOM      6  C   UNL     1       0.956  -0.218  23.372  0.00  0.00    -0.002 A 
ATOM     30  C   UNL     1       1.465   0.328  23.724  0.00  0.00    +0.001 A 
ATOM     31  C   UNL     1       2.120   0.608  23.309  0.00  0.00    +0.037 A 
BRANCH   3   2
ATOM      1  C   UNL     1       3.655   0.682  22.504  0.00  0.00    +0.252 C 
ATOM      2  O   UNL     1       2.924   0.621  22.128  0.00  0.00    -0.471 OA
ENDBRANCH   3   2
ENDBRANCH   7   6
ENDBRANCH   8   7
TORSDOF 5
ENDMDL
MODEL 5
REMARK VINA RESULT:      -9.6      3.557      4.592
REMARK  Name = 
REMARK  5 active torsions:
REMARK  status: ('A' for Active; 'I' for Inactive)
REMARK    1  A    between atoms: O_2  and  C_3
REMARK    2  A    between atoms: C_6  and  C_7
REMARK    3  A    between atoms: C_7  and  N_8
REMARK    4  A    between atoms: C_18  and  C_20
REMARK    5  A    between atoms: C_23  and  C_26
REMARK                            x       y       z     vdW  Elec       q    Type
REMARK                         _______ _______ _______ _____ _____    ______ ____
ROOT
ATOM      8  N   UNL     1      -3.640   2.668  24.052  0.00  0.00    -0.258 N 
ATOM      9  C   UNL     1      -3.180   2.348  24.659  0.00  0.00    +0.117 C 
ATOM     10  C   UNL     1      -2.497   2.033  24.321  0.00  0.00    +0.116 C 
ATOM     11  C   UNL     1      -1.845   1.649  24.650  0.00  0.00    +0.115 C 
ATOM     12  N   UNL     1      -1.231   1.390  24.164  0.00  0.00    -0.273 N 
ATOM     13  C   UNL     1      -1.268   1.515  23.350  0.00  0.00    +0.115 C 
ATOM     14  C   UNL     1      -1.919   1.899  23.020  0.00  0.00    +0.116 C 
ATOM     15  N   UNL     1      -2.534   2.159  23.506  0.00  0.00    -0.261 N 
ATOM     16  C   UNL     1      -3.240   2.550  23.341  0.00  0.00    +0.308 C 
ATOM     17  O   UNL     1      -3.501   2.784  22.594  0.00  0.00    -0.252 OA
ATOM     18  C   UNL     1      -0.579   1.005  24.493  0.00  0.00    +0.249 C 
ATOM     19  O   UNL     1      -0.542   0.880  25.307  0.00  0.00    -0.270 OA
ENDROOT
BRANCH  18  20
ATOM     20  C   UNL     1       0.035   0.746  24.008  0.00  0.00    +0.054 A 
ATOM     21  C   UNL     1       0.676   1.242  23.852  0.00  0.00    +0.004 A 
ATOM     22  C   UNL     1       1.290   0.983  23.367  0.00  0.00    +0.004 A 
ATOM     23  C   UNL     1       1.264   0.227  23.037  0.00  0.00    +0.071 A 
ATOM     24  C   UNL     1       0.624  -0.270  23.192  0.00  0.00    +0.004 A 
ATOM     25  C   UNL     1       0.010  -0.010  23.678  0.00  0.00    +0.004 A 
BRANCH  23  26
ATOM     26  C   UNL     1       1.879  -0.033  22.551  0.00  0.00    +0.419 C 
ATOM     27  F   UNL     1       2.494  -0.292  22.066  0.00  0.00    -0.166 F 
ATOM     28  F   UNL     1       1.330  -0.272  21.984  0.00  0.00    -0.166 F 
ATOM     29  F   UNL     1       2.428   0.208  23.118  0.00  0.00    -0.166 F 
ENDBRANCH  23  26
ENDBRANCH  18  20
BRANCH   8   7
ATOM      7  C   UNL     1      -4.371   3.039  24.143  0.00  0.00    +0.122 C 
BRANCH   7   6
ATOM      3  C   UNL     1      -5.833   2.450  26.051  0.00  0.00    +0.139 A 
ATOM      4  C   UNL     1      -5.818   1.972  25.380  0.00  0.00    +0.037 A 
ATOM      5  C   UNL     1      -5.331   2.167  24.743  0.00  0.00    +0.001 A 
ATOM      6  C   UNL     1      -4.858   2.843  24.779  0.00  0.00    -0.002 A 
ATOM     30  C   UNL     1      -4.873   3.322  25.451  0.00  0.00    +0.001 A 
ATOM     31  C   UNL     1      -5.360   3.125  26.086  0.00  0.00    +0.037 A 
BRANCH   3   2
ATOM      1  C   UNL     1      -6.559   1.474  26.800  0.00  0.00    +0.252 C 
ATOM      2  O   UNL     1      -6.320   2.255  26.687  0.00  0.00    -0.471 OA
ENDBRANCH   3   2
ENDBRANCH   7   6
ENDBRANCH   8   7
TORSDOF 5
ENDMDL
MODEL 6
REMARK VINA RESULT:      -7.7     14.497     16.531
REMARK  Name = 
REMARK  5 active torsions:
REMARK  status: ('A' for Active; 'I' for Inactive)
REMARK    1  A    between atoms: O_2  and  C_3
REMARK    2  A    between atoms: C_6  and  C_7
REMARK    3  A    between atoms: C_7  and  N_8
REMARK    4  A    between atoms: C_18  and  C_20
REMARK    5  A    between atoms: C_23  and  C_26
REMARK                            x       y       z     vdW  Elec       q    Type
REMARK                         _______ _______ _______ _____ _____    ______ ____
ROOT
ATOM      8  N   UNL     1      -4.102 -10.663  12.355  0.00  0.00    -0.258 N 
ATOM      9  C   UNL     1      -3.755 -10.748  13.099  0.00  0.00    +0.117 C 
ATOM     10  C   UNL     1      -4.328 -10.580  13.667  0.00  0.00    +0.116 C 
ATOM     11  C   UNL     1      -4.303 -10.574  14.492  0.00  0.00    +0.115 C 
ATOM     12  N   UNL     1      -4.977 -10.380  14.924  0.00  0.00    -0.273 N 
ATOM     13  C   UNL     1      -5.678 -10.191  14.532  0.00  0.00    +0.115 C 
ATOM     14  C   UNL     1      -5.705 -10.197  13.708  0.00  0.00    +0.116 C 
ATOM     15  N   UNL     1      -5.029 -10.391  13.275  0.00  0.00    -0.261 N 
ATOM     16  C   UNL     1      -4.889 -10.443  12.464  0.00  0.00    +0.308 C 
ATOM     17  O   UNL     1      -5.440 -10.299  11.867  0.00  0.00    -0.252 OA
ATOM     18  C   UNL     1      -4.952 -10.374  15.749  0.00  0.00    +0.249 C 
ATOM     19  O   UNL     1      -4.252 -10.563  16.141  0.00  0.00    -0.270 OA
ENDROOT
BRANCH  18  20
ATOM     20  C   UNL     1      -5.627 -10.180  16.181  0.00  0.00    +0.054 A 
ATOM     21  C   UNL     1      -5.734  -9.410  16.457  0.00  0.00    +0.004 A 
ATOM     22  C   UNL     1      -6.408  -9.215  16.889  0.00  0.00    +0.004 A 
ATOM     23  C   UNL     1      -6.977  -9.792  17.047  0.00  0.00    +0.071 A 
ATOM     24  C   UNL     1      -6.872 -10.562  16.772  0.00  0.00    +0.004 A 
ATOM     25  C   UNL     1      -6.196 -10.756  16.339  0.00  0.00    +0.004 A 
BRANCH  23  26
ATOM     26  C   UNL     1      -7.653  -9.597  17.480  0.00  0.00    +0.419 C 
ATOM     27  F   UNL     1      -8.327  -9.404  17.912  0.00  0.00    -0.166 F 
ATOM     28  F   UNL     1      -7.983  -9.251  16.808  0.00  0.00    -0.166 F 
ATOM     29  F   UNL     1      -7.321  -9.944  18.151  0.00  0.00    -0.166 F 
ENDBRANCH  23  26
ENDBRANCH  18  20
BRANCH   8   7
ATOM      7  C   UNL     1      -3.727 -10.779  11.629  0.00  0.00    +0.122 C 
BRANCH   7   6
ATOM      3  C   UNL     1      -1.743  -9.426  11.030  0.00  0.00    +0.139 A 
ATOM      4  C   UNL     1      -1.667 -10.061  11.550  0.00  0.00    +0.037 A 
ATOM      5  C   UNL     1      -2.328 -10.512  11.750  0.00  0.00    +0.001 A 
ATOM      6  C   UNL     1      -3.066 -10.328  11.430  0.00  0.00    -0.002 A 
ATOM     30  C   UNL     1      -3.142  -9.692  10.908  0.00  0.00    +0.001 A 
ATOM     31  C   UNL     1      -2.480  -9.242  10.709  0.00  0.00    +0.037 A 
BRANCH   3   2
ATOM      1  C   UNL     1      -0.472  -8.870  11.374  0.00  0.00    +0.252 C 
ATOM      2  O   UNL     1      -1.082  -8.974  10.830  0.00  0.00    -0.471 OA
ENDBRANCH   3   2
ENDBRANCH   7   6
ENDBRANCH   8   7
TORSDOF 5
ENDMDL
MODEL 7
REMARK VINA RESULT:      -7.4     14.942     16.827
REMARK  Name = 
REMARK  5 active torsions:
REMARK  status: ('A' for Active; 'I' for Inactive)
REMARK    1  A    between atoms: O_2  and  C_3
REMARK    2  A    between atoms: C_6  and  C_7
REMARK    3  A    between atoms: C_7  and  N_8
REMARK    4  A    between atoms: C_18  and  C_20
REMARK    5  A    between atoms: C_23  and  C_26
REMARK                            x       y       z     vdW  Elec       q    Type
REMARK                         _______ _______ _______ _____ _____    ______ ____
ROOT
ATOM      8  N   UNL     1      -6.243 -10.496  15.129  0.00  0.00    -0.258 N 
ATOM      9  C   UNL     1      -6.768 -10.227  14.551  0.00  0.00    +0.117 C 
ATOM     10  C   UNL     1      -6.333 -10.058  13.871  0.00  0.00    +0.116 C 
ATOM     11  C   UNL     1      -6.556  -9.776  13.129  0.00  0.00    +0.115 C 
ATOM     12  N   UNL     1      -5.987  -9.658  12.544  0.00  0.00    -0.273 N 
ATOM     13  C   UNL     1      -5.194  -9.823  12.700  0.00  0.00    +0.115 C 
ATOM     14  C   UNL     1      -4.970 -10.106  13.442  0.00  0.00    +0.116 C 
ATOM     15  N   UNL     1      -5.540 -10.223  14.028  0.00  0.00    -0.261 N 
ATOM     16  C   UNL     1      -5.484 -10.494  14.805  0.00  0.00    +0.308 C 
ATOM     17  O   UNL     1      -4.791 -10.722  15.191  0.00  0.00    -0.252 OA
ATOM     18  C   UNL     1      -6.211  -9.376  11.801  0.00  0.00    +0.249 C 
ATOM     19  O   UNL     1      -7.004  -9.211  11.644  0.00  0.00    -0.270 OA
ENDROOT
BRANCH  18  20
ATOM     20  C   UNL     1      -5.642  -9.258  11.216  0.00  0.00    +0.054 A 
ATOM     21  C   UNL     1      -5.296  -8.515  11.118  0.00  0.00    +0.004 A 
ATOM     22  C   UNL     1      -4.728  -8.398  10.533  0.00  0.00    +0.004 A 
ATOM     23  C   UNL     1      -4.504  -9.024  10.045  0.00  0.00    +0.071 A 
ATOM     24  C   UNL     1      -4.848  -9.767  10.141  0.00  0.00    +0.004 A 
ATOM     25  C   UNL     1      -5.418  -9.884  10.727  0.00  0.00    +0.004 A 
BRANCH  23  26
ATOM     26  C   UNL     1      -3.934  -8.907   9.458  0.00  0.00    +0.419 C 
ATOM     27  F   UNL     1      -3.365  -8.789   8.873  0.00  0.00    -0.166 F 
ATOM     28  F   UNL     1      -4.532  -8.806   8.899  0.00  0.00    -0.166 F 
ATOM     29  F   UNL     1      -3.337  -9.007  10.019  0.00  0.00    -0.166 F 
ENDBRANCH  23  26
ENDBRANCH  18  20
BRANCH   8   7
ATOM      7  C   UNL     1      -6.442 -10.727  15.895  0.00  0.00    +0.122 C 
BRANCH   7   6
ATOM      3  C   UNL     1      -8.197  -9.504  17.140  0.00  0.00    +0.139 A 
ATOM      4  C   UNL     1      -8.393 -10.177  16.706  0.00  0.00    +0.037 A 
ATOM      5  C   UNL     1      -7.808 -10.585  16.290  0.00  0.00    +0.001 A 
ATOM      6  C   UNL     1      -7.027 -10.320  16.310  0.00  0.00    -0.002 A 
ATOM     30  C   UNL     1      -6.831  -9.646  16.745  0.00  0.00    +0.001 A 
ATOM     31  C   UNL     1      -7.416  -9.239  17.160  0.00  0.00    +0.037 A 
BRANCH   3   2
ATOM      1  C   UNL     1      -9.243  -8.531  17.172  0.00  0.00    +0.252 C 
ATOM      2  O   UNL     1      -8.782  -9.096  17.556  0.00  0.00    -0.471 OA
ENDBRANCH   3   2
ENDBRANCH   7   6
ENDBRANCH   8   7
TORSDOF 5
ENDMDL
