REMARK  Name = 
REMARK  5 active torsions:
REMARK  status: ('A' for Active; 'I' for Inactive)
REMARK    1  A    between atoms: C_4  and  C_5
REMARK    2  A    between atoms: C_5  and  C_6
REMARK    3  A    between atoms: C_9  and  C_11
REMARK    4  A    between atoms: C_18  and  N_19
REMARK    5  A    between atoms: N_19  and  S_20
REMARK                            x       y       z     vdW  Elec       q    Type
REMARK                         _______ _______ _______ _____ _____    ______ ____
ROOT
ATOM      5  C   UNL     1       4.421  -3.027   0.000  0.00  0.00    +0.049 C 
ENDROOT
BRANCH   5   4
ATOM      1  C   UNL     1       3.596  -1.861   0.000  0.00  0.00    +0.001 C 
ATOM      2  C   UNL     1       3.013  -2.444   0.000  0.00  0.00    +0.017 C 
ATOM      3  C   UNL     1       2.429  -1.861   0.000  0.00  0.00    +0.001 C 
ATOM      4  C   UNL     1       3.596  -3.027   0.000  0.00  0.00    +0.009 C 
ATOM     17  C   UNL     1       3.013  -3.611   0.000  0.00  0.00    +0.020 C 
ATOM     18  C   UNL     1       2.429  -3.027   0.000  0.00  0.00    +0.097 C 
BRANCH  18  19
ATOM     19  N   UNL     1       1.604  -3.027   0.000  0.00  0.00    -0.083 NA
BRANCH  19  20
ATOM     20  S   UNL     1       1.192  -3.742   0.000  0.00  0.00    +0.059 S 
ATOM     21  C   UNL     1       0.779  -4.456   0.000  0.00  0.00    +0.197 C 
ATOM     22  O   UNL     1       0.477  -3.329   0.000  0.00  0.00    -0.156 OA
ATOM     23  O   UNL     1       1.906  -4.154   0.000  0.00  0.00    -0.156 OA
ENDBRANCH  19  20
ENDBRANCH  18  19
ENDBRANCH   5   4
BRANCH   5   6
ATOM      6  C   UNL     1       4.833  -3.742   0.000  0.00  0.00    +0.101 A 
ATOM      7  N   UNL     1       5.654  -3.828   0.000  0.00  0.00    -0.081 NA
ATOM      8  O   UNL     1       5.825  -4.635   0.000  0.00  0.00    -0.354 OA
ATOM      9  C   UNL     1       5.111  -5.047   0.000  0.00  0.00    +0.177 A 
ATOM     10  C   UNL     1       4.498  -4.495   0.000  0.00  0.00    +0.058 A 
BRANCH   9  11
ATOM     11  C   UNL     1       5.025  -5.868   0.000  0.00  0.00    +0.037 A 
ATOM     12  C   UNL     1       5.692  -6.353   0.000  0.00  0.00    +0.003 A 
ATOM     13  C   UNL     1       5.606  -7.173   0.000  0.00  0.00    +0.000 A 
ATOM     14  C   UNL     1       4.852  -7.509   0.000  0.00  0.00    +0.000 A 
ATOM     15  C   UNL     1       4.185  -7.024   0.000  0.00  0.00    +0.000 A 
ATOM     16  C   UNL     1       4.271  -6.204   0.000  0.00  0.00    +0.003 A 
ENDBRANCH   9  11
ENDBRANCH   5   6
TORSDOF 5
