MODEL 1
REMARK VINA RESULT:     -11.8      0.000      0.000
REMARK  Name = 
REMARK  4 active torsions:
REMARK  status: ('A' for Active; 'I' for Inactive)
REMARK    1  A    between atoms: C_2  and  N_4
REMARK    2  A    between atoms: N_7  and  C_8
REMARK    3  A    between atoms: C_19  and  C_22
REMARK    4  A    between atoms: C_24  and  C_28
REMARK                            x       y       z     vdW  Elec       q    Type
REMARK                         _______ _______ _______ _____ _____    ______ ____
ROOT
ATOM      8  C   UNL     1       0.030   0.832  23.961  0.00  0.00    +0.126 C 
ATOM      9  C   UNL     1      -0.295   0.081  24.062  0.00  0.00    +0.045 C 
ATOM     10  C   UNL     1      -1.078   0.172  24.305  0.00  0.00    +0.096 C 
ATOM     11  N   UNL     1      -1.237   0.981  24.355  0.00  0.00    -0.268 N 
ATOM     12  C   UNL     1      -0.551   1.388  24.142  0.00  0.00    +0.174 C 
ATOM     13  C   UNL     1      -0.429   2.203  24.104  0.00  0.00    +0.265 C 
ATOM     14  O   UNL     1       0.326   2.440  23.870  0.00  0.00    -0.271 OA
ATOM     15  N   UNL     1      -0.960   2.811  24.269  0.00  0.00    -0.178 NA
ATOM     16  C   UNL     1      -1.746   2.756  24.514  0.00  0.00    +0.078 A 
ATOM     17  C   UNL     1      -2.194   2.078  24.653  0.00  0.00    +0.069 A 
ATOM     18  C   UNL     1      -2.980   2.145  24.897  0.00  0.00    +0.006 A 
ATOM     19  C   UNL     1      -3.317   2.891  25.002  0.00  0.00    +0.000 A 
ATOM     20  C   UNL     1      -2.868   3.570  24.863  0.00  0.00    +0.001 A 
ATOM     21  C   UNL     1      -2.083   3.502  24.619  0.00  0.00    +0.017 A 
ATOM     32  C   UNL     1      -1.967   1.288  24.582  0.00  0.00    +0.251 C 
ATOM     33  O   UNL     1      -2.549   0.731  24.763  0.00  0.00    -0.270 OA
ENDROOT
BRANCH  19  22
ATOM     22  C   UNL     1      -4.102   2.958  25.246  0.00  0.00    -0.000 A 
ATOM     23  C   UNL     1      -4.659   2.401  25.003  0.00  0.00    +0.004 A 
ATOM     24  C   UNL     1      -5.444   2.468  25.247  0.00  0.00    +0.071 A 
ATOM     25  C   UNL     1      -5.672   3.095  25.735  0.00  0.00    +0.004 A 
ATOM     26  C   UNL     1      -5.114   3.652  25.977  0.00  0.00    -0.000 A 
ATOM     27  C   UNL     1      -4.329   3.584  25.733  0.00  0.00    -0.000 A 
BRANCH  24  28
ATOM     28  C   UNL     1      -6.001   1.911  25.004  0.00  0.00    +0.419 C 
ATOM     29  F   UNL     1      -6.559   1.353  24.760  0.00  0.00    -0.166 F 
ATOM     30  F   UNL     1      -6.006   2.245  24.249  0.00  0.00    -0.166 F 
ATOM     31  F   UNL     1      -5.997   1.578  25.758  0.00  0.00    -0.166 F 
ENDBRANCH  24  28
ENDBRANCH  19  22
BRANCH   8   7
ATOM      4  N   UNL     1       2.002   0.603  23.053  0.00  0.00    -0.189 NA
ATOM      5  C   UNL     1       1.230   0.437  23.293  0.00  0.00    +0.339 C 
ATOM      6  O   UNL     1       0.887  -0.289  23.105  0.00  0.00    -0.249 OA
ATOM      7  N   UNL     1       0.802   0.998  23.721  0.00  0.00    -0.187 NA
BRANCH   4   2
ATOM      1  C   UNL     1       2.221  -0.129  21.846  0.00  0.00    +0.023 C 
ATOM      2  C   UNL     1       2.431   0.042  22.625  0.00  0.00    +0.097 C 
ATOM      3  C   UNL     1       3.068  -0.346  22.977  0.00  0.00    +0.023 C 
ENDBRANCH   4   2
ENDBRANCH   8   7
TORSDOF 4
ENDMDL
MODEL 2
REMARK VINA RESULT:     -11.5      2.956      4.689
REMARK  Name = 
REMARK  4 active torsions:
REMARK  status: ('A' for Active; 'I' for Inactive)
REMARK    1  A    between atoms: C_2  and  N_4
REMARK    2  A    between atoms: N_7  and  C_8
REMARK    3  A    between atoms: C_19  and  C_22
REMARK    4  A    between atoms: C_24  and  C_28
REMARK                            x       y       z     vdW  Elec       q    Type
REMARK                         _______ _______ _______ _____ _____    ______ ____
ROOT
ATOM      8  C   UNL     1      -1.813   2.932  25.281  0.00  0.00    +0.126 C 
ATOM      9  C   UNL     1      -1.063   2.604  25.181  0.00  0.00    +0.045 C 
ATOM     10  C   UNL     1      -1.157   1.806  24.993  0.00  0.00    +0.096 C 
ATOM     11  N   UNL     1      -1.966   1.641  24.977  0.00  0.00    -0.268 N 
ATOM     12  C   UNL     1      -2.371   2.338  25.155  0.00  0.00    +0.174 C 
ATOM     13  C   UNL     1      -3.186   2.460  25.207  0.00  0.00    +0.265 C 
ATOM     14  O   UNL     1      -3.420   3.227  25.397  0.00  0.00    -0.271 OA
ATOM     15  N   UNL     1      -3.795   1.916  25.094  0.00  0.00    -0.178 NA
ATOM     16  C   UNL     1      -3.742   1.116  24.901  0.00  0.00    +0.078 A 
ATOM     17  C   UNL     1      -3.065   0.662  24.774  0.00  0.00    +0.069 A 
ATOM     18  C   UNL     1      -3.135  -0.138  24.584  0.00  0.00    +0.006 A 
ATOM     19  C   UNL     1      -3.881  -0.484  24.523  0.00  0.00    +0.000 A 
ATOM     20  C   UNL     1      -4.559  -0.030  24.651  0.00  0.00    +0.001 A 
ATOM     21  C   UNL     1      -4.489   0.770  24.840  0.00  0.00    +0.017 A 
ATOM     32  C   UNL     1      -2.275   0.896  24.807  0.00  0.00    +0.251 C 
ATOM     33  O   UNL     1      -1.720   0.306  24.650  0.00  0.00    -0.270 OA
ENDROOT
BRANCH  19  22
ATOM     22  C   UNL     1      -3.951  -1.284  24.334  0.00  0.00    -0.000 A 
ATOM     23  C   UNL     1      -3.516  -1.847  24.752  0.00  0.00    +0.004 A 
ATOM     24  C   UNL     1      -3.586  -2.647  24.562  0.00  0.00    +0.071 A 
ATOM     25  C   UNL     1      -4.092  -2.884  23.955  0.00  0.00    +0.004 A 
ATOM     26  C   UNL     1      -4.527  -2.321  23.537  0.00  0.00    -0.000 A 
ATOM     27  C   UNL     1      -4.457  -1.521  23.726  0.00  0.00    -0.000 A 
BRANCH  24  28
ATOM     28  C   UNL     1      -3.151  -3.209  24.980  0.00  0.00    +0.419 C 
ATOM     29  F   UNL     1      -2.715  -3.772  25.398  0.00  0.00    -0.166 F 
ATOM     30  F   UNL     1      -2.616  -3.261  24.353  0.00  0.00    -0.166 F 
ATOM     31  F   UNL     1      -3.685  -3.157  25.606  0.00  0.00    -0.166 F 
ENDBRANCH  24  28
ENDBRANCH  19  22
BRANCH   8   7
ATOM      4  N   UNL     1      -1.716   5.113  25.307  0.00  0.00    -0.189 NA
ATOM      5  C   UNL     1      -1.552   4.327  25.115  0.00  0.00    +0.339 C 
ATOM      6  O   UNL     1      -0.963   4.152  24.564  0.00  0.00    -0.249 OA
ATOM      7  N   UNL     1      -1.977   3.718  25.473  0.00  0.00    -0.187 NA
BRANCH   4   2
ATOM      1  C   UNL     1      -1.689   6.359  24.609  0.00  0.00    +0.023 C 
ATOM      2  C   UNL     1      -1.290   5.722  24.949  0.00  0.00    +0.097 C 
ATOM      3  C   UNL     1      -0.466   5.694  24.929  0.00  0.00    +0.023 C 
ENDBRANCH   4   2
ENDBRANCH   8   7
TORSDOF 4
ENDMDL
MODEL 3
REMARK VINA RESULT:     -11.4      1.159      1.974
REMARK  Name = 
REMARK  4 active torsions:
REMARK  status: ('A' for Active; 'I' for Inactive)
REMARK    1  A    between atoms: C_2  and  N_4
REMARK    2  A    between atoms: N_7  and  C_8
REMARK    3  A    between atoms: C_19  and  C_22
REMARK    4  A    between atoms: C_24  and  C_28
REMARK                            x       y       z     vdW  Elec       q    Type
REMARK                         _______ _______ _______ _____ _____    ______ ____
ROOT
ATOM      8  C   UNL     1      -0.095   0.759  23.875  0.00  0.00    +0.126 C 
ATOM      9  C   UNL     1       0.035   1.573  23.844  0.00  0.00    +0.045 C 
ATOM     10  C   UNL     1      -0.678   1.952  24.017  0.00  0.00    +0.096 C 
ATOM     11  N   UNL     1      -1.248   1.371  24.155  0.00  0.00    -0.268 N 
ATOM     12  C   UNL     1      -0.887   0.634  24.067  0.00  0.00    +0.174 C 
ATOM     13  C   UNL     1      -1.223  -0.115  24.149  0.00  0.00    +0.265 C 
ATOM     14  O   UNL     1      -0.711  -0.751  24.024  0.00  0.00    -0.271 OA
ATOM     15  N   UNL     1      -2.000  -0.313  24.338  0.00  0.00    -0.178 NA
ATOM     16  C   UNL     1      -2.636   0.190  24.492  0.00  0.00    +0.078 A 
ATOM     17  C   UNL     1      -2.650   1.014  24.496  0.00  0.00    +0.069 A 
ATOM     18  C   UNL     1      -3.351   1.415  24.667  0.00  0.00    +0.006 A 
ATOM     19  C   UNL     1      -4.039   0.990  24.834  0.00  0.00    +0.000 A 
ATOM     20  C   UNL     1      -4.025   0.164  24.830  0.00  0.00    +0.001 A 
ATOM     21  C   UNL     1      -3.324  -0.235  24.659  0.00  0.00    +0.017 A 
ATOM     32  C   UNL     1      -2.032   1.540  24.346  0.00  0.00    +0.251 C 
ATOM     33  O   UNL     1      -2.224   2.341  24.393  0.00  0.00    -0.270 OA
ENDROOT
BRANCH  19  22
ATOM     22  C   UNL     1      -4.740   1.389  25.004  0.00  0.00    -0.000 A 
ATOM     23  C   UNL     1      -4.716   2.171  25.267  0.00  0.00    +0.004 A 
ATOM     24  C   UNL     1      -5.417   2.571  25.438  0.00  0.00    +0.071 A 
ATOM     25  C   UNL     1      -6.143   2.188  25.345  0.00  0.00    +0.004 A 
ATOM     26  C   UNL     1      -6.166   1.406  25.082  0.00  0.00    -0.000 A 
ATOM     27  C   UNL     1      -5.464   1.007  24.912  0.00  0.00    -0.000 A 
BRANCH  24  28
ATOM     28  C   UNL     1      -5.393   3.352  25.700  0.00  0.00    +0.419 C 
ATOM     29  F   UNL     1      -5.369   4.134  25.963  0.00  0.00    -0.166 F 
ATOM     30  F   UNL     1      -5.374   3.088  26.482  0.00  0.00    -0.166 F 
ATOM     31  F   UNL     1      -5.412   3.615  24.919  0.00  0.00    -0.166 F 
ENDBRANCH  24  28
ENDBRANCH  19  22
BRANCH   8   7
ATOM      4  N   UNL     1       1.701  -0.245  23.146  0.00  0.00    -0.189 NA
ATOM      5  C   UNL     1       1.137   0.342  23.283  0.00  0.00    +0.339 C 
ATOM      6  O   UNL     1       1.241   1.096  22.966  0.00  0.00    -0.249 OA
ATOM      7  N   UNL     1       0.469   0.173  23.738  0.00  0.00    -0.187 NA
BRANCH   4   2
ATOM      1  C   UNL     1       2.337  -0.146  21.870  0.00  0.00    +0.023 C 
ATOM      2  C   UNL     1       2.369  -0.076  22.691  0.00  0.00    +0.097 C 
ATOM      3  C   UNL     1       3.068   0.162  23.058  0.00  0.00    +0.023 C 
ENDBRANCH   4   2
ENDBRANCH   8   7
TORSDOF 4
ENDMDL
MODEL 4
REMARK VINA RESULT:     -11.1      2.099      2.760
REMARK  Name = 
REMARK  4 active torsions:
REMARK  status: ('A' for Active; 'I' for Inactive)
REMARK    1  A    between atoms: C_2  and  N_4
REMARK    2  A    between atoms: N_7  and  C_8
REMARK    3  A    between atoms: C_19  and  C_22
REMARK    4  A    between atoms: C_24  and  C_28
REMARK                            x       y       z     vdW  Elec       q    Type
REMARK                         _______ _______ _______ _____ _____    ______ ____
ROOT
ATOM      8  C   UNL     1       1.689   0.498  23.142  0.00  0.00    +0.126 C 
ATOM      9  C   UNL     1       1.588  -0.223  22.754  0.00  0.00    +0.045 C 
ATOM     10  C   UNL     1       0.824  -0.492  22.910  0.00  0.00    +0.096 C 
ATOM     11  N   UNL     1       0.453   0.063  23.396  0.00  0.00    -0.268 N 
ATOM     12  C   UNL     1       0.988   0.675  23.538  0.00  0.00    +0.174 C 
ATOM     13  C   UNL     1       0.879   1.357  23.990  0.00  0.00    +0.265 C 
ATOM     14  O   UNL     1       1.526   1.868  24.026  0.00  0.00    -0.271 OA
ATOM     15  N   UNL     1       0.211   1.595  24.410  0.00  0.00    -0.178 NA
ATOM     16  C   UNL     1      -0.515   1.211  24.482  0.00  0.00    +0.078 A 
ATOM     17  C   UNL     1      -0.752   0.493  24.152  0.00  0.00    +0.069 A 
ATOM     18  C   UNL     1      -1.512   0.204  24.295  0.00  0.00    +0.006 A 
ATOM     19  C   UNL     1      -2.034   0.633  24.768  0.00  0.00    +0.000 A 
ATOM     20  C   UNL     1      -1.797   1.352  25.098  0.00  0.00    +0.001 A 
ATOM     21  C   UNL     1      -1.038   1.640  24.955  0.00  0.00    +0.017 A 
ATOM     32  C   UNL     1      -0.321  -0.018  23.669  0.00  0.00    +0.251 C 
ATOM     33  O   UNL     1      -0.717  -0.700  23.426  0.00  0.00    -0.270 OA
ENDROOT
BRANCH  19  22
ATOM     22  C   UNL     1      -2.794   0.344  24.911  0.00  0.00    -0.000 A 
ATOM     23  C   UNL     1      -2.896  -0.418  25.211  0.00  0.00    +0.004 A 
ATOM     24  C   UNL     1      -3.655  -0.707  25.354  0.00  0.00    +0.071 A 
ATOM     25  C   UNL     1      -4.313  -0.233  25.198  0.00  0.00    +0.004 A 
ATOM     26  C   UNL     1      -4.210   0.529  24.898  0.00  0.00    -0.000 A 
ATOM     27  C   UNL     1      -3.450   0.818  24.755  0.00  0.00    -0.000 A 
BRANCH  24  28
ATOM     28  C   UNL     1      -3.757  -1.469  25.653  0.00  0.00    +0.419 C 
ATOM     29  F   UNL     1      -3.859  -2.231  25.953  0.00  0.00    -0.166 F 
ATOM     30  F   UNL     1      -3.577  -1.195  26.411  0.00  0.00    -0.166 F 
ATOM     31  F   UNL     1      -3.937  -1.742  24.896  0.00  0.00    -0.166 F 
ENDBRANCH  24  28
ENDBRANCH  19  22
BRANCH   8   7
ATOM      4  N   UNL     1       3.793   1.070  23.032  0.00  0.00    -0.189 NA
ATOM      5  C   UNL     1       3.110   0.606  23.040  0.00  0.00    +0.339 C 
ATOM      6  O   UNL     1       3.166  -0.212  22.952  0.00  0.00    -0.249 OA
ATOM      7  N   UNL     1       2.372   0.962  23.135  0.00  0.00    -0.187 NA
BRANCH   4   2
ATOM      1  C   UNL     1       4.787   0.490  22.186  0.00  0.00    +0.023 C 
ATOM      2  C   UNL     1       4.532   0.714  22.937  0.00  0.00    +0.097 C 
ATOM      3  C   UNL     1       5.013   0.582  23.593  0.00  0.00    +0.023 C 
ENDBRANCH   4   2
ENDBRANCH   8   7
TORSDOF 4
ENDMDL
MODEL 5
REMARK VINA RESULT:     -10.5      3.171      6.476
REMARK  Name = 
REMARK  4 active torsions:
REMARK  status: ('A' for Active; 'I' for Inactive)
REMARK    1  A    between atoms: C_2  and  N_4
REMARK    2  A    between atoms: N_7  and  C_8
REMARK    3  A    between atoms: C_19  and  C_22
REMARK    4  A    between atoms: C_24  and  C_28
REMARK                            x       y       z     vdW  Elec       q    Type
REMARK                         _______ _______ _______ _____ _____    ______ ____
ROOT
ATOM      8  C   UNL     1      -3.011   1.587  24.479  0.00  0.00    +0.126 C 
ATOM      9  C   UNL     1      -2.984   2.248  23.986  0.00  0.00    +0.045 C 
ATOM     10  C   UNL     1      -2.281   2.216  23.556  0.00  0.00    +0.096 C 
ATOM     11  N   UNL     1      -1.874   1.535  23.783  0.00  0.00    -0.268 N 
ATOM     12  C   UNL     1      -2.326   1.146  24.354  0.00  0.00    +0.174 C 
ATOM     13  C   UNL     1      -2.158   0.443  24.751  0.00  0.00    +0.265 C 
ATOM     14  O   UNL     1      -2.727   0.196  25.296  0.00  0.00    -0.271 OA
ATOM     15  N   UNL     1      -1.498  -0.045  24.676  0.00  0.00    -0.178 NA
ATOM     16  C   UNL     1      -0.841   0.049  24.185  0.00  0.00    +0.078 A 
ATOM     17  C   UNL     1      -0.684   0.655  23.648  0.00  0.00    +0.069 A 
ATOM     18  C   UNL     1       0.013   0.644  23.206  0.00  0.00    +0.006 A 
ATOM     19  C   UNL     1       0.552   0.026  23.302  0.00  0.00    +0.000 A 
ATOM     20  C   UNL     1       0.395  -0.580  23.840  0.00  0.00    +0.001 A 
ATOM     21  C   UNL     1      -0.302  -0.569  24.281  0.00  0.00    +0.017 A 
ATOM     32  C   UNL     1      -1.143   1.316  23.469  0.00  0.00    +0.251 C 
ATOM     33  O   UNL     1      -0.831   1.826  22.901  0.00  0.00    -0.270 OA
ENDROOT
BRANCH  19  22
ATOM     22  C   UNL     1       1.249   0.014  22.861  0.00  0.00    -0.000 A 
ATOM     23  C   UNL     1       1.937   0.354  23.166  0.00  0.00    +0.004 A 
ATOM     24  C   UNL     1       2.633   0.343  22.725  0.00  0.00    +0.071 A 
ATOM     25  C   UNL     1       2.643  -0.009  21.978  0.00  0.00    +0.004 A 
ATOM     26  C   UNL     1       1.955  -0.349  21.674  0.00  0.00    -0.000 A 
ATOM     27  C   UNL     1       1.258  -0.337  22.115  0.00  0.00    -0.000 A 
BRANCH  24  28
ATOM     28  C   UNL     1       3.320   0.682  23.029  0.00  0.00    +0.419 C 
ATOM     29  F   UNL     1       4.008   1.023  23.334  0.00  0.00    -0.166 F 
ATOM     30  F   UNL     1       2.977   1.431  22.968  0.00  0.00    -0.166 F 
ATOM     31  F   UNL     1       3.663  -0.065  23.090  0.00  0.00    -0.166 F 
ENDBRANCH  24  28
ENDBRANCH  19  22
BRANCH   8   7
ATOM      4  N   UNL     1      -4.936   1.632  25.508  0.00  0.00    -0.189 NA
ATOM      5  C   UNL     1      -4.329   1.819  24.982  0.00  0.00    +0.339 C 
ATOM      6  O   UNL     1      -4.432   2.426  24.432  0.00  0.00    -0.249 OA
ATOM      7  N   UNL     1      -3.619   1.400  25.006  0.00  0.00    -0.187 NA
BRANCH   4   2
ATOM      1  C   UNL     1      -6.275   1.772  25.028  0.00  0.00    +0.023 C 
ATOM      2  C   UNL     1      -5.647   2.051  25.484  0.00  0.00    +0.097 C 
ATOM      3  C   UNL     1      -5.728   2.749  25.916  0.00  0.00    +0.023 C 
ENDBRANCH   4   2
ENDBRANCH   8   7
TORSDOF 4
ENDMDL
