MODEL 1
REMARK VINA RESULT:      -9.5      0.000      0.000
REMARK  Name = 
REMARK  6 active torsions:
REMARK  status: ('A' for Active; 'I' for Inactive)
REMARK    1  A    between atoms: C_2  and  C_3
REMARK    2  A    between atoms: C_3  and  N_4
REMARK    3  A    between atoms: N_7  and  C_8
REMARK    4  A    between atoms: C_10  and  C_17
REMARK    5  A    between atoms: N_19  and  C_20
REMARK    6  A    between atoms: C_20  and  C_22
REMARK                            x       y       z     vdW  Elec       q    Type
REMARK                         _______ _______ _______ _____ _____    ______ ____
ROOT
ATOM      8  C   UNL     1      -3.926   2.165  24.613  0.00  0.00    +0.133 C 
ATOM      9  C   UNL     1      -3.585   1.505  24.255  0.00  0.00    +0.064 C 
ATOM     10  C   UNL     1      -3.921   0.758  24.363  0.00  0.00    +0.200 C 
ATOM     11  O   UNL     1      -3.285   0.561  23.876  0.00  0.00    -0.216 OA
ATOM     12  C   UNL     1      -4.597   0.673  24.828  0.00  0.00    +0.075 C 
ATOM     13  C   UNL     1      -4.937   1.334  25.185  0.00  0.00    +0.187 C 
ATOM     14  O   UNL     1      -5.614   1.249  25.651  0.00  0.00    -0.220 OA
ATOM     15  C   UNL     1      -4.602   2.080  25.078  0.00  0.00    +0.202 C 
ATOM     16  O   UNL     1      -4.942   2.741  25.436  0.00  0.00    -0.219 OA
ENDROOT
BRANCH   8   7
ATOM      4  N   UNL     1      -2.541   3.846  24.769  0.00  0.00    -0.187 NA
ATOM      5  C   UNL     1      -2.877   3.100  24.876  0.00  0.00    +0.339 C 
ATOM      6  O   UNL     1      -2.500   2.542  25.354  0.00  0.00    -0.249 OA
ATOM      7  N   UNL     1      -3.590   2.912  24.506  0.00  0.00    -0.186 NA
BRANCH   4   3
ATOM      3  C   UNL     1      -1.829   4.034  25.139  0.00  0.00    +0.117 C 
BRANCH   3   2
ATOM      1  C   UNL     1      -0.853   5.057  24.928  0.00  0.00    +0.002 C 
ATOM      2  C   UNL     1      -1.594   4.823  25.205  0.00  0.00    +0.023 C 
ENDBRANCH   3   2
ENDBRANCH   4   3
ENDBRANCH   8   7
BRANCH  10  17
ATOM     17  C   UNL     1      -4.035  -0.056  24.301  0.00  0.00    +0.269 C 
ATOM     18  O   UNL     1      -4.718  -0.351  23.943  0.00  0.00    -0.271 OA
ATOM     19  N   UNL     1      -3.467  -0.575  24.596  0.00  0.00    -0.196 NA
BRANCH  19  20
ATOM     20  C   UNL     1      -3.581  -1.391  24.535  0.00  0.00    +0.175 C 
ATOM     21  C   UNL     1      -4.123  -1.691  23.991  0.00  0.00    +0.033 C 
BRANCH  20  22
ATOM     22  C   UNL     1      -3.152  -1.905  25.016  0.00  0.00    +0.281 C 
ATOM     23  N   UNL     1      -2.398  -2.151  24.789  0.00  0.00    -0.086 NA
ATOM     24  O   UNL     1      -3.476  -2.173  25.726  0.00  0.00    -0.270 OA
ENDBRANCH  20  22
ENDBRANCH  19  20
ENDBRANCH  10  17
TORSDOF 6
ENDMDL
MODEL 2
REMARK VINA RESULT:      -9.4      1.091      4.473
REMARK  Name = 
REMARK  6 active torsions:
REMARK  status: ('A' for Active; 'I' for Inactive)
REMARK    1  A    between atoms: C_2  and  C_3
REMARK    2  A    between atoms: C_3  and  N_4
REMARK    3  A    between atoms: N_7  and  C_8
REMARK    4  A    between atoms: C_10  and  C_17
REMARK    5  A    between atoms: N_19  and  C_20
REMARK    6  A    between atoms: C_20  and  C_22
REMARK                            x       y       z     vdW  Elec       q    Type
REMARK                         _______ _______ _______ _____ _____    ______ ____
ROOT
ATOM      8  C   UNL     1      -4.472   1.528  24.655  0.00  0.00    +0.133 C 
ATOM      9  C   UNL     1      -3.798   1.905  24.364  0.00  0.00    +0.064 C 
ATOM     10  C   UNL     1      -3.599   2.659  24.634  0.00  0.00    +0.200 C 
ATOM     11  O   UNL     1      -2.981   2.529  24.103  0.00  0.00    -0.216 OA
ATOM     12  C   UNL     1      -4.073   3.035  25.195  0.00  0.00    +0.075 C 
ATOM     13  C   UNL     1      -4.746   2.657  25.485  0.00  0.00    +0.187 C 
ATOM     14  O   UNL     1      -5.221   3.034  26.046  0.00  0.00    -0.220 OA
ATOM     15  C   UNL     1      -4.946   1.904  25.216  0.00  0.00    +0.202 C 
ATOM     16  O   UNL     1      -5.619   1.526  25.507  0.00  0.00    -0.219 OA
ENDROOT
BRANCH   8   7
ATOM      4  N   UNL     1      -4.387  -0.624  24.297  0.00  0.00    -0.187 NA
ATOM      5  C   UNL     1      -4.187   0.130  24.567  0.00  0.00    +0.339 C 
ATOM      6  O   UNL     1      -3.505   0.240  25.018  0.00  0.00    -0.249 OA
ATOM      7  N   UNL     1      -4.671   0.773  24.386  0.00  0.00    -0.186 NA
BRANCH   4   3
ATOM      3  C   UNL     1      -3.903  -1.268  24.479  0.00  0.00    +0.117 C 
BRANCH   3   2
ATOM      1  C   UNL     1      -3.677  -2.677  24.420  0.00  0.00    +0.002 C 
ATOM      2  C   UNL     1      -4.039  -1.999  24.121  0.00  0.00    +0.023 C 
ENDBRANCH   3   2
ENDBRANCH   4   3
ENDBRANCH   8   7
BRANCH  10  17
ATOM     17  C   UNL     1      -3.185   3.367  24.719  0.00  0.00    +0.269 C 
ATOM     18  O   UNL     1      -3.508   4.071  24.434  0.00  0.00    -0.271 OA
ATOM     19  N   UNL     1      -2.448   3.372  25.089  0.00  0.00    -0.196 NA
BRANCH  19  20
ATOM     20  C   UNL     1      -2.033   4.081  25.174  0.00  0.00    +0.175 C 
ATOM     21  C   UNL     1      -2.431   4.801  25.112  0.00  0.00    +0.033 C 
BRANCH  20  22
ATOM     22  C   UNL     1      -1.222   4.069  25.322  0.00  0.00    +0.281 C 
ATOM     23  N   UNL     1      -0.742   4.675  25.036  0.00  0.00    -0.086 NA
ATOM     24  O   UNL     1      -0.891   3.451  25.757  0.00  0.00    -0.270 OA
ENDBRANCH  20  22
ENDBRANCH  19  20
ENDBRANCH  10  17
TORSDOF 6
ENDMDL
MODEL 3
REMARK VINA RESULT:      -9.1      1.857      2.654
REMARK  Name = 
REMARK  6 active torsions:
REMARK  status: ('A' for Active; 'I' for Inactive)
REMARK    1  A    between atoms: C_2  and  C_3
REMARK    2  A    between atoms: C_3  and  N_4
REMARK    3  A    between atoms: N_7  and  C_8
REMARK    4  A    between atoms: C_10  and  C_17
REMARK    5  A    between atoms: N_19  and  C_20
REMARK    6  A    between atoms: C_20  and  C_22
REMARK                            x       y       z     vdW  Elec       q    Type
REMARK                         _______ _______ _______ _____ _____    ______ ____
ROOT
ATOM      8  C   UNL     1      -1.307   1.193  24.337  0.00  0.00    +0.133 C 
ATOM      9  C   UNL     1      -2.041   0.934  24.611  0.00  0.00    +0.064 C 
ATOM     10  C   UNL     1      -2.151   0.140  24.806  0.00  0.00    +0.200 C 
ATOM     11  O   UNL     1      -2.903   0.434  24.972  0.00  0.00    -0.216 OA
ATOM     12  C   UNL     1      -1.528  -0.395  24.727  0.00  0.00    +0.075 C 
ATOM     13  C   UNL     1      -0.794  -0.135  24.454  0.00  0.00    +0.187 C 
ATOM     14  O   UNL     1      -0.170  -0.671  24.375  0.00  0.00    -0.220 OA
ATOM     15  C   UNL     1      -0.683   0.658  24.259  0.00  0.00    +0.202 C 
ATOM     16  O   UNL     1       0.051   0.918  23.985  0.00  0.00    -0.219 OA
ENDROOT
BRANCH   8   7
ATOM      4  N   UNL     1      -1.101   3.357  24.538  0.00  0.00    -0.187 NA
ATOM      5  C   UNL     1      -1.212   2.563  24.733  0.00  0.00    +0.339 C 
ATOM      6  O   UNL     1      -1.338   2.344  25.519  0.00  0.00    -0.249 OA
ATOM      7  N   UNL     1      -1.196   1.988  24.142  0.00  0.00    -0.186 NA
BRANCH   4   3
ATOM      3  C   UNL     1      -1.117   3.932  25.129  0.00  0.00    +0.117 C 
BRANCH   3   2
ATOM      1  C   UNL     1      -1.426   5.327  25.096  0.00  0.00    +0.002 C 
ATOM      2  C   UNL     1      -0.898   4.709  24.955  0.00  0.00    +0.023 C 
ENDBRANCH   3   2
ENDBRANCH   4   3
ENDBRANCH   8   7
BRANCH  10  17
ATOM     17  C   UNL     1      -2.523  -0.552  25.059  0.00  0.00    +0.269 C 
ATOM     18  O   UNL     1      -2.318  -0.890  25.783  0.00  0.00    -0.271 OA
ATOM     19  N   UNL     1      -3.100  -0.905  24.587  0.00  0.00    -0.196 NA
BRANCH  19  20
ATOM     20  C   UNL     1      -3.473  -1.597  24.840  0.00  0.00    +0.175 C 
ATOM     21  C   UNL     1      -3.453  -1.808  25.637  0.00  0.00    +0.033 C 
BRANCH  20  22
ATOM     22  C   UNL     1      -3.864  -2.077  24.295  0.00  0.00    +0.281 C 
ATOM     23  N   UNL     1      -3.674  -2.878  24.240  0.00  0.00    -0.086 NA
ATOM     24  O   UNL     1      -4.446  -1.757  23.806  0.00  0.00    -0.270 OA
ENDBRANCH  20  22
ENDBRANCH  19  20
ENDBRANCH  10  17
TORSDOF 6
ENDMDL
MODEL 4
REMARK VINA RESULT:      -8.3      2.221      5.396
REMARK  Name = 
REMARK  6 active torsions:
REMARK  status: ('A' for Active; 'I' for Inactive)
REMARK    1  A    between atoms: C_2  and  C_3
REMARK    2  A    between atoms: C_3  and  N_4
REMARK    3  A    between atoms: N_7  and  C_8
REMARK    4  A    between atoms: C_10  and  C_17
REMARK    5  A    between atoms: N_19  and  C_20
REMARK    6  A    between atoms: C_20  and  C_22
REMARK                            x       y       z     vdW  Elec       q    Type
REMARK                         _______ _______ _______ _____ _____    ______ ____
ROOT
ATOM      8  C   UNL     1      -0.848   0.022  24.831  0.00  0.00    +0.133 C 
ATOM      9  C   UNL     1      -1.152   0.634  25.294  0.00  0.00    +0.064 C 
ATOM     10  C   UNL     1      -0.878   1.405  25.189  0.00  0.00    +0.200 C 
ATOM     11  O   UNL     1      -1.426   1.529  25.792  0.00  0.00    -0.216 OA
ATOM     12  C   UNL     1      -0.300   1.564  24.622  0.00  0.00    +0.075 C 
ATOM     13  C   UNL     1       0.003   0.952  24.160  0.00  0.00    +0.187 C 
ATOM     14  O   UNL     1       0.582   1.111  23.592  0.00  0.00    -0.220 OA
ATOM     15  C   UNL     1      -0.271   0.181  24.264  0.00  0.00    +0.202 C 
ATOM     16  O   UNL     1       0.033  -0.431  23.801  0.00  0.00    -0.219 OA
ENDROOT
BRANCH   8   7
ATOM      4  N   UNL     1      -2.163  -1.721  24.806  0.00  0.00    -0.187 NA
ATOM      5  C   UNL     1      -1.888  -0.950  24.701  0.00  0.00    +0.339 C 
ATOM      6  O   UNL     1      -2.379  -0.379  24.362  0.00  0.00    -0.249 OA
ATOM      7  N   UNL     1      -1.123  -0.749  24.935  0.00  0.00    -0.186 NA
BRANCH   4   3
ATOM      3  C   UNL     1      -2.928  -1.921  24.571  0.00  0.00    +0.117 C 
BRANCH   3   2
ATOM      1  C   UNL     1      -3.883  -2.950  24.305  0.00  0.00    +0.002 C 
ATOM      2  C   UNL     1      -3.215  -2.683  24.708  0.00  0.00    +0.023 C 
ENDBRANCH   3   2
ENDBRANCH   4   3
ENDBRANCH   8   7
BRANCH  10  17
ATOM     17  C   UNL     1      -0.794   2.219  25.294  0.00  0.00    +0.269 C 
ATOM     18  O   UNL     1      -0.100   2.524  25.620  0.00  0.00    -0.271 OA
ATOM     19  N   UNL     1      -1.405   2.728  25.074  0.00  0.00    -0.196 NA
BRANCH  19  20
ATOM     20  C   UNL     1      -1.322   3.542  25.179  0.00  0.00    +0.175 C 
ATOM     21  C   UNL     1      -0.580   3.863  25.345  0.00  0.00    +0.033 C 
BRANCH  20  22
ATOM     22  C   UNL     1      -1.980   4.036  25.118  0.00  0.00    +0.281 C 
ATOM     23  N   UNL     1      -2.092   4.643  25.664  0.00  0.00    -0.086 NA
ATOM     24  O   UNL     1      -2.527   3.921  24.510  0.00  0.00    -0.270 OA
ENDBRANCH  20  22
ENDBRANCH  19  20
ENDBRANCH  10  17
TORSDOF 6
ENDMDL
MODEL 5
REMARK VINA RESULT:      -8.2      1.715      4.938
REMARK  Name = 
REMARK  6 active torsions:
REMARK  status: ('A' for Active; 'I' for Inactive)
REMARK    1  A    between atoms: C_2  and  C_3
REMARK    2  A    between atoms: C_3  and  N_4
REMARK    3  A    between atoms: N_7  and  C_8
REMARK    4  A    between atoms: C_10  and  C_17
REMARK    5  A    between atoms: N_19  and  C_20
REMARK    6  A    between atoms: C_20  and  C_22
REMARK                            x       y       z     vdW  Elec       q    Type
REMARK                         _______ _______ _______ _____ _____    ______ ____
ROOT
ATOM      8  C   UNL     1      -1.746   0.382  24.672  0.00  0.00    +0.133 C 
ATOM      9  C   UNL     1      -2.255   0.982  24.422  0.00  0.00    +0.064 C 
ATOM     10  C   UNL     1      -2.127   1.759  24.669  0.00  0.00    +0.200 C 
ATOM     11  O   UNL     1      -2.800   1.865  24.203  0.00  0.00    -0.216 OA
ATOM     12  C   UNL     1      -1.492   1.936  25.164  0.00  0.00    +0.075 C 
ATOM     13  C   UNL     1      -0.983   1.336  25.413  0.00  0.00    +0.187 C 
ATOM     14  O   UNL     1      -0.347   1.513  25.909  0.00  0.00    -0.220 OA
ATOM     15  C   UNL     1      -1.110   0.559  25.167  0.00  0.00    +0.202 C 
ATOM     16  O   UNL     1      -0.602  -0.041  25.415  0.00  0.00    -0.219 OA
ENDROOT
BRANCH   8   7
ATOM      4  N   UNL     1      -2.660  -1.588  24.449  0.00  0.00    -0.187 NA
ATOM      5  C   UNL     1      -2.532  -0.810  24.696  0.00  0.00    +0.339 C 
ATOM      6  O   UNL     1      -3.065  -0.449  25.212  0.00  0.00    -0.249 OA
ATOM      7  N   UNL     1      -1.873  -0.395  24.425  0.00  0.00    -0.186 NA
BRANCH   4   3
ATOM      3  C   UNL     1      -3.319  -2.003  24.719  0.00  0.00    +0.117 C 
BRANCH   3   2
ATOM      1  C   UNL     1      -4.097  -2.992  24.042  0.00  0.00    +0.002 C 
ATOM      2  C   UNL     1      -3.435  -2.788  24.490  0.00  0.00    +0.023 C 
ENDBRANCH   3   2
ENDBRANCH   4   3
ENDBRANCH   8   7
BRANCH  10  17
ATOM     17  C   UNL     1      -2.234   2.573  24.754  0.00  0.00    +0.269 C 
ATOM     18  O   UNL     1      -1.713   3.098  24.388  0.00  0.00    -0.271 OA
ATOM     19  N   UNL     1      -2.862   2.861  25.203  0.00  0.00    -0.196 NA
BRANCH  19  20
ATOM     20  C   UNL     1      -2.970   3.676  25.289  0.00  0.00    +0.175 C 
ATOM     21  C   UNL     1      -2.570   4.198  24.791  0.00  0.00    +0.033 C 
BRANCH  20  22
ATOM     22  C   UNL     1      -3.476   3.967  25.871  0.00  0.00    +0.281 C 
ATOM     23  N   UNL     1      -4.291   3.962  25.747  0.00  0.00    -0.086 NA
ATOM     24  O   UNL     1      -3.168   4.262  26.576  0.00  0.00    -0.270 OA
ENDBRANCH  20  22
ENDBRANCH  19  20
ENDBRANCH  10  17
TORSDOF 6
ENDMDL
