MODEL 1
REMARK VINA RESULT:     -10.3      0.000      0.000
REMARK  Name = 
REMARK  6 active torsions:
REMARK  status: ('A' for Active; 'I' for Inactive)
REMARK    1  A    between atoms: C_2  and  C_3
REMARK    2  A    between atoms: C_6  and  C_7
REMARK    3  A    between atoms: C_7  and  N_8
REMARK    4  A    between atoms: C_12  and  C_13
REMARK    5  A    between atoms: C_15  and  C_18
REMARK    6  A    between atoms: C_21  and  N_24
REMARK                            x       y       z     vdW  Elec       q    Type
REMARK                         _______ _______ _______ _____ _____    ______ ____
ROOT
ATOM     13  C   UNL     1      -3.820   2.837  25.005  0.00  0.00    +0.251 A 
ATOM     14  N   UNL     1      -3.618   2.048  25.137  0.00  0.00    -0.190 NA
ATOM     15  C   UNL     1      -4.033   1.585  24.594  0.00  0.00    +0.205 A 
ATOM     16  N   UNL     1      -4.491   2.088  24.126  0.00  0.00    -0.056 NA
ATOM     17  O   UNL     1      -4.360   2.862  24.381  0.00  0.00    -0.336 OA
ENDROOT
BRANCH  15  18
ATOM     18  C   UNL     1      -3.995   0.764  24.529  0.00  0.00    +0.058 A 
ATOM     19  C   UNL     1      -4.389   0.288  25.076  0.00  0.00    +0.008 A 
ATOM     20  C   UNL     1      -4.352  -0.533  25.011  0.00  0.00    +0.034 A 
ATOM     21  C   UNL     1      -3.920  -0.880  24.399  0.00  0.00    +0.132 A 
ATOM     22  N   UNL     1      -3.527  -0.404  23.852  0.00  0.00    -0.229 NA
ATOM     23  C   UNL     1      -3.564   0.417  23.917  0.00  0.00    +0.103 A 
BRANCH  21  24
ATOM     24  N   UNL     1      -3.883  -1.702  24.334  0.00  0.00    -0.288 N 
ATOM     25  C   UNL     1      -3.399  -2.134  24.844  0.00  0.00    +0.124 C 
ATOM     26  C   UNL     1      -3.362  -2.955  24.780  0.00  0.00    +0.164 C 
ATOM     27  O   UNL     1      -3.808  -3.345  24.205  0.00  0.00    -0.350 OA
ATOM     28  C   UNL     1      -4.292  -2.912  23.695  0.00  0.00    +0.164 C 
ATOM     29  C   UNL     1      -4.329  -2.090  23.760  0.00  0.00    +0.124 C 
ENDBRANCH  21  24
ENDBRANCH  15  18
BRANCH  13  12
ATOM      8  N   UNL     1      -2.796   3.843  25.321  0.00  0.00    -0.260 NA
ATOM      9  C   UNL     1      -2.740   4.471  25.853  0.00  0.00    +0.073 C 
ATOM     10  C   UNL     1      -3.442   4.503  26.284  0.00  0.00    +0.019 C 
ATOM     11  C   UNL     1      -3.933   3.896  26.020  0.00  0.00    +0.027 C 
ATOM     12  C   UNL     1      -3.533   3.487  25.424  0.00  0.00    +0.138 C 
BRANCH   8   7
ATOM      7  C   UNL     1      -2.217   3.611  24.782  0.00  0.00    +0.138 C 
BRANCH   7   6
ATOM      3  C   UNL     1      -0.293   3.048  25.516  0.00  0.00    +0.156 A 
ATOM      4  C   UNL     1      -0.151   3.823  25.273  0.00  0.00    +0.038 A 
ATOM      5  C   UNL     1      -0.853   4.129  24.969  0.00  0.00    +0.037 A 
ATOM      6  C   UNL     1      -1.431   3.541  25.024  0.00  0.00    +0.139 A 
ATOM     30  O   UNL     1      -1.084   2.874  25.361  0.00  0.00    -0.458 OA
BRANCH   3   2
ATOM      1  O   UNL     1       0.563   2.694  26.605  0.00  0.00    -0.212 OA
ATOM      2  C   UNL     1       0.259   2.536  25.854  0.00  0.00    +0.246 C 
ENDBRANCH   3   2
ENDBRANCH   7   6
ENDBRANCH   8   7
ENDBRANCH  13  12
TORSDOF 6
ENDMDL
MODEL 2
REMARK VINA RESULT:      -9.6      2.978      4.925
REMARK  Name = 
REMARK  6 active torsions:
REMARK  status: ('A' for Active; 'I' for Inactive)
REMARK    1  A    between atoms: C_2  and  C_3
REMARK    2  A    between atoms: C_6  and  C_7
REMARK    3  A    between atoms: C_7  and  N_8
REMARK    4  A    between atoms: C_12  and  C_13
REMARK    5  A    between atoms: C_15  and  C_18
REMARK    6  A    between atoms: C_21  and  N_24
REMARK                            x       y       z     vdW  Elec       q    Type
REMARK                         _______ _______ _______ _____ _____    ______ ____
ROOT
ATOM     13  C   UNL     1      -2.415   0.078  24.915  0.00  0.00    +0.251 A 
ATOM     14  N   UNL     1      -1.884   0.143  24.287  0.00  0.00    -0.190 NA
ATOM     15  C   UNL     1      -1.121   0.055  24.591  0.00  0.00    +0.205 A 
ATOM     16  N   UNL     1      -1.181  -0.064  25.405  0.00  0.00    -0.056 NA
ATOM     17  O   UNL     1      -1.982  -0.050  25.605  0.00  0.00    -0.336 OA
ENDROOT
BRANCH  15  18
ATOM     18  C   UNL     1      -0.421   0.082  24.156  0.00  0.00    +0.058 A 
ATOM     19  C   UNL     1      -0.101   0.809  23.933  0.00  0.00    +0.008 A 
ATOM     20  C   UNL     1       0.600   0.836  23.498  0.00  0.00    +0.034 A 
ATOM     21  C   UNL     1       0.981   0.135  23.285  0.00  0.00    +0.132 A 
ATOM     22  N   UNL     1       0.660  -0.592  23.508  0.00  0.00    -0.229 NA
ATOM     23  C   UNL     1      -0.040  -0.619  23.943  0.00  0.00    +0.103 A 
BRANCH  21  24
ATOM     24  N   UNL     1       1.681   0.162  22.850  0.00  0.00    -0.288 N 
ATOM     25  C   UNL     1       1.718  -0.193  22.106  0.00  0.00    +0.124 C 
ATOM     26  C   UNL     1       2.419  -0.167  21.671  0.00  0.00    +0.164 C 
ATOM     27  O   UNL     1       3.082   0.216  21.980  0.00  0.00    -0.350 OA
ATOM     28  C   UNL     1       3.044   0.571  22.724  0.00  0.00    +0.164 C 
ATOM     29  C   UNL     1       2.343   0.544  23.159  0.00  0.00    +0.124 C 
ENDBRANCH  21  24
ENDBRANCH  15  18
BRANCH  13  12
ATOM      8  N   UNL     1      -3.676   0.830  24.828  0.00  0.00    -0.260 NA
ATOM      9  C   UNL     1      -4.474   0.626  24.777  0.00  0.00    +0.073 C 
ATOM     10  C   UNL     1      -4.528  -0.197  24.779  0.00  0.00    +0.019 C 
ATOM     11  C   UNL     1      -3.764  -0.503  24.830  0.00  0.00    +0.027 C 
ATOM     12  C   UNL     1      -3.237   0.131  24.861  0.00  0.00    +0.138 C 
BRANCH   8   7
ATOM      7  C   UNL     1      -3.371   1.595  24.844  0.00  0.00    +0.138 C 
BRANCH   7   6
ATOM      3  C   UNL     1      -4.684   3.229  25.247  0.00  0.00    +0.156 A 
ATOM      4  C   UNL     1      -4.648   3.253  24.424  0.00  0.00    +0.038 A 
ATOM      5  C   UNL     1      -4.153   2.644  24.172  0.00  0.00    +0.037 A 
ATOM      6  C   UNL     1      -3.881   2.243  24.841  0.00  0.00    +0.139 A 
ATOM     30  O   UNL     1      -4.210   2.606  25.505  0.00  0.00    -0.458 OA
BRANCH   3   2
ATOM      1  O   UNL     1      -5.943   3.711  25.724  0.00  0.00    -0.212 OA
ATOM      2  C   UNL     1      -5.117   3.740  25.729  0.00  0.00    +0.246 C 
ENDBRANCH   3   2
ENDBRANCH   7   6
ENDBRANCH   8   7
ENDBRANCH  13  12
TORSDOF 6
ENDMDL
MODEL 3
REMARK VINA RESULT:      -9.2      1.383      2.735
REMARK  Name = 
REMARK  6 active torsions:
REMARK  status: ('A' for Active; 'I' for Inactive)
REMARK    1  A    between atoms: C_2  and  C_3
REMARK    2  A    between atoms: C_6  and  C_7
REMARK    3  A    between atoms: C_7  and  N_8
REMARK    4  A    between atoms: C_12  and  C_13
REMARK    5  A    between atoms: C_15  and  C_18
REMARK    6  A    between atoms: C_21  and  N_24
REMARK                            x       y       z     vdW  Elec       q    Type
REMARK                         _______ _______ _______ _____ _____    ______ ____
ROOT
ATOM     13  C   UNL     1      -0.995   2.095  25.217  0.00  0.00    +0.251 A 
ATOM     14  N   UNL     1      -1.565   1.586  24.905  0.00  0.00    -0.190 NA
ATOM     15  C   UNL     1      -1.408   0.827  25.187  0.00  0.00    +0.205 A 
ATOM     16  N   UNL     1      -0.742   0.866  25.673  0.00  0.00    -0.056 NA
ATOM     17  O   UNL     1      -0.487   1.651  25.691  0.00  0.00    -0.336 OA
ENDROOT
BRANCH  15  18
ATOM     18  C   UNL     1      -1.841   0.147  25.014  0.00  0.00    +0.058 A 
ATOM     19  C   UNL     1      -2.590   0.039  25.343  0.00  0.00    +0.008 A 
ATOM     20  C   UNL     1      -3.024  -0.641  25.169  0.00  0.00    +0.034 A 
ATOM     21  C   UNL     1      -2.708  -1.215  24.667  0.00  0.00    +0.132 A 
ATOM     22  N   UNL     1      -1.959  -1.107  24.338  0.00  0.00    -0.229 NA
ATOM     23  C   UNL     1      -1.526  -0.427  24.511  0.00  0.00    +0.103 A 
BRANCH  21  24
ATOM     24  N   UNL     1      -3.141  -1.895  24.493  0.00  0.00    -0.288 N 
ATOM     25  C   UNL     1      -2.903  -2.624  24.797  0.00  0.00    +0.124 C 
ATOM     26  C   UNL     1      -3.336  -3.304  24.624  0.00  0.00    +0.164 C 
ATOM     27  O   UNL     1      -4.008  -3.255  24.147  0.00  0.00    -0.350 OA
ATOM     28  C   UNL     1      -4.246  -2.526  23.844  0.00  0.00    +0.164 C 
ATOM     29  C   UNL     1      -3.812  -1.846  24.017  0.00  0.00    +0.124 C 
ENDBRANCH  21  24
ENDBRANCH  15  18
BRANCH  13  12
ATOM      8  N   UNL     1      -1.388   3.492  25.454  0.00  0.00    -0.260 NA
ATOM      9  C   UNL     1      -1.158   4.223  25.147  0.00  0.00    +0.073 C 
ATOM     10  C   UNL     1      -0.571   4.089  24.583  0.00  0.00    +0.019 C 
ATOM     11  C   UNL     1      -0.438   3.276  24.540  0.00  0.00    +0.027 C 
ATOM     12  C   UNL     1      -0.943   2.907  25.078  0.00  0.00    +0.138 C 
BRANCH   8   7
ATOM      7  C   UNL     1      -1.962   3.369  26.032  0.00  0.00    +0.138 C 
BRANCH   7   6
ATOM      3  C   UNL     1      -3.975   3.956  25.634  0.00  0.00    +0.156 A 
ATOM      4  C   UNL     1      -3.708   4.594  26.082  0.00  0.00    +0.038 A 
ATOM      5  C   UNL     1      -2.923   4.453  26.286  0.00  0.00    +0.037 A 
ATOM      6  C   UNL     1      -2.703   3.725  25.963  0.00  0.00    +0.139 A 
ATOM     30  O   UNL     1      -3.353   3.419  25.561  0.00  0.00    -0.458 OA
BRANCH   3   2
ATOM      1  O   UNL     1      -5.282   3.379  25.686  0.00  0.00    -0.212 OA
ATOM      2  C   UNL     1      -4.731   3.869  25.315  0.00  0.00    +0.246 C 
ENDBRANCH   3   2
ENDBRANCH   7   6
ENDBRANCH   8   7
ENDBRANCH  13  12
TORSDOF 6
ENDMDL
MODEL 4
REMARK VINA RESULT:      -9.0      2.144      6.174
REMARK  Name = 
REMARK  6 active torsions:
REMARK  status: ('A' for Active; 'I' for Inactive)
REMARK    1  A    between atoms: C_2  and  C_3
REMARK    2  A    between atoms: C_6  and  C_7
REMARK    3  A    between atoms: C_7  and  N_8
REMARK    4  A    between atoms: C_12  and  C_13
REMARK    5  A    between atoms: C_15  and  C_18
REMARK    6  A    between atoms: C_21  and  N_24
REMARK                            x       y       z     vdW  Elec       q    Type
REMARK                         _______ _______ _______ _____ _____    ______ ____
ROOT
ATOM     13  C   UNL     1      -0.473  -0.341  24.494  0.00  0.00    +0.251 A 
ATOM     14  N   UNL     1      -0.737   0.354  24.852  0.00  0.00    -0.190 NA
ATOM     15  C   UNL     1      -0.546   0.984  24.354  0.00  0.00    +0.205 A 
ATOM     16  N   UNL     1      -0.166   0.679  23.688  0.00  0.00    -0.056 NA
ATOM     17  O   UNL     1      -0.121  -0.141  23.775  0.00  0.00    -0.336 OA
ENDROOT
BRANCH  15  18
ATOM     18  C   UNL     1      -0.709   1.780  24.497  0.00  0.00    +0.058 A 
ATOM     19  C   UNL     1      -0.363   2.163  25.141  0.00  0.00    +0.008 A 
ATOM     20  C   UNL     1      -0.525   2.959  25.284  0.00  0.00    +0.034 A 
ATOM     21  C   UNL     1      -1.033   3.373  24.782  0.00  0.00    +0.132 A 
ATOM     22  N   UNL     1      -1.378   2.991  24.138  0.00  0.00    -0.229 NA
ATOM     23  C   UNL     1      -1.216   2.194  23.995  0.00  0.00    +0.103 A 
BRANCH  21  24
ATOM     24  N   UNL     1      -1.195   4.169  24.925  0.00  0.00    -0.288 N 
ATOM     25  C   UNL     1      -1.895   4.386  25.305  0.00  0.00    +0.124 C 
ATOM     26  C   UNL     1      -2.057   5.182  25.447  0.00  0.00    +0.164 C 
ATOM     27  O   UNL     1      -1.519   5.762  25.211  0.00  0.00    -0.350 OA
ATOM     28  C   UNL     1      -0.820   5.544  24.832  0.00  0.00    +0.164 C 
ATOM     29  C   UNL     1      -0.658   4.748  24.689  0.00  0.00    +0.124 C 
ENDBRANCH  21  24
ENDBRANCH  15  18
BRANCH  13  12
ATOM      8  N   UNL     1      -1.259  -1.484  24.981  0.00  0.00    -0.260 NA
ATOM      9  C   UNL     1      -1.078  -2.234  25.273  0.00  0.00    +0.073 C 
ATOM     10  C   UNL     1      -0.257  -2.317  25.273  0.00  0.00    +0.019 C 
ATOM     11  C   UNL     1       0.070  -1.618  24.981  0.00  0.00    +0.027 C 
ATOM     12  C   UNL     1      -0.549  -1.104  24.801  0.00  0.00    +0.138 C 
BRANCH   8   7
ATOM      7  C   UNL     1      -2.015  -1.171  24.886  0.00  0.00    +0.138 C 
BRANCH   7   6
ATOM      3  C   UNL     1      -3.632  -2.460  24.355  0.00  0.00    +0.156 A 
ATOM      4  C   UNL     1      -3.713  -2.432  25.176  0.00  0.00    +0.038 A 
ATOM      5  C   UNL     1      -3.118  -1.946  25.475  0.00  0.00    +0.037 A 
ATOM      6  C   UNL     1      -2.668  -1.673  24.838  0.00  0.00    +0.139 A 
ATOM     30  O   UNL     1      -2.986  -1.991  24.147  0.00  0.00    -0.458 OA
BRANCH   3   2
ATOM      1  O   UNL     1      -4.737  -2.504  23.450  0.00  0.00    -0.212 OA
ATOM      2  C   UNL     1      -4.113  -2.882  23.835  0.00  0.00    +0.246 C 
ENDBRANCH   3   2
ENDBRANCH   7   6
ENDBRANCH   8   7
ENDBRANCH  13  12
TORSDOF 6
ENDMDL
MODEL 5
REMARK VINA RESULT:      -9.0      1.662      5.297
REMARK  Name = 
REMARK  6 active torsions:
REMARK  status: ('A' for Active; 'I' for Inactive)
REMARK    1  A    between atoms: C_2  and  C_3
REMARK    2  A    between atoms: C_6  and  C_7
REMARK    3  A    between atoms: C_7  and  N_8
REMARK    4  A    between atoms: C_12  and  C_13
REMARK    5  A    between atoms: C_15  and  C_18
REMARK    6  A    between atoms: C_21  and  N_24
REMARK                            x       y       z     vdW  Elec       q    Type
REMARK                         _______ _______ _______ _____ _____    ______ ____
ROOT
ATOM     13  C   UNL     1      -4.042  -0.005  24.636  0.00  0.00    +0.251 A 
ATOM     14  N   UNL     1      -3.442   0.548  24.511  0.00  0.00    -0.190 NA
ATOM     15  C   UNL     1      -3.658   1.247  24.891  0.00  0.00    +0.205 A 
ATOM     16  N   UNL     1      -4.392   1.127  25.251  0.00  0.00    -0.056 NA
ATOM     17  O   UNL     1      -4.628   0.353  25.093  0.00  0.00    -0.336 OA
ENDROOT
BRANCH  15  18
ATOM     18  C   UNL     1      -3.219   1.945  24.909  0.00  0.00    +0.058 A 
ATOM     19  C   UNL     1      -3.454   2.593  24.457  0.00  0.00    +0.008 A 
ATOM     20  C   UNL     1      -3.015   3.291  24.474  0.00  0.00    +0.034 A 
ATOM     21  C   UNL     1      -2.339   3.341  24.945  0.00  0.00    +0.132 A 
ATOM     22  N   UNL     1      -2.103   2.692  25.398  0.00  0.00    -0.229 NA
ATOM     23  C   UNL     1      -2.543   1.995  25.380  0.00  0.00    +0.103 A 
BRANCH  21  24
ATOM     24  N   UNL     1      -1.899   4.038  24.963  0.00  0.00    -0.288 N 
ATOM     25  C   UNL     1      -2.248   4.739  25.223  0.00  0.00    +0.124 C 
ATOM     26  C   UNL     1      -1.808   5.437  25.241  0.00  0.00    +0.164 C 
ATOM     27  O   UNL     1      -1.019   5.434  24.999  0.00  0.00    -0.350 OA
ATOM     28  C   UNL     1      -0.671   4.733  24.739  0.00  0.00    +0.164 C 
ATOM     29  C   UNL     1      -1.111   4.035  24.721  0.00  0.00    +0.124 C 
ENDBRANCH  21  24
ENDBRANCH  15  18
BRANCH  13  12
ATOM      8  N   UNL     1      -3.576  -1.400  24.617  0.00  0.00    -0.260 NA
ATOM      9  C   UNL     1      -3.771  -2.074  24.183  0.00  0.00    +0.073 C 
ATOM     10  C   UNL     1      -4.367  -1.871  23.651  0.00  0.00    +0.019 C 
ATOM     11  C   UNL     1      -4.542  -1.072  23.755  0.00  0.00    +0.027 C 
ATOM     12  C   UNL     1      -4.053  -0.780  24.352  0.00  0.00    +0.138 C 
BRANCH   8   7
ATOM      7  C   UNL     1      -3.006  -1.353  25.210  0.00  0.00    +0.138 C 
BRANCH   7   6
ATOM      3  C   UNL     1      -0.937  -1.730  24.845  0.00  0.00    +0.156 A 
ATOM      4  C   UNL     1      -1.230  -2.498  24.914  0.00  0.00    +0.038 A 
ATOM      5  C   UNL     1      -2.040  -2.451  25.059  0.00  0.00    +0.037 A 
ATOM      6  C   UNL     1      -2.248  -1.652  25.080  0.00  0.00    +0.139 A 
ATOM     30  O   UNL     1      -1.567  -1.208  24.948  0.00  0.00    -0.458 OA
BRANCH   3   2
ATOM      1  O   UNL     1       0.020  -0.859  24.237  0.00  0.00    -0.212 OA
ATOM      2  C   UNL     1      -0.152  -1.521  24.700  0.00  0.00    +0.246 C 
ENDBRANCH   3   2
ENDBRANCH   7   6
ENDBRANCH   8   7
ENDBRANCH  13  12
TORSDOF 6
ENDMDL
MODEL 6
REMARK VINA RESULT:      -8.8      2.210      5.155
REMARK  Name = 
REMARK  6 active torsions:
REMARK  status: ('A' for Active; 'I' for Inactive)
REMARK    1  A    between atoms: C_2  and  C_3
REMARK    2  A    between atoms: C_6  and  C_7
REMARK    3  A    between atoms: C_7  and  N_8
REMARK    4  A    between atoms: C_12  and  C_13
REMARK    5  A    between atoms: C_15  and  C_18
REMARK    6  A    between atoms: C_21  and  N_24
REMARK                            x       y       z     vdW  Elec       q    Type
REMARK                         _______ _______ _______ _____ _____    ______ ____
ROOT
ATOM     13  C   UNL     1      -0.599   1.214  24.319  0.00  0.00    +0.251 A 
ATOM     14  N   UNL     1      -1.417   1.314  24.344  0.00  0.00    -0.190 NA
ATOM     15  C   UNL     1      -1.575   2.013  24.753  0.00  0.00    +0.205 A 
ATOM     16  N   UNL     1      -0.854   2.345  24.981  0.00  0.00    -0.056 NA
ATOM     17  O   UNL     1      -0.251   1.850  24.713  0.00  0.00    -0.336 OA
ENDROOT
BRANCH  15  18
ATOM     18  C   UNL     1      -2.323   2.326  24.908  0.00  0.00    +0.058 A 
ATOM     19  C   UNL     1      -2.981   2.045  24.497  0.00  0.00    +0.008 A 
ATOM     20  C   UNL     1      -3.728   2.358  24.651  0.00  0.00    +0.034 A 
ATOM     21  C   UNL     1      -3.818   2.952  25.217  0.00  0.00    +0.132 A 
ATOM     22  N   UNL     1      -3.161   3.232  25.628  0.00  0.00    -0.229 NA
ATOM     23  C   UNL     1      -2.413   2.919  25.474  0.00  0.00    +0.103 A 
BRANCH  21  24
ATOM     24  N   UNL     1      -4.566   3.264  25.372  0.00  0.00    -0.288 N 
ATOM     25  C   UNL     1      -5.175   2.770  25.628  0.00  0.00    +0.124 C 
ATOM     26  C   UNL     1      -5.922   3.082  25.782  0.00  0.00    +0.164 C 
ATOM     27  O   UNL     1      -6.061   3.890  25.680  0.00  0.00    -0.350 OA
ATOM     28  C   UNL     1      -5.452   4.383  25.424  0.00  0.00    +0.164 C 
ATOM     29  C   UNL     1      -4.704   4.071  25.270  0.00  0.00    +0.124 C 
ENDBRANCH  21  24
ENDBRANCH  15  18
BRANCH  13  12
ATOM      8  N   UNL     1      -0.202  -0.198  24.219  0.00  0.00    -0.260 NA
ATOM      9  C   UNL     1       0.270  -0.636  23.703  0.00  0.00    +0.073 C 
ATOM     10  C   UNL     1       0.565  -0.123  23.129  0.00  0.00    +0.019 C 
ATOM     11  C   UNL     1       0.275   0.633  23.289  0.00  0.00    +0.027 C 
ATOM     12  C   UNL     1      -0.198   0.586  23.963  0.00  0.00    +0.138 C 
BRANCH   8   7
ATOM      7  C   UNL     1      -0.605  -0.493  24.875  0.00  0.00    +0.138 C 
BRANCH   7   6
ATOM      3  C   UNL     1      -1.870  -2.191  24.600  0.00  0.00    +0.156 A 
ATOM      4  C   UNL     1      -1.212  -2.537  24.957  0.00  0.00    +0.038 A 
ATOM      5  C   UNL     1      -0.659  -1.945  25.104  0.00  0.00    +0.037 A 
ATOM      6  C   UNL     1      -0.974  -1.230  24.836  0.00  0.00    +0.139 A 
ATOM     30  O   UNL     1      -1.722  -1.383  24.525  0.00  0.00    -0.458 OA
BRANCH   3   2
ATOM      1  O   UNL     1      -3.171  -2.703  24.894  0.00  0.00    -0.212 OA
ATOM      2  C   UNL     1      -2.554  -2.583  24.359  0.00  0.00    +0.246 C 
ENDBRANCH   3   2
ENDBRANCH   7   6
ENDBRANCH   8   7
ENDBRANCH  13  12
TORSDOF 6
ENDMDL
MODEL 7
REMARK VINA RESULT:      -8.7      2.882      4.725
REMARK  Name = 
REMARK  6 active torsions:
REMARK  status: ('A' for Active; 'I' for Inactive)
REMARK    1  A    between atoms: C_2  and  C_3
REMARK    2  A    between atoms: C_6  and  C_7
REMARK    3  A    between atoms: C_7  and  N_8
REMARK    4  A    between atoms: C_12  and  C_13
REMARK    5  A    between atoms: C_15  and  C_18
REMARK    6  A    between atoms: C_21  and  N_24
REMARK                            x       y       z     vdW  Elec       q    Type
REMARK                         _______ _______ _______ _____ _____    ______ ____
ROOT
ATOM     13  C   UNL     1      -1.592   2.596  25.392  0.00  0.00    +0.251 A 
ATOM     14  N   UNL     1      -1.095   2.460  24.747  0.00  0.00    -0.190 NA
ATOM     15  C   UNL     1      -0.620   1.810  24.926  0.00  0.00    +0.205 A 
ATOM     16  N   UNL     1      -0.821   1.545  25.682  0.00  0.00    -0.056 NA
ATOM     17  O   UNL     1      -1.422   2.032  25.969  0.00  0.00    -0.336 OA
ENDROOT
BRANCH  15  18
ATOM     18  C   UNL     1      -0.043   1.482  24.436  0.00  0.00    +0.058 A 
ATOM     19  C   UNL     1      -0.178   0.757  24.067  0.00  0.00    +0.008 A 
ATOM     20  C   UNL     1       0.399   0.429  23.577  0.00  0.00    +0.034 A 
ATOM     21  C   UNL     1       1.112   0.826  23.456  0.00  0.00    +0.132 A 
ATOM     22  N   UNL     1       1.247   1.551  23.825  0.00  0.00    -0.229 NA
ATOM     23  C   UNL     1       0.671   1.879  24.315  0.00  0.00    +0.103 A 
BRANCH  21  24
ATOM     24  N   UNL     1       1.689   0.498  22.966  0.00  0.00    -0.288 N 
ATOM     25  C   UNL     1       2.481   0.704  23.067  0.00  0.00    +0.124 C 
ATOM     26  C   UNL     1       3.058   0.376  22.577  0.00  0.00    +0.164 C 
ATOM     27  O   UNL     1       2.842  -0.157  21.985  0.00  0.00    -0.350 OA
ATOM     28  C   UNL     1       2.050  -0.362  21.884  0.00  0.00    +0.164 C 
ATOM     29  C   UNL     1       1.473  -0.034  22.374  0.00  0.00    +0.124 C 
ENDBRANCH  21  24
ENDBRANCH  15  18
BRANCH  13  12
ATOM      8  N   UNL     1      -2.951   3.133  25.228  0.00  0.00    -0.260 NA
ATOM      9  C   UNL     1      -3.314   3.858  25.380  0.00  0.00    +0.073 C 
ATOM     10  C   UNL     1      -2.746   4.367  25.694  0.00  0.00    +0.019 C 
ATOM     11  C   UNL     1      -2.031   3.957  25.737  0.00  0.00    +0.027 C 
ATOM     12  C   UNL     1      -2.158   3.194  25.449  0.00  0.00    +0.138 C 
BRANCH   8   7
ATOM      7  C   UNL     1      -3.316   2.465  24.912  0.00  0.00    +0.138 C 
BRANCH   7   6
ATOM      3  C   UNL     1      -5.359   2.117  25.424  0.00  0.00    +0.156 A 
ATOM      4  C   UNL     1      -5.432   2.378  24.645  0.00  0.00    +0.038 A 
ATOM      5  C   UNL     1      -4.676   2.540  24.358  0.00  0.00    +0.037 A 
ATOM      6  C   UNL     1      -4.135   2.379  24.961  0.00  0.00    +0.139 A 
ATOM     30  O   UNL     1      -4.557   2.118  25.619  0.00  0.00    -0.458 OA
BRANCH   3   2
ATOM      1  O   UNL     1      -6.213   2.393  26.537  0.00  0.00    -0.212 OA
ATOM      2  C   UNL     1      -5.978   1.895  25.922  0.00  0.00    +0.246 C 
ENDBRANCH   3   2
ENDBRANCH   7   6
ENDBRANCH   8   7
ENDBRANCH  13  12
TORSDOF 6
ENDMDL
MODEL 8
REMARK VINA RESULT:      -8.6      2.630      4.698
REMARK  Name = 
REMARK  6 active torsions:
REMARK  status: ('A' for Active; 'I' for Inactive)
REMARK    1  A    between atoms: C_2  and  C_3
REMARK    2  A    between atoms: C_6  and  C_7
REMARK    3  A    between atoms: C_7  and  N_8
REMARK    4  A    between atoms: C_12  and  C_13
REMARK    5  A    between atoms: C_15  and  C_18
REMARK    6  A    between atoms: C_21  and  N_24
REMARK                            x       y       z     vdW  Elec       q    Type
REMARK                         _______ _______ _______ _____ _____    ______ ____
ROOT
ATOM     13  C   UNL     1      -2.024  -0.777  24.625  0.00  0.00    +0.251 A 
ATOM     14  N   UNL     1      -2.298  -0.059  24.926  0.00  0.00    -0.190 NA
ATOM     15  C   UNL     1      -3.074   0.046  24.665  0.00  0.00    +0.205 A 
ATOM     16  N   UNL     1      -3.279  -0.607  24.203  0.00  0.00    -0.056 NA
ATOM     17  O   UNL     1      -2.630  -1.115  24.179  0.00  0.00    -0.336 OA
ENDROOT
BRANCH  15  18
ATOM     18  C   UNL     1      -3.559   0.690  24.836  0.00  0.00    +0.058 A 
ATOM     19  C   UNL     1      -4.359   0.573  25.003  0.00  0.00    +0.008 A 
ATOM     20  C   UNL     1      -4.844   1.217  25.174  0.00  0.00    +0.034 A 
ATOM     21  C   UNL     1      -4.530   1.980  25.179  0.00  0.00    +0.132 A 
ATOM     22  N   UNL     1      -3.731   2.098  25.012  0.00  0.00    -0.229 NA
ATOM     23  C   UNL     1      -3.245   1.454  24.841  0.00  0.00    +0.103 A 
BRANCH  21  24
ATOM     24  N   UNL     1      -5.016   2.625  25.350  0.00  0.00    -0.288 N 
ATOM     25  C   UNL     1      -5.787   2.501  25.616  0.00  0.00    +0.124 C 
ATOM     26  C   UNL     1      -6.273   3.146  25.787  0.00  0.00    +0.164 C 
ATOM     27  O   UNL     1      -5.987   3.914  25.692  0.00  0.00    -0.350 OA
ATOM     28  C   UNL     1      -5.216   4.037  25.426  0.00  0.00    +0.164 C 
ATOM     29  C   UNL     1      -4.730   3.393  25.255  0.00  0.00    +0.124 C 
ENDBRANCH  21  24
ENDBRANCH  15  18
BRANCH  13  12
ATOM      8  N   UNL     1      -0.589  -0.907  24.332  0.00  0.00    -0.260 NA
ATOM      9  C   UNL     1       0.030  -1.359  24.637  0.00  0.00    +0.073 C 
ATOM     10  C   UNL     1      -0.273  -1.831  25.241  0.00  0.00    +0.019 C 
ATOM     11  C   UNL     1      -1.079  -1.671  25.311  0.00  0.00    +0.027 C 
ATOM     12  C   UNL     1      -1.274  -1.100  24.749  0.00  0.00    +0.138 C 
BRANCH   8   7
ATOM      7  C   UNL     1      -0.532  -0.358  23.719  0.00  0.00    +0.138 C 
BRANCH   7   6
ATOM      3  C   UNL     1       1.382   0.060  22.873  0.00  0.00    +0.156 A 
ATOM      4  C   UNL     1       1.300   0.688  23.401  0.00  0.00    +0.038 A 
ATOM      5  C   UNL     1       0.574   0.609  23.782  0.00  0.00    +0.037 A 
ATOM      6  C   UNL     1       0.206  -0.070  23.489  0.00  0.00    +0.139 A 
ATOM     30  O   UNL     1       0.706  -0.408  22.928  0.00  0.00    -0.458 OA
BRANCH   3   2
ATOM      1  O   UNL     1       2.793   0.086  22.641  0.00  0.00    -0.212 OA
ATOM      2  C   UNL     1       2.027  -0.075  22.377  0.00  0.00    +0.246 C 
ENDBRANCH   3   2
ENDBRANCH   7   6
ENDBRANCH   8   7
ENDBRANCH  13  12
TORSDOF 6
ENDMDL
