MODEL 1
REMARK VINA RESULT:     -11.4      0.000      0.000
REMARK  Name = 
REMARK  7 active torsions:
REMARK  status: ('A' for Active; 'I' for Inactive)
REMARK    1  A    between atoms: S_2  and  N_5
REMARK    2  A    between atoms: C_9  and  C_11
REMARK    3  A    between atoms: N_13  and  C_14
REMARK    4  A    between atoms: C_14  and  C_15
REMARK    5  A    between atoms: C_14  and  C_25
REMARK    6  A    between atoms: C_15  and  C_16
REMARK    7  A    between atoms: C_28  and  C_30
REMARK                            x       y       z     vdW  Elec       q    Type
REMARK                         _______ _______ _______ _____ _____    ______ ____
ROOT
ATOM      5  N   UNL     1      -5.203   1.332  25.113  0.00  0.00    -0.155 NA
ATOM      6  C   UNL     1      -5.242   0.543  25.349  0.00  0.00    +0.117 C 
ATOM      7  C   UNL     1      -4.686   0.001  25.069  0.00  0.00    +0.113 C 
ATOM      8  N   UNL     1      -4.091   0.249  24.553  0.00  0.00    -0.270 N 
ATOM      9  C   UNL     1      -4.053   1.039  24.317  0.00  0.00    +0.171 C 
ATOM     10  C   UNL     1      -4.610   1.580  24.597  0.00  0.00    +0.125 C 
ATOM     28  C   UNL     1      -3.536  -0.293  24.274  0.00  0.00    +0.226 C 
ATOM     29  O   UNL     1      -2.941  -0.044  23.758  0.00  0.00    -0.275 OA
ENDROOT
BRANCH  28  30
ATOM     30  C   UNL     1      -3.574  -1.082  24.510  0.00  0.00    +0.077 C 
ATOM     31  C   UNL     1      -3.218  -1.319  25.215  0.00  0.00    +0.009 C 
ATOM     32  C   UNL     1      -3.256  -2.109  25.451  0.00  0.00    +0.000 C 
ATOM     33  C   UNL     1      -3.650  -2.661  24.982  0.00  0.00    +0.000 C 
ATOM     34  C   UNL     1      -4.006  -2.424  24.276  0.00  0.00    +0.000 C 
ATOM     35  C   UNL     1      -3.968  -1.634  24.040  0.00  0.00    +0.009 C 
ENDBRANCH  28  30
BRANCH   5   2
ATOM      1  C   UNL     1      -6.317   2.414  25.672  0.00  0.00    +0.196 C 
ATOM      2  S   UNL     1      -5.760   1.873  25.393  0.00  0.00    +0.046 S 
ATOM      3  O   UNL     1      -6.270   1.667  24.778  0.00  0.00    -0.157 OA
ATOM      4  O   UNL     1      -5.250   2.080  26.008  0.00  0.00    -0.157 OA
ENDBRANCH   5   2
BRANCH   9  11
ATOM     11  C   UNL     1      -3.459   1.287  23.801  0.00  0.00    +0.261 C 
ATOM     12  O   UNL     1      -3.224   0.800  23.178  0.00  0.00    -0.271 OA
ATOM     13  N   UNL     1      -3.100   2.022  23.909  0.00  0.00    -0.196 NA
BRANCH  13  14
ATOM     14  C   UNL     1      -2.506   2.270  23.393  0.00  0.00    +0.179 C 
BRANCH  14  25
ATOM     25  C   UNL     1      -2.702   2.538  22.638  0.00  0.00    +0.281 C 
ATOM     26  N   UNL     1      -2.297   2.253  21.980  0.00  0.00    -0.086 NA
ATOM     27  O   UNL     1      -3.306   3.094  22.543  0.00  0.00    -0.270 OA
ENDBRANCH  14  25
BRANCH  14  15
ATOM     15  C   UNL     1      -1.716   2.249  23.632  0.00  0.00    +0.059 C 
BRANCH  15  16
ATOM     16  C   UNL     1      -1.452   2.754  24.228  0.00  0.00    +0.001 A 
ATOM     17  C   UNL     1      -1.709   3.528  24.357  0.00  0.00    +0.095 A 
ATOM     18  N   UNL     1      -1.300   3.827  25.008  0.00  0.00    -0.244 NA
ATOM     19  C   UNL     1      -0.791   3.239  25.281  0.00  0.00    +0.081 A 
ATOM     20  C   UNL     1      -0.885   2.576  24.799  0.00  0.00    +0.015 A 
ATOM     21  C   UNL     1      -0.441   1.895  24.943  0.00  0.00    +0.001 A 
ATOM     22  C   UNL     1       0.096   1.877  25.568  0.00  0.00    +0.000 A 
ATOM     23  C   UNL     1       0.190   2.540  26.050  0.00  0.00    +0.002 A 
ATOM     24  C   UNL     1      -0.253   3.221  25.907  0.00  0.00    +0.019 A 
ENDBRANCH  15  16
ENDBRANCH  14  15
ENDBRANCH  13  14
ENDBRANCH   9  11
TORSDOF 7
ENDMDL
MODEL 2
REMARK VINA RESULT:     -11.4      1.832      3.663
REMARK  Name = 
REMARK  7 active torsions:
REMARK  status: ('A' for Active; 'I' for Inactive)
REMARK    1  A    between atoms: S_2  and  N_5
REMARK    2  A    between atoms: C_9  and  C_11
REMARK    3  A    between atoms: N_13  and  C_14
REMARK    4  A    between atoms: C_14  and  C_15
REMARK    5  A    between atoms: C_14  and  C_25
REMARK    6  A    between atoms: C_15  and  C_16
REMARK    7  A    between atoms: C_28  and  C_30
REMARK                            x       y       z     vdW  Elec       q    Type
REMARK                         _______ _______ _______ _____ _____    ______ ____
ROOT
ATOM      5  N   UNL     1      -0.779   0.759  24.447  0.00  0.00    -0.155 NA
ATOM      6  C   UNL     1      -0.894  -0.010  24.721  0.00  0.00    +0.117 C 
ATOM      7  C   UNL     1      -1.642  -0.356  24.679  0.00  0.00    +0.113 C 
ATOM      8  N   UNL     1      -2.275   0.068  24.361  0.00  0.00    -0.270 N 
ATOM      9  C   UNL     1      -2.159   0.838  24.086  0.00  0.00    +0.171 C 
ATOM     10  C   UNL     1      -1.411   1.182  24.129  0.00  0.00    +0.125 C 
ATOM     28  C   UNL     1      -3.023  -0.277  24.319  0.00  0.00    +0.226 C 
ATOM     29  O   UNL     1      -3.656   0.147  24.001  0.00  0.00    -0.275 OA
ENDROOT
BRANCH  28  30
ATOM     30  C   UNL     1      -3.139  -1.046  24.594  0.00  0.00    +0.077 C 
ATOM     31  C   UNL     1      -3.069  -1.684  24.076  0.00  0.00    +0.009 C 
ATOM     32  C   UNL     1      -3.185  -2.453  24.351  0.00  0.00    +0.000 C 
ATOM     33  C   UNL     1      -3.370  -2.584  25.144  0.00  0.00    +0.000 C 
ATOM     34  C   UNL     1      -3.439  -1.946  25.662  0.00  0.00    +0.000 C 
ATOM     35  C   UNL     1      -3.324  -1.177  25.387  0.00  0.00    +0.009 C 
ENDBRANCH  28  30
BRANCH   5   2
ATOM      1  C   UNL     1       0.718   1.449  24.533  0.00  0.00    +0.196 C 
ATOM      2  S   UNL     1      -0.030   1.104  24.489  0.00  0.00    +0.046 S 
ATOM      3  O   UNL     1      -0.200   1.378  25.249  0.00  0.00    -0.157 OA
ATOM      4  O   UNL     1       0.140   0.829  23.730  0.00  0.00    -0.157 OA
ENDBRANCH   5   2
BRANCH   9  11
ATOM     11  C   UNL     1      -2.792   1.262  23.769  0.00  0.00    +0.261 C 
ATOM     12  O   UNL     1      -3.204   0.963  23.120  0.00  0.00    -0.271 OA
ATOM     13  N   UNL     1      -3.012   1.984  24.100  0.00  0.00    -0.196 NA
BRANCH  13  14
ATOM     14  C   UNL     1      -3.644   2.408  23.783  0.00  0.00    +0.179 C 
BRANCH  14  25
ATOM     25  C   UNL     1      -3.510   2.961  23.184  0.00  0.00    +0.281 C 
ATOM     26  N   UNL     1      -2.902   3.512  23.260  0.00  0.00    -0.086 NA
ATOM     27  O   UNL     1      -3.987   2.961  22.510  0.00  0.00    -0.270 OA
ENDBRANCH  14  25
BRANCH  14  15
ATOM     15  C   UNL     1      -4.410   2.280  24.063  0.00  0.00    +0.059 C 
BRANCH  15  16
ATOM     16  C   UNL     1      -4.662   2.646  24.757  0.00  0.00    +0.001 A 
ATOM     17  C   UNL     1      -4.329   3.319  25.100  0.00  0.00    +0.095 A 
ATOM     18  N   UNL     1      -4.753   3.492  25.785  0.00  0.00    -0.244 NA
ATOM     19  C   UNL     1      -5.348   2.927  25.867  0.00  0.00    +0.081 A 
ATOM     20  C   UNL     1      -5.292   2.404  25.231  0.00  0.00    +0.015 A 
ATOM     21  C   UNL     1      -5.822   1.775  25.167  0.00  0.00    +0.001 A 
ATOM     22  C   UNL     1      -6.407   1.669  25.738  0.00  0.00    +0.000 A 
ATOM     23  C   UNL     1      -6.463   2.192  26.373  0.00  0.00    +0.002 A 
ATOM     24  C   UNL     1      -5.934   2.821  26.438  0.00  0.00    +0.019 A 
ENDBRANCH  15  16
ENDBRANCH  14  15
ENDBRANCH  13  14
ENDBRANCH   9  11
TORSDOF 7
ENDMDL
MODEL 3
REMARK VINA RESULT:     -11.0      2.501      3.987
REMARK  Name = 
REMARK  7 active torsions:
REMARK  status: ('A' for Active; 'I' for Inactive)
REMARK    1  A    between atoms: S_2  and  N_5
REMARK    2  A    between atoms: C_9  and  C_11
REMARK    3  A    between atoms: N_13  and  C_14
REMARK    4  A    between atoms: C_14  and  C_15
REMARK    5  A    between atoms: C_14  and  C_25
REMARK    6  A    between atoms: C_15  and  C_16
REMARK    7  A    between atoms: C_28  and  C_30
REMARK                            x       y       z     vdW  Elec       q    Type
REMARK                         _______ _______ _______ _____ _____    ______ ____
ROOT
ATOM      5  N   UNL     1       0.102  -0.249  23.601  0.00  0.00    -0.155 NA
ATOM      6  C   UNL     1      -0.443  -0.856  23.476  0.00  0.00    +0.117 C 
ATOM      7  C   UNL     1      -1.118  -0.907  23.947  0.00  0.00    +0.113 C 
ATOM      8  N   UNL     1      -1.248  -0.351  24.543  0.00  0.00    -0.270 N 
ATOM      9  C   UNL     1      -0.703   0.255  24.668  0.00  0.00    +0.171 C 
ATOM     10  C   UNL     1      -0.028   0.306  24.196  0.00  0.00    +0.125 C 
ATOM     28  C   UNL     1      -1.923  -0.403  25.014  0.00  0.00    +0.226 C 
ATOM     29  O   UNL     1      -2.054   0.153  25.611  0.00  0.00    -0.275 OA
ENDROOT
BRANCH  28  30
ATOM     30  C   UNL     1      -2.468  -1.010  24.890  0.00  0.00    +0.077 C 
ATOM     31  C   UNL     1      -2.338  -1.754  25.219  0.00  0.00    +0.009 C 
ATOM     32  C   UNL     1      -2.884  -2.361  25.094  0.00  0.00    +0.000 C 
ATOM     33  C   UNL     1      -3.559  -2.223  24.641  0.00  0.00    +0.000 C 
ATOM     34  C   UNL     1      -3.688  -1.477  24.312  0.00  0.00    +0.000 C 
ATOM     35  C   UNL     1      -3.143  -0.870  24.436  0.00  0.00    +0.009 C 
ENDBRANCH  28  30
BRANCH   5   2
ATOM      1  C   UNL     1       1.452  -0.147  22.657  0.00  0.00    +0.196 C 
ATOM      2  S   UNL     1       0.777  -0.198  23.129  0.00  0.00    +0.046 S 
ATOM      3  O   UNL     1       0.338   0.178  22.540  0.00  0.00    -0.157 OA
ATOM      4  O   UNL     1       1.217  -0.574  23.717  0.00  0.00    -0.157 OA
ENDBRANCH   5   2
BRANCH   9  11
ATOM     11  C   UNL     1      -0.833   0.811  25.264  0.00  0.00    +0.261 C 
ATOM     12  O   UNL     1      -0.985   0.560  26.035  0.00  0.00    -0.271 OA
ATOM     13  N   UNL     1      -0.811   1.617  25.089  0.00  0.00    -0.196 NA
BRANCH  13  14
ATOM     14  C   UNL     1      -0.941   2.172  25.685  0.00  0.00    +0.179 C 
BRANCH  14  25
ATOM     25  C   UNL     1      -0.308   2.443  26.140  0.00  0.00    +0.281 C 
ATOM     26  N   UNL     1       0.392   2.679  25.775  0.00  0.00    -0.086 NA
ATOM     27  O   UNL     1      -0.378   2.477  26.962  0.00  0.00    -0.270 OA
ENDBRANCH  14  25
BRANCH  14  15
ATOM     15  C   UNL     1      -1.703   2.456  25.826  0.00  0.00    +0.059 C 
BRANCH  15  16
ATOM     16  C   UNL     1      -2.010   3.061  25.358  0.00  0.00    +0.001 A 
ATOM     17  C   UNL     1      -1.572   3.607  24.921  0.00  0.00    +0.095 A 
ATOM     18  N   UNL     1      -2.102   4.110  24.538  0.00  0.00    -0.244 NA
ATOM     19  C   UNL     1      -2.866   3.876  24.738  0.00  0.00    +0.081 A 
ATOM     20  C   UNL     1      -2.810   3.227  25.245  0.00  0.00    +0.015 A 
ATOM     21  C   UNL     1      -3.495   2.872  25.538  0.00  0.00    +0.001 A 
ATOM     22  C   UNL     1      -4.235   3.165  25.324  0.00  0.00    +0.000 A 
ATOM     23  C   UNL     1      -4.292   3.814  24.817  0.00  0.00    +0.002 A 
ATOM     24  C   UNL     1      -3.608   4.170  24.524  0.00  0.00    +0.019 A 
ENDBRANCH  15  16
ENDBRANCH  14  15
ENDBRANCH  13  14
ENDBRANCH   9  11
TORSDOF 7
ENDMDL
MODEL 4
REMARK VINA RESULT:     -10.7      1.826      5.147
REMARK  Name = 
REMARK  7 active torsions:
REMARK  status: ('A' for Active; 'I' for Inactive)
REMARK    1  A    between atoms: S_2  and  N_5
REMARK    2  A    between atoms: C_9  and  C_11
REMARK    3  A    between atoms: N_13  and  C_14
REMARK    4  A    between atoms: C_14  and  C_15
REMARK    5  A    between atoms: C_14  and  C_25
REMARK    6  A    between atoms: C_15  and  C_16
REMARK    7  A    between atoms: C_28  and  C_30
REMARK                            x       y       z     vdW  Elec       q    Type
REMARK                         _______ _______ _______ _____ _____    ______ ____
ROOT
ATOM      5  N   UNL     1      -0.515   1.089  23.976  0.00  0.00    -0.155 NA
ATOM      6  C   UNL     1      -0.258   1.872  24.022  0.00  0.00    +0.117 C 
ATOM      7  C   UNL     1      -0.745   2.447  24.358  0.00  0.00    +0.113 C 
ATOM      8  N   UNL     1      -1.489   2.240  24.648  0.00  0.00    -0.270 N 
ATOM      9  C   UNL     1      -1.746   1.457  24.602  0.00  0.00    +0.171 C 
ATOM     10  C   UNL     1      -1.259   0.882  24.266  0.00  0.00    +0.125 C 
ATOM     28  C   UNL     1      -1.976   2.815  24.984  0.00  0.00    +0.226 C 
ATOM     29  O   UNL     1      -2.720   2.607  25.274  0.00  0.00    -0.275 OA
ENDROOT
BRANCH  28  30
ATOM     30  C   UNL     1      -1.719   3.598  25.029  0.00  0.00    +0.077 C 
ATOM     31  C   UNL     1      -1.078   3.794  25.509  0.00  0.00    +0.009 C 
ATOM     32  C   UNL     1      -0.821   4.576  25.555  0.00  0.00    +0.000 C 
ATOM     33  C   UNL     1      -1.205   5.163  25.120  0.00  0.00    +0.000 C 
ATOM     34  C   UNL     1      -1.847   4.966  24.640  0.00  0.00    +0.000 C 
ATOM     35  C   UNL     1      -2.104   4.184  24.594  0.00  0.00    +0.009 C 
ENDBRANCH  28  30
BRANCH   5   2
ATOM      1  C   UNL     1       0.459  -0.060  23.304  0.00  0.00    +0.196 C 
ATOM      2  S   UNL     1      -0.028   0.515  23.640  0.00  0.00    +0.046 S 
ATOM      3  O   UNL     1      -0.207   0.802  22.888  0.00  0.00    -0.157 OA
ATOM      4  O   UNL     1       0.152   0.226  24.392  0.00  0.00    -0.157 OA
ENDBRANCH   5   2
BRANCH   9  11
ATOM     11  C   UNL     1      -2.490   1.249  24.893  0.00  0.00    +0.261 C 
ATOM     12  O   UNL     1      -2.686   1.412  25.677  0.00  0.00    -0.271 OA
ATOM     13  N   UNL     1      -3.037   0.879  24.398  0.00  0.00    -0.196 NA
BRANCH  13  14
ATOM     14  C   UNL     1      -3.780   0.672  24.689  0.00  0.00    +0.179 C 
BRANCH  14  25
ATOM     25  C   UNL     1      -4.415   1.194  24.607  0.00  0.00    +0.281 C 
ATOM     26  N   UNL     1      -4.927   1.324  25.239  0.00  0.00    -0.086 NA
ATOM     27  O   UNL     1      -4.535   1.586  23.890  0.00  0.00    -0.270 OA
ENDBRANCH  14  25
BRANCH  14  15
ATOM     15  C   UNL     1      -3.890  -0.056  25.061  0.00  0.00    +0.059 C 
BRANCH  15  16
ATOM     16  C   UNL     1      -3.972  -0.742  24.610  0.00  0.00    +0.001 A 
ATOM     17  C   UNL     1      -4.294  -0.788  23.851  0.00  0.00    +0.095 A 
ATOM     18  N   UNL     1      -4.268  -1.576  23.611  0.00  0.00    -0.244 NA
ATOM     19  C   UNL     1      -3.930  -2.017  24.221  0.00  0.00    +0.081 A 
ATOM     20  C   UNL     1      -3.748  -1.502  24.838  0.00  0.00    +0.015 A 
ATOM     21  C   UNL     1      -3.401  -1.791  25.528  0.00  0.00    +0.001 A 
ATOM     22  C   UNL     1      -3.236  -2.596  25.601  0.00  0.00    +0.000 A 
ATOM     23  C   UNL     1      -3.419  -3.112  24.984  0.00  0.00    +0.002 A 
ATOM     24  C   UNL     1      -3.766  -2.823  24.294  0.00  0.00    +0.019 A 
ENDBRANCH  15  16
ENDBRANCH  14  15
ENDBRANCH  13  14
ENDBRANCH   9  11
TORSDOF 7
ENDMDL
MODEL 5
REMARK VINA RESULT:     -10.4      1.478      4.537
REMARK  Name = 
REMARK  7 active torsions:
REMARK  status: ('A' for Active; 'I' for Inactive)
REMARK    1  A    between atoms: S_2  and  N_5
REMARK    2  A    between atoms: C_9  and  C_11
REMARK    3  A    between atoms: N_13  and  C_14
REMARK    4  A    between atoms: C_14  and  C_15
REMARK    5  A    between atoms: C_14  and  C_25
REMARK    6  A    between atoms: C_15  and  C_16
REMARK    7  A    between atoms: C_28  and  C_30
REMARK                            x       y       z     vdW  Elec       q    Type
REMARK                         _______ _______ _______ _____ _____    ______ ____
ROOT
ATOM      5  N   UNL     1      -4.603   2.568  25.242  0.00  0.00    -0.155 NA
ATOM      6  C   UNL     1      -4.316   3.338  25.313  0.00  0.00    +0.117 C 
ATOM      7  C   UNL     1      -3.521   3.497  25.163  0.00  0.00    +0.113 C 
ATOM      8  N   UNL     1      -3.012   2.886  24.942  0.00  0.00    -0.270 N 
ATOM      9  C   UNL     1      -3.300   2.116  24.871  0.00  0.00    +0.171 C 
ATOM     10  C   UNL     1      -4.095   1.957  25.021  0.00  0.00    +0.125 C 
ATOM     28  C   UNL     1      -2.217   3.045  24.791  0.00  0.00    +0.226 C 
ATOM     29  O   UNL     1      -1.709   2.434  24.570  0.00  0.00    -0.275 OA
ENDROOT
BRANCH  28  30
ATOM     30  C   UNL     1      -1.930   3.815  24.862  0.00  0.00    +0.077 C 
ATOM     31  C   UNL     1      -1.945   4.322  24.212  0.00  0.00    +0.009 C 
ATOM     32  C   UNL     1      -1.658   5.092  24.283  0.00  0.00    +0.000 C 
ATOM     33  C   UNL     1      -1.355   5.355  25.004  0.00  0.00    +0.000 C 
ATOM     34  C   UNL     1      -1.340   4.848  25.655  0.00  0.00    +0.000 C 
ATOM     35  C   UNL     1      -1.627   4.078  25.584  0.00  0.00    +0.009 C 
ENDBRANCH  28  30
BRANCH   5   2
ATOM      1  C   UNL     1      -6.194   2.251  25.542  0.00  0.00    +0.196 C 
ATOM      2  S   UNL     1      -5.399   2.409  25.393  0.00  0.00    +0.046 S 
ATOM      3  O   UNL     1      -5.498   2.164  24.611  0.00  0.00    -0.157 OA
ATOM      4  O   UNL     1      -5.301   2.655  26.174  0.00  0.00    -0.157 OA
ENDBRANCH   5   2
BRANCH   9  11
ATOM     11  C   UNL     1      -2.791   1.505  24.649  0.00  0.00    +0.261 C 
ATOM     12  O   UNL     1      -2.434   1.515  23.906  0.00  0.00    -0.271 OA
ATOM     13  N   UNL     1      -2.642   0.883  25.171  0.00  0.00    -0.196 NA
BRANCH  13  14
ATOM     14  C   UNL     1      -2.134   0.273  24.949  0.00  0.00    +0.179 C 
BRANCH  14  25
ATOM     25  C   UNL     1      -1.347   0.281  25.198  0.00  0.00    +0.281 C 
ATOM     26  N   UNL     1      -0.740   0.172  24.651  0.00  0.00    -0.086 NA
ATOM     27  O   UNL     1      -1.168   0.399  25.995  0.00  0.00    -0.270 OA
ENDBRANCH  14  25
BRANCH  14  15
ATOM     15  C   UNL     1      -2.412  -0.346  24.480  0.00  0.00    +0.059 C 
BRANCH  15  16
ATOM     16  C   UNL     1      -2.748  -1.012  24.831  0.00  0.00    +0.001 A 
ATOM     17  C   UNL     1      -2.648  -1.249  25.616  0.00  0.00    +0.095 A 
ATOM     18  N   UNL     1      -3.081  -1.942  25.730  0.00  0.00    -0.244 NA
ATOM     19  C   UNL     1      -3.449  -2.133  25.017  0.00  0.00    +0.081 A 
ATOM     20  C   UNL     1      -3.243  -1.558  24.462  0.00  0.00    +0.015 A 
ATOM     21  C   UNL     1      -3.533  -1.607  23.691  0.00  0.00    +0.001 A 
ATOM     22  C   UNL     1      -4.029  -2.230  23.475  0.00  0.00    +0.000 A 
ATOM     23  C   UNL     1      -4.235  -2.804  24.030  0.00  0.00    +0.002 A 
ATOM     24  C   UNL     1      -3.945  -2.756  24.801  0.00  0.00    +0.019 A 
ENDBRANCH  15  16
ENDBRANCH  14  15
ENDBRANCH  13  14
ENDBRANCH   9  11
TORSDOF 7
ENDMDL
MODEL 6
REMARK VINA RESULT:     -10.3      2.324      4.809
REMARK  Name = 
REMARK  7 active torsions:
REMARK  status: ('A' for Active; 'I' for Inactive)
REMARK    1  A    between atoms: S_2  and  N_5
REMARK    2  A    between atoms: C_9  and  C_11
REMARK    3  A    between atoms: N_13  and  C_14
REMARK    4  A    between atoms: C_14  and  C_15
REMARK    5  A    between atoms: C_14  and  C_25
REMARK    6  A    between atoms: C_15  and  C_16
REMARK    7  A    between atoms: C_28  and  C_30
REMARK                            x       y       z     vdW  Elec       q    Type
REMARK                         _______ _______ _______ _____ _____    ______ ____
ROOT
ATOM      5  N   UNL     1      -0.567   2.432  25.974  0.00  0.00    -0.155 NA
ATOM      6  C   UNL     1      -1.238   2.911  26.000  0.00  0.00    +0.117 C 
ATOM      7  C   UNL     1      -1.870   2.763  25.490  0.00  0.00    +0.113 C 
ATOM      8  N   UNL     1      -1.830   2.136  24.955  0.00  0.00    -0.270 N 
ATOM      9  C   UNL     1      -1.159   1.658  24.929  0.00  0.00    +0.171 C 
ATOM     10  C   UNL     1      -0.527   1.806  25.439  0.00  0.00    +0.125 C 
ATOM     28  C   UNL     1      -2.462   1.989  24.446  0.00  0.00    +0.226 C 
ATOM     29  O   UNL     1      -2.422   1.362  23.910  0.00  0.00    -0.275 OA
ENDROOT
BRANCH  28  30
ATOM     30  C   UNL     1      -3.134   2.467  24.471  0.00  0.00    +0.077 C 
ATOM     31  C   UNL     1      -3.159   3.166  24.034  0.00  0.00    +0.009 C 
ATOM     32  C   UNL     1      -3.830   3.644  24.060  0.00  0.00    +0.000 C 
ATOM     33  C   UNL     1      -4.477   3.424  24.523  0.00  0.00    +0.000 C 
ATOM     34  C   UNL     1      -4.451   2.725  24.960  0.00  0.00    +0.000 C 
ATOM     35  C   UNL     1      -3.780   2.246  24.934  0.00  0.00    +0.009 C 
ENDBRANCH  28  30
BRANCH   5   2
ATOM      1  C   UNL     1       0.696   2.729  26.994  0.00  0.00    +0.196 C 
ATOM      2  S   UNL     1       0.065   2.581  26.484  0.00  0.00    +0.046 S 
ATOM      3  O   UNL     1      -0.395   2.337  27.124  0.00  0.00    -0.157 OA
ATOM      4  O   UNL     1       0.525   2.824  25.844  0.00  0.00    -0.157 OA
ENDBRANCH   5   2
BRANCH   9  11
ATOM     11  C   UNL     1      -1.119   1.031  24.394  0.00  0.00    +0.261 C 
ATOM     12  O   UNL     1      -1.220   1.171  23.587  0.00  0.00    -0.271 OA
ATOM     13  N   UNL     1      -0.978   0.265  24.665  0.00  0.00    -0.196 NA
BRANCH  13  14
ATOM     14  C   UNL     1      -0.938  -0.361  24.130  0.00  0.00    +0.179 C 
BRANCH  14  25
ATOM     25  C   UNL     1      -0.211  -0.579  23.804  0.00  0.00    +0.281 C 
ATOM     26  N   UNL     1      -0.117  -0.607  22.986  0.00  0.00    -0.086 NA
ATOM     27  O   UNL     1       0.422  -0.768  24.300  0.00  0.00    -0.270 OA
ENDBRANCH  14  25
BRANCH  14  15
ATOM     15  C   UNL     1      -1.623  -0.769  23.920  0.00  0.00    +0.059 C 
BRANCH  15  16
ATOM     16  C   UNL     1      -1.879  -1.407  24.375  0.00  0.00    +0.001 A 
ATOM     17  C   UNL     1      -1.429  -1.817  24.933  0.00  0.00    +0.095 A 
ATOM     18  N   UNL     1      -1.902  -2.411  25.255  0.00  0.00    -0.244 NA
ATOM     19  C   UNL     1      -2.644  -2.369  24.897  0.00  0.00    +0.081 A 
ATOM     20  C   UNL     1      -2.630  -1.748  24.353  0.00  0.00    +0.015 A 
ATOM     21  C   UNL     1      -3.303  -1.575  23.909  0.00  0.00    +0.001 A 
ATOM     22  C   UNL     1      -3.989  -2.021  24.008  0.00  0.00    +0.000 A 
ATOM     23  C   UNL     1      -4.003  -2.641  24.551  0.00  0.00    +0.002 A 
ATOM     24  C   UNL     1      -3.331  -2.815  24.996  0.00  0.00    +0.019 A 
ENDBRANCH  15  16
ENDBRANCH  14  15
ENDBRANCH  13  14
ENDBRANCH   9  11
TORSDOF 7
ENDMDL
MODEL 7
REMARK VINA RESULT:     -10.1      1.434      2.980
REMARK  Name = 
REMARK  7 active torsions:
REMARK  status: ('A' for Active; 'I' for Inactive)
REMARK    1  A    between atoms: S_2  and  N_5
REMARK    2  A    between atoms: C_9  and  C_11
REMARK    3  A    between atoms: N_13  and  C_14
REMARK    4  A    between atoms: C_14  and  C_15
REMARK    5  A    between atoms: C_14  and  C_25
REMARK    6  A    between atoms: C_15  and  C_16
REMARK    7  A    between atoms: C_28  and  C_30
REMARK                            x       y       z     vdW  Elec       q    Type
REMARK                         _______ _______ _______ _____ _____    ______ ____
ROOT
ATOM      5  N   UNL     1      -3.617  -0.925  25.095  0.00  0.00    -0.155 NA
ATOM      6  C   UNL     1      -4.318  -0.607  25.390  0.00  0.00    +0.117 C 
ATOM      7  C   UNL     1      -4.511   0.181  25.238  0.00  0.00    +0.113 C 
ATOM      8  N   UNL     1      -4.002   0.650  24.789  0.00  0.00    -0.270 N 
ATOM      9  C   UNL     1      -3.300   0.332  24.493  0.00  0.00    +0.171 C 
ATOM     10  C   UNL     1      -3.108  -0.456  24.646  0.00  0.00    +0.125 C 
ATOM     28  C   UNL     1      -4.194   1.438  24.636  0.00  0.00    +0.226 C 
ATOM     29  O   UNL     1      -3.685   1.907  24.187  0.00  0.00    -0.275 OA
ENDROOT
BRANCH  28  30
ATOM     30  C   UNL     1      -4.896   1.756  24.932  0.00  0.00    +0.077 C 
ATOM     31  C   UNL     1      -5.617   1.559  24.583  0.00  0.00    +0.009 C 
ATOM     32  C   UNL     1      -6.318   1.877  24.879  0.00  0.00    +0.000 C 
ATOM     33  C   UNL     1      -6.298   2.392  25.523  0.00  0.00    +0.000 C 
ATOM     34  C   UNL     1      -5.577   2.589  25.871  0.00  0.00    +0.000 C 
ATOM     35  C   UNL     1      -4.875   2.271  25.576  0.00  0.00    +0.009 C 
ENDBRANCH  28  30
BRANCH   5   2
ATOM      1  C   UNL     1      -3.233  -2.500  25.401  0.00  0.00    +0.196 C 
ATOM      2  S   UNL     1      -3.424  -1.712  25.248  0.00  0.00    +0.046 S 
ATOM      3  O   UNL     1      -3.698  -1.925  24.499  0.00  0.00    -0.157 OA
ATOM      4  O   UNL     1      -3.151  -1.501  25.997  0.00  0.00    -0.157 OA
ENDBRANCH   5   2
BRANCH   9  11
ATOM     11  C   UNL     1      -2.791   0.802  24.044  0.00  0.00    +0.261 C 
ATOM     12  O   UNL     1      -3.035   1.088  23.310  0.00  0.00    -0.271 OA
ATOM     13  N   UNL     1      -2.039   0.984  24.330  0.00  0.00    -0.196 NA
BRANCH  13  14
ATOM     14  C   UNL     1      -1.531   1.453  23.881  0.00  0.00    +0.179 C 
BRANCH  14  25
ATOM     25  C   UNL     1      -0.973   1.099  23.386  0.00  0.00    +0.281 C 
ATOM     26  N   UNL     1      -0.473   0.513  23.680  0.00  0.00    -0.086 NA
ATOM     27  O   UNL     1      -0.916   1.333  22.596  0.00  0.00    -0.270 OA
ENDBRANCH  14  25
BRANCH  14  15
ATOM     15  C   UNL     1      -1.579   2.276  23.926  0.00  0.00    +0.059 C 
BRANCH  15  16
ATOM     16  C   UNL     1      -1.151   2.683  24.501  0.00  0.00    +0.001 A 
ATOM     17  C   UNL     1      -0.574   2.362  24.995  0.00  0.00    +0.095 A 
ATOM     18  N   UNL     1      -0.291   2.964  25.482  0.00  0.00    -0.244 NA
ATOM     19  C   UNL     1      -0.693   3.657  25.290  0.00  0.00    +0.081 A 
ATOM     20  C   UNL     1      -1.225   3.484  24.683  0.00  0.00    +0.015 A 
ATOM     21  C   UNL     1      -1.707   4.079  24.376  0.00  0.00    +0.001 A 
ATOM     22  C   UNL     1      -1.658   4.846  24.674  0.00  0.00    +0.000 A 
ATOM     23  C   UNL     1      -1.127   5.019  25.280  0.00  0.00    +0.002 A 
ATOM     24  C   UNL     1      -0.644   4.426  25.589  0.00  0.00    +0.019 A 
ENDBRANCH  15  16
ENDBRANCH  14  15
ENDBRANCH  13  14
ENDBRANCH   9  11
TORSDOF 7
ENDMDL
