MODEL 1
REMARK VINA RESULT:     -10.0      0.000      0.000
REMARK  Name = 
REMARK  3 active torsions:
REMARK  status: ('A' for Active; 'I' for Inactive)
REMARK    1  A    between atoms: C_4  and  C_6
REMARK    2  A    between atoms: C_8  and  C_11
REMARK    3  A    between atoms: C_15  and  N_17
REMARK                            x       y       z     vdW  Elec       q    Type
REMARK                         _______ _______ _______ _____ _____    ______ ____
ROOT
ATOM     11  C   UNL     1      -3.719   1.608  24.497  0.00  0.00    +0.043 A 
ATOM     12  C   UNL     1      -4.264   2.082  24.099  0.00  0.00    +0.024 A 
ATOM     13  C   UNL     1      -4.060   2.852  23.884  0.00  0.00    +0.100 A 
ATOM     14  N   UNL     1      -3.313   3.148  24.067  0.00  0.00    -0.229 NA
ATOM     15  C   UNL     1      -2.768   2.674  24.466  0.00  0.00    +0.132 A 
ATOM     16  C   UNL     1      -2.971   1.903  24.681  0.00  0.00    +0.037 A 
ENDROOT
BRANCH  15  17
ATOM     17  N   UNL     1      -2.020   2.970  24.649  0.00  0.00    -0.288 N 
ATOM     18  C   UNL     1      -1.919   3.462  25.303  0.00  0.00    +0.124 C 
ATOM     19  C   UNL     1      -1.172   3.757  25.486  0.00  0.00    +0.164 C 
ATOM     20  O   UNL     1      -0.523   3.562  25.015  0.00  0.00    -0.350 OA
ATOM     21  C   UNL     1      -0.624   3.069  24.361  0.00  0.00    +0.164 C 
ATOM     22  C   UNL     1      -1.372   2.774  24.178  0.00  0.00    +0.124 C 
ENDBRANCH  15  17
BRANCH  11   8
ATOM      6  C   UNL     1      -4.028  -0.494  24.719  0.00  0.00    +0.252 A 
ATOM      7  N   UNL     1      -3.706   0.149  24.313  0.00  0.00    -0.190 NA
ATOM      8  C   UNL     1      -3.922   0.838  24.712  0.00  0.00    +0.203 A 
ATOM      9  N   UNL     1      -4.378   0.621  25.365  0.00  0.00    -0.056 NA
ATOM     10  O   UNL     1      -4.443  -0.202  25.369  0.00  0.00    -0.336 OA
BRANCH   6   4
ATOM      1  C   UNL     1      -3.577  -2.569  24.514  0.00  0.00    +0.021 C 
ATOM      2  C   UNL     1      -4.075  -2.450  23.867  0.00  0.00    +0.089 C 
ATOM      3  N   UNL     1      -4.305  -1.657  23.865  0.00  0.00    -0.210 NA
ATOM      4  C   UNL     1      -3.948  -1.287  24.511  0.00  0.00    +0.151 C 
ATOM      5  C   UNL     1      -3.499  -1.850  24.912  0.00  0.00    +0.028 C 
ENDBRANCH   6   4
ENDBRANCH  11   8
TORSDOF 3
ENDMDL
MODEL 2
REMARK VINA RESULT:      -9.9      1.117      4.655
REMARK  Name = 
REMARK  3 active torsions:
REMARK  status: ('A' for Active; 'I' for Inactive)
REMARK    1  A    between atoms: C_4  and  C_6
REMARK    2  A    between atoms: C_8  and  C_11
REMARK    3  A    between atoms: C_15  and  N_17
REMARK                            x       y       z     vdW  Elec       q    Type
REMARK                         _______ _______ _______ _____ _____    ______ ____
ROOT
ATOM     11  C   UNL     1      -4.092   1.671  24.759  0.00  0.00    +0.043 A 
ATOM     12  C   UNL     1      -4.844   1.839  25.052  0.00  0.00    +0.024 A 
ATOM     13  C   UNL     1      -5.342   1.224  25.287  0.00  0.00    +0.100 A 
ATOM     14  N   UNL     1      -5.087   0.442  25.227  0.00  0.00    -0.229 NA
ATOM     15  C   UNL     1      -4.334   0.274  24.933  0.00  0.00    +0.132 A 
ATOM     16  C   UNL     1      -3.837   0.890  24.699  0.00  0.00    +0.037 A 
ENDROOT
BRANCH  15  17
ATOM     17  N   UNL     1      -4.080  -0.508  24.874  0.00  0.00    -0.288 N 
ATOM     18  C   UNL     1      -4.224  -0.938  24.185  0.00  0.00    +0.124 C 
ATOM     19  C   UNL     1      -3.970  -1.720  24.125  0.00  0.00    +0.164 C 
ATOM     20  O   UNL     1      -3.570  -2.073  24.755  0.00  0.00    -0.350 OA
ATOM     21  C   UNL     1      -3.425  -1.643  25.444  0.00  0.00    +0.164 C 
ATOM     22  C   UNL     1      -3.680  -0.861  25.503  0.00  0.00    +0.124 C 
ENDBRANCH  15  17
BRANCH  11   8
ATOM      6  C   UNL     1      -2.649   3.229  24.534  0.00  0.00    +0.252 A 
ATOM      7  N   UNL     1      -3.010   2.641  24.987  0.00  0.00    -0.190 NA
ATOM      8  C   UNL     1      -3.595   2.287  24.524  0.00  0.00    +0.203 A 
ATOM      9  N   UNL     1      -3.595   2.656  23.787  0.00  0.00    -0.056 NA
ATOM     10  O   UNL     1      -3.010   3.239  23.793  0.00  0.00    -0.336 OA
BRANCH   6   4
ATOM      1  C   UNL     1      -1.363   4.764  25.272  0.00  0.00    +0.021 C 
ATOM      2  C   UNL     1      -0.814   4.192  25.046  0.00  0.00    +0.089 C 
ATOM      3  N   UNL     1      -1.229   3.547  24.741  0.00  0.00    -0.210 NA
ATOM      4  C   UNL     1      -2.035   3.721  24.780  0.00  0.00    +0.151 C 
ATOM      5  C   UNL     1      -2.117   4.473  25.108  0.00  0.00    +0.028 C 
ENDBRANCH   6   4
ENDBRANCH  11   8
TORSDOF 3
ENDMDL
MODEL 3
REMARK VINA RESULT:      -9.6      1.808      2.420
REMARK  Name = 
REMARK  3 active torsions:
REMARK  status: ('A' for Active; 'I' for Inactive)
REMARK    1  A    between atoms: C_4  and  C_6
REMARK    2  A    between atoms: C_8  and  C_11
REMARK    3  A    between atoms: C_15  and  N_17
REMARK                            x       y       z     vdW  Elec       q    Type
REMARK                         _______ _______ _______ _____ _____    ______ ____
ROOT
ATOM     11  C   UNL     1      -3.168   1.214  24.121  0.00  0.00    +0.043 A 
ATOM     12  C   UNL     1      -2.928   1.563  23.413  0.00  0.00    +0.024 A 
ATOM     13  C   UNL     1      -3.221   2.304  23.199  0.00  0.00    +0.100 A 
ATOM     14  N   UNL     1      -3.753   2.695  23.691  0.00  0.00    -0.229 NA
ATOM     15  C   UNL     1      -3.994   2.346  24.400  0.00  0.00    +0.132 A 
ATOM     16  C   UNL     1      -3.700   1.605  24.614  0.00  0.00    +0.037 A 
ENDROOT
BRANCH  15  17
ATOM     17  N   UNL     1      -4.526   2.738  24.893  0.00  0.00    -0.288 N 
ATOM     18  C   UNL     1      -5.284   2.433  25.008  0.00  0.00    +0.124 C 
ATOM     19  C   UNL     1      -5.816   2.824  25.501  0.00  0.00    +0.164 C 
ATOM     20  O   UNL     1      -5.591   3.522  25.880  0.00  0.00    -0.350 OA
ATOM     21  C   UNL     1      -4.833   3.827  25.765  0.00  0.00    +0.164 C 
ATOM     22  C   UNL     1      -4.301   3.436  25.272  0.00  0.00    +0.124 C 
ENDBRANCH  15  17
BRANCH  11   8
ATOM      6  C   UNL     1      -2.764  -0.845  24.517  0.00  0.00    +0.252 A 
ATOM      7  N   UNL     1      -3.254  -0.251  24.221  0.00  0.00    -0.190 NA
ATOM      8  C   UNL     1      -2.875   0.473  24.335  0.00  0.00    +0.203 A 
ATOM      9  N   UNL     1      -2.150   0.326  24.702  0.00  0.00    -0.056 NA
ATOM     10  O   UNL     1      -2.082  -0.489  24.814  0.00  0.00    -0.336 OA
BRANCH   6   4
ATOM      1  C   UNL     1      -3.583  -2.816  24.528  0.00  0.00    +0.021 C 
ATOM      2  C   UNL     1      -2.775  -2.980  24.500  0.00  0.00    +0.089 C 
ATOM      3  N   UNL     1      -2.369  -2.261  24.492  0.00  0.00    -0.210 NA
ATOM      4  C   UNL     1      -2.927  -1.653  24.516  0.00  0.00    +0.151 C 
ATOM      5  C   UNL     1      -3.677  -1.996  24.537  0.00  0.00    +0.028 C 
ENDBRANCH   6   4
ENDBRANCH  11   8
TORSDOF 3
ENDMDL
MODEL 4
REMARK VINA RESULT:      -9.4      2.462      3.792
REMARK  Name = 
REMARK  3 active torsions:
REMARK  status: ('A' for Active; 'I' for Inactive)
REMARK    1  A    between atoms: C_4  and  C_6
REMARK    2  A    between atoms: C_8  and  C_11
REMARK    3  A    between atoms: C_15  and  N_17
REMARK                            x       y       z     vdW  Elec       q    Type
REMARK                         _______ _______ _______ _____ _____    ______ ____
ROOT
ATOM     11  C   UNL     1      -1.622   2.411  25.150  0.00  0.00    +0.043 A 
ATOM     12  C   UNL     1      -1.104   2.803  25.658  0.00  0.00    +0.024 A 
ATOM     13  C   UNL     1      -0.349   2.498  25.794  0.00  0.00    +0.100 A 
ATOM     14  N   UNL     1      -0.113   1.802  25.421  0.00  0.00    -0.229 NA
ATOM     15  C   UNL     1      -0.631   1.409  24.912  0.00  0.00    +0.132 A 
ATOM     16  C   UNL     1      -1.386   1.714  24.777  0.00  0.00    +0.037 A 
ENDROOT
BRANCH  15  17
ATOM     17  N   UNL     1      -0.395   0.713  24.539  0.00  0.00    -0.288 N 
ATOM     18  C   UNL     1      -0.616  -0.018  24.851  0.00  0.00    +0.124 C 
ATOM     19  C   UNL     1      -0.379  -0.715  24.478  0.00  0.00    +0.164 C 
ATOM     20  O   UNL     1       0.079  -0.681  23.792  0.00  0.00    -0.350 OA
ATOM     21  C   UNL     1       0.301   0.050  23.481  0.00  0.00    +0.164 C 
ATOM     22  C   UNL     1       0.064   0.746  23.854  0.00  0.00    +0.124 C 
ENDBRANCH  15  17
BRANCH  11   8
ATOM      6  C   UNL     1      -3.702   2.877  25.025  0.00  0.00    +0.252 A 
ATOM      7  N   UNL     1      -3.086   2.396  25.290  0.00  0.00    -0.190 NA
ATOM      8  C   UNL     1      -2.377   2.716  25.015  0.00  0.00    +0.203 A 
ATOM      9  N   UNL     1      -2.554   3.395  24.581  0.00  0.00    -0.056 NA
ATOM     10  O   UNL     1      -3.374   3.494  24.587  0.00  0.00    -0.336 OA
BRANCH   6   4
ATOM      1  C   UNL     1      -5.754   2.297  25.105  0.00  0.00    +0.021 C 
ATOM      2  C   UNL     1      -5.728   2.871  25.698  0.00  0.00    +0.089 C 
ATOM      3  N   UNL     1      -4.955   3.158  25.740  0.00  0.00    -0.210 NA
ATOM      4  C   UNL     1      -4.505   2.762  25.173  0.00  0.00    +0.151 C 
ATOM      5  C   UNL     1      -4.998   2.230  24.781  0.00  0.00    +0.028 C 
ENDBRANCH   6   4
ENDBRANCH  11   8
TORSDOF 3
ENDMDL
MODEL 5
REMARK VINA RESULT:      -9.3      1.737      5.045
REMARK  Name = 
REMARK  3 active torsions:
REMARK  status: ('A' for Active; 'I' for Inactive)
REMARK    1  A    between atoms: C_4  and  C_6
REMARK    2  A    between atoms: C_8  and  C_11
REMARK    3  A    between atoms: C_15  and  N_17
REMARK                            x       y       z     vdW  Elec       q    Type
REMARK                         _______ _______ _______ _____ _____    ______ ____
ROOT
ATOM     11  C   UNL     1      -1.065   0.960  25.039  0.00  0.00    +0.043 A 
ATOM     12  C   UNL     1      -0.433   0.589  24.661  0.00  0.00    +0.024 A 
ATOM     13  C   UNL     1      -0.522  -0.176  24.364  0.00  0.00    +0.100 A 
ATOM     14  N   UNL     1      -1.242  -0.569  24.446  0.00  0.00    -0.229 NA
ATOM     15  C   UNL     1      -1.874  -0.198  24.825  0.00  0.00    +0.132 A 
ATOM     16  C   UNL     1      -1.785   0.567  25.122  0.00  0.00    +0.037 A 
ENDROOT
BRANCH  15  17
ATOM     17  N   UNL     1      -2.594  -0.591  24.907  0.00  0.00    -0.288 N 
ATOM     18  C   UNL     1      -3.163  -0.541  24.312  0.00  0.00    +0.124 C 
ATOM     19  C   UNL     1      -3.882  -0.935  24.394  0.00  0.00    +0.164 C 
ATOM     20  O   UNL     1      -4.035  -1.379  25.073  0.00  0.00    -0.350 OA
ATOM     21  C   UNL     1      -3.467  -1.428  25.668  0.00  0.00    +0.164 C 
ATOM     22  C   UNL     1      -2.747  -1.035  25.586  0.00  0.00    +0.124 C 
ENDBRANCH  15  17
BRANCH  11   8
ATOM      6  C   UNL     1      -1.064   3.050  25.479  0.00  0.00    +0.252 A 
ATOM      7  N   UNL     1      -1.287   2.414  25.003  0.00  0.00    -0.190 NA
ATOM      8  C   UNL     1      -0.976   1.725  25.335  0.00  0.00    +0.203 A 
ATOM      9  N   UNL     1      -0.560   1.936  26.016  0.00  0.00    -0.056 NA
ATOM     10  O   UNL     1      -0.614   2.755  26.105  0.00  0.00    -0.336 OA
BRANCH   6   4
ATOM      1  C   UNL     1      -1.185   5.120  24.976  0.00  0.00    +0.021 C 
ATOM      2  C   UNL     1      -1.918   5.000  25.334  0.00  0.00    +0.089 C 
ATOM      3  N   UNL     1      -1.962   4.210  25.566  0.00  0.00    -0.210 NA
ATOM      4  C   UNL     1      -1.255   3.841  25.351  0.00  0.00    +0.151 C 
ATOM      5  C   UNL     1      -0.775   4.404  24.987  0.00  0.00    +0.028 C 
ENDBRANCH   6   4
ENDBRANCH  11   8
TORSDOF 3
ENDMDL
