MODEL 1
REMARK VINA RESULT:     -12.6      0.000      0.000
REMARK  Name = 
REMARK  6 active torsions:
REMARK  status: ('A' for Active; 'I' for Inactive)
REMARK    1  A    between atoms: C_3  and  N_4
REMARK    2  A    between atoms: N_4  and  C_5
REMARK    3  A    between atoms: C_5  and  C_6
REMARK    4  A    between atoms: C_16  and  N_17
REMARK    5  A    between atoms: C_20  and  C_21
REMARK    6  A    between atoms: C_21  and  C_22
REMARK                            x       y       z     vdW  Elec       q    Type
REMARK                         _______ _______ _______ _____ _____    ______ ____
ROOT
ATOM      1  O   UNL     1      -2.539   1.110  24.520  0.00  0.00    -0.220 OA
ATOM      2  C   UNL     1      -2.996   1.796  24.492  0.00  0.00    +0.190 C 
ATOM      3  C   UNL     1      -3.186   2.602  24.462  0.00  0.00    +0.135 C 
ATOM     11  C   UNL     1      -4.112   2.528  24.457  0.00  0.00    +0.166 C 
ATOM     12  C   UNL     1      -4.386   1.800  24.480  0.00  0.00    +0.176 C 
ATOM     13  O   UNL     1      -4.981   1.384  24.490  0.00  0.00    -0.327 OA
ATOM     14  C   UNL     1      -4.508   2.129  24.468  0.00  0.00    +0.253 C 
ATOM     15  O   UNL     1      -4.699   2.930  24.437  0.00  0.00    -0.328 OA
ATOM     16  C   UNL     1      -3.539   2.191  24.473  0.00  0.00    +0.147 C 
ENDROOT
BRANCH  16  17
ATOM     17  N   UNL     1      -3.768   1.399  24.500  0.00  0.00    -0.268 NA
ATOM     18  C   UNL     1      -3.767   0.946  23.810  0.00  0.00    +0.072 C 
ATOM     19  C   UNL     1      -3.997   0.154  23.837  0.00  0.00    +0.018 C 
ATOM     20  C   UNL     1      -4.228  -0.185  24.553  0.00  0.00    +0.007 C 
ATOM     28  C   UNL     1      -4.229   0.268  25.242  0.00  0.00    +0.018 C 
ATOM     29  C   UNL     1      -3.999   1.060  25.216  0.00  0.00    +0.072 C 
BRANCH  20  21
ATOM     21  C   UNL     1      -4.458  -0.977  24.580  0.00  0.00    +0.026 C 
BRANCH  21  22
ATOM     22  C   UNL     1      -3.890  -1.569  24.668  0.00  0.00    -0.022 A 
ATOM     23  C   UNL     1      -3.641  -2.003  24.013  0.00  0.00    -0.004 A 
ATOM     24  C   UNL     1      -3.074  -2.595  24.100  0.00  0.00    -0.000 A 
ATOM     25  C   UNL     1      -2.756  -2.754  24.845  0.00  0.00    -0.000 A 
ATOM     26  C   UNL     1      -3.005  -2.321  25.502  0.00  0.00    -0.000 A 
ATOM     27  C   UNL     1      -3.572  -1.728  25.413  0.00  0.00    -0.004 A 
ENDBRANCH  21  22
ENDBRANCH  20  21
ENDBRANCH  16  17
BRANCH   3   4
ATOM      4  N   UNL     1      -2.700   3.270  24.442  0.00  0.00    -0.206 NA
BRANCH   4   5
ATOM      5  C   UNL     1      -2.171   3.412  25.058  0.00  0.00    +0.153 C 
BRANCH   5   6
ATOM      6  C   UNL     1      -1.699   4.088  25.048  0.00  0.00    +0.141 A 
ATOM      7  C   UNL     1      -0.878   4.105  24.959  0.00  0.00    +0.038 A 
ATOM      8  C   UNL     1      -0.637   4.894  24.980  0.00  0.00    +0.043 A 
ATOM      9  C   UNL     1      -1.307   5.363  25.083  0.00  0.00    +0.179 A 
ATOM     10  O   UNL     1      -1.963   4.866  25.124  0.00  0.00    -0.453 OA
ENDBRANCH   5   6
ENDBRANCH   4   5
ENDBRANCH   3   4
TORSDOF 6
ENDMDL
MODEL 2
REMARK VINA RESULT:     -11.6      0.996      4.863
REMARK  Name = 
REMARK  6 active torsions:
REMARK  status: ('A' for Active; 'I' for Inactive)
REMARK    1  A    between atoms: C_3  and  N_4
REMARK    2  A    between atoms: N_4  and  C_5
REMARK    3  A    between atoms: C_5  and  C_6
REMARK    4  A    between atoms: C_16  and  N_17
REMARK    5  A    between atoms: C_20  and  C_21
REMARK    6  A    between atoms: C_21  and  C_22
REMARK                            x       y       z     vdW  Elec       q    Type
REMARK                         _______ _______ _______ _____ _____    ______ ____
ROOT
ATOM      1  O   UNL     1      -2.841   1.552  24.600  0.00  0.00    -0.220 OA
ATOM      2  C   UNL     1      -3.632   1.317  24.595  0.00  0.00    +0.190 C 
ATOM      3  C   UNL     1      -4.298   0.832  24.508  0.00  0.00    +0.135 C 
ATOM     11  C   UNL     1      -4.953   1.450  24.738  0.00  0.00    +0.166 C 
ATOM     12  C   UNL     1      -4.690   2.159  24.921  0.00  0.00    +0.176 C 
ATOM     13  O   UNL     1      -4.872   2.830  25.129  0.00  0.00    -0.327 OA
ATOM     14  C   UNL     1      -4.995   1.987  24.896  0.00  0.00    +0.253 C 
ATOM     15  O   UNL     1      -5.659   1.506  24.810  0.00  0.00    -0.328 OA
ATOM     16  C   UNL     1      -4.299   1.352  24.658  0.00  0.00    +0.147 C 
ENDROOT
BRANCH  16  17
ATOM     17  N   UNL     1      -3.961   2.082  24.841  0.00  0.00    -0.268 NA
ATOM     18  C   UNL     1      -3.842   2.643  24.248  0.00  0.00    +0.072 C 
ATOM     19  C   UNL     1      -3.504   3.373  24.431  0.00  0.00    +0.018 C 
ATOM     20  C   UNL     1      -3.285   3.542  25.208  0.00  0.00    +0.007 C 
ATOM     28  C   UNL     1      -3.405   2.982  25.802  0.00  0.00    +0.018 C 
ATOM     29  C   UNL     1      -3.743   2.253  25.618  0.00  0.00    +0.072 C 
BRANCH  20  21
ATOM     21  C   UNL     1      -2.947   4.272  25.392  0.00  0.00    +0.026 C 
BRANCH  21  22
ATOM     22  C   UNL     1      -2.145   4.404  25.251  0.00  0.00    -0.022 A 
ATOM     23  C   UNL     1      -1.577   3.980  25.672  0.00  0.00    -0.004 A 
ATOM     24  C   UNL     1      -0.775   4.111  25.531  0.00  0.00    -0.000 A 
ATOM     25  C   UNL     1      -0.542   4.668  24.968  0.00  0.00    -0.000 A 
ATOM     26  C   UNL     1      -1.110   5.093  24.547  0.00  0.00    -0.000 A 
ATOM     27  C   UNL     1      -1.912   4.961  24.689  0.00  0.00    -0.004 A 
ENDBRANCH  21  22
ENDBRANCH  20  21
ENDBRANCH  16  17
BRANCH   3   4
ATOM      4  N   UNL     1      -4.361   0.039  24.285  0.00  0.00    -0.206 NA
BRANCH   4   5
ATOM      5  C   UNL     1      -4.014  -0.548  24.749  0.00  0.00    +0.153 C 
BRANCH   5   6
ATOM      6  C   UNL     1      -4.002  -1.329  24.485  0.00  0.00    +0.141 A 
ATOM      7  C   UNL     1      -3.577  -1.950  24.824  0.00  0.00    +0.038 A 
ATOM      8  C   UNL     1      -3.726  -2.631  24.383  0.00  0.00    +0.043 A 
ATOM      9  C   UNL     1      -4.242  -2.432  23.772  0.00  0.00    +0.179 A 
ATOM     10  O   UNL     1      -4.413  -1.628  23.835  0.00  0.00    -0.453 OA
ENDBRANCH   5   6
ENDBRANCH   4   5
ENDBRANCH   3   4
TORSDOF 6
ENDMDL
MODEL 3
REMARK VINA RESULT:     -11.4      1.960      5.444
REMARK  Name = 
REMARK  6 active torsions:
REMARK  status: ('A' for Active; 'I' for Inactive)
REMARK    1  A    between atoms: C_3  and  N_4
REMARK    2  A    between atoms: N_4  and  C_5
REMARK    3  A    between atoms: C_5  and  C_6
REMARK    4  A    between atoms: C_16  and  N_17
REMARK    5  A    between atoms: C_20  and  C_21
REMARK    6  A    between atoms: C_21  and  C_22
REMARK                            x       y       z     vdW  Elec       q    Type
REMARK                         _______ _______ _______ _____ _____    ______ ____
ROOT
ATOM      1  O   UNL     1      -2.361   1.237  24.797  0.00  0.00    -0.220 OA
ATOM      2  C   UNL     1      -1.910   0.572  24.608  0.00  0.00    +0.190 C 
ATOM      3  C   UNL     1      -1.727  -0.200  24.372  0.00  0.00    +0.135 C 
ATOM     11  C   UNL     1      -0.801  -0.150  24.434  0.00  0.00    +0.166 C 
ATOM     12  C   UNL     1      -0.522   0.538  24.666  0.00  0.00    +0.176 C 
ATOM     13  O   UNL     1       0.076   0.921  24.817  0.00  0.00    -0.327 OA
ATOM     14  C   UNL     1      -0.403   0.221  24.571  0.00  0.00    +0.253 C 
ATOM     15  O   UNL     1      -0.218  -0.547  24.336  0.00  0.00    -0.328 OA
ATOM     16  C   UNL     1      -1.372   0.184  24.511  0.00  0.00    +0.147 C 
ENDROOT
BRANCH  16  17
ATOM     17  N   UNL     1      -1.136   0.934  24.761  0.00  0.00    -0.268 NA
ATOM     18  C   UNL     1      -0.966   1.520  24.205  0.00  0.00    +0.072 C 
ATOM     19  C   UNL     1      -0.730   2.270  24.455  0.00  0.00    +0.018 C 
ATOM     20  C   UNL     1      -0.664   2.434  25.261  0.00  0.00    +0.007 C 
ATOM     28  C   UNL     1      -0.833   1.849  25.817  0.00  0.00    +0.018 C 
ATOM     29  C   UNL     1      -1.069   1.099  25.567  0.00  0.00    +0.072 C 
BRANCH  20  21
ATOM     21  C   UNL     1      -0.427   3.184  25.512  0.00  0.00    +0.026 C 
BRANCH  21  22
ATOM     22  C   UNL     1      -0.934   3.829  25.421  0.00  0.00    -0.022 A 
ATOM     23  C   UNL     1      -1.621   3.881  25.873  0.00  0.00    -0.004 A 
ATOM     24  C   UNL     1      -2.127   4.526  25.782  0.00  0.00    -0.000 A 
ATOM     25  C   UNL     1      -1.945   5.119  25.238  0.00  0.00    -0.000 A 
ATOM     26  C   UNL     1      -1.257   5.067  24.785  0.00  0.00    -0.000 A 
ATOM     27  C   UNL     1      -0.752   4.422  24.877  0.00  0.00    -0.004 A 
ENDBRANCH  21  22
ENDBRANCH  20  21
ENDBRANCH  16  17
BRANCH   3   4
ATOM      4  N   UNL     1      -2.218  -0.826  24.148  0.00  0.00    -0.206 NA
BRANCH   4   5
ATOM      5  C   UNL     1      -2.786  -1.112  24.674  0.00  0.00    +0.153 C 
BRANCH   5   6
ATOM      6  C   UNL     1      -3.295  -1.717  24.442  0.00  0.00    +0.141 A 
ATOM      7  C   UNL     1      -3.259  -2.503  24.691  0.00  0.00    +0.038 A 
ATOM      8  C   UNL     1      -3.872  -2.915  24.322  0.00  0.00    +0.043 A 
ATOM      9  C   UNL     1      -4.286  -2.384  23.847  0.00  0.00    +0.179 A 
ATOM     10  O   UNL     1      -3.930  -1.644  23.920  0.00  0.00    -0.453 OA
ENDBRANCH   5   6
ENDBRANCH   4   5
ENDBRANCH   3   4
TORSDOF 6
ENDMDL
MODEL 4
REMARK VINA RESULT:     -11.0      1.933      2.699
REMARK  Name = 
REMARK  6 active torsions:
REMARK  status: ('A' for Active; 'I' for Inactive)
REMARK    1  A    between atoms: C_3  and  N_4
REMARK    2  A    between atoms: N_4  and  C_5
REMARK    3  A    between atoms: C_5  and  C_6
REMARK    4  A    between atoms: C_16  and  N_17
REMARK    5  A    between atoms: C_20  and  C_21
REMARK    6  A    between atoms: C_21  and  C_22
REMARK                            x       y       z     vdW  Elec       q    Type
REMARK                         _______ _______ _______ _____ _____    ______ ____
ROOT
ATOM      1  O   UNL     1      -2.175   1.080  24.941  0.00  0.00    -0.220 OA
ATOM      2  C   UNL     1      -1.471   1.449  24.721  0.00  0.00    +0.190 C 
ATOM      3  C   UNL     1      -0.938   2.053  24.527  0.00  0.00    +0.135 C 
ATOM     11  C   UNL     1      -0.185   1.532  24.373  0.00  0.00    +0.166 C 
ATOM     12  C   UNL     1      -0.287   0.766  24.467  0.00  0.00    +0.176 C 
ATOM     13  O   UNL     1       0.027   0.113  24.440  0.00  0.00    -0.327 OA
ATOM     14  C   UNL     1      -0.033   0.991  24.379  0.00  0.00    +0.253 C 
ATOM     15  O   UNL     1       0.500   1.591  24.185  0.00  0.00    -0.328 OA
ATOM     16  C   UNL     1      -0.828   1.523  24.544  0.00  0.00    +0.147 C 
ENDROOT
BRANCH  16  17
ATOM     17  N   UNL     1      -0.997   0.724  24.659  0.00  0.00    -0.268 NA
ATOM     18  C   UNL     1      -1.196   0.248  24.015  0.00  0.00    +0.072 C 
ATOM     19  C   UNL     1      -1.365  -0.552  24.130  0.00  0.00    +0.018 C 
ATOM     20  C   UNL     1      -1.336  -0.874  24.889  0.00  0.00    +0.007 C 
ATOM     28  C   UNL     1      -1.137  -0.398  25.532  0.00  0.00    +0.018 C 
ATOM     29  C   UNL     1      -0.968   0.401  25.417  0.00  0.00    +0.072 C 
BRANCH  20  21
ATOM     21  C   UNL     1      -1.505  -1.674  25.005  0.00  0.00    +0.026 C 
BRANCH  21  22
ATOM     22  C   UNL     1      -2.275  -1.953  24.903  0.00  0.00    -0.022 A 
ATOM     23  C   UNL     1      -2.840  -1.827  25.489  0.00  0.00    -0.004 A 
ATOM     24  C   UNL     1      -3.610  -2.106  25.387  0.00  0.00    -0.000 A 
ATOM     25  C   UNL     1      -3.813  -2.511  24.698  0.00  0.00    -0.000 A 
ATOM     26  C   UNL     1      -3.248  -2.637  24.111  0.00  0.00    -0.000 A 
ATOM     27  C   UNL     1      -2.478  -2.358  24.213  0.00  0.00    -0.004 A 
ENDBRANCH  21  22
ENDBRANCH  20  21
ENDBRANCH  16  17
BRANCH   3   4
ATOM      4  N   UNL     1      -1.044   2.871  24.484  0.00  0.00    -0.206 NA
BRANCH   4   5
ATOM      5  C   UNL     1      -1.159   3.309  25.174  0.00  0.00    +0.153 C 
BRANCH   5   6
ATOM      6  C   UNL     1      -1.245   4.128  25.132  0.00  0.00    +0.141 A 
ATOM      7  C   UNL     1      -1.915   4.557  25.352  0.00  0.00    +0.038 A 
ATOM      8  C   UNL     1      -1.760   5.356  25.220  0.00  0.00    +0.043 A 
ATOM      9  C   UNL     1      -0.996   5.421  24.918  0.00  0.00    +0.179 A 
ATOM     10  O   UNL     1      -0.677   4.663  24.864  0.00  0.00    -0.453 OA
ENDBRANCH   5   6
ENDBRANCH   4   5
ENDBRANCH   3   4
TORSDOF 6
ENDMDL
MODEL 5
REMARK VINA RESULT:     -10.8      3.195      3.748
REMARK  Name = 
REMARK  6 active torsions:
REMARK  status: ('A' for Active; 'I' for Inactive)
REMARK    1  A    between atoms: C_3  and  N_4
REMARK    2  A    between atoms: N_4  and  C_5
REMARK    3  A    between atoms: C_5  and  C_6
REMARK    4  A    between atoms: C_16  and  N_17
REMARK    5  A    between atoms: C_20  and  C_21
REMARK    6  A    between atoms: C_21  and  C_22
REMARK                            x       y       z     vdW  Elec       q    Type
REMARK                         _______ _______ _______ _____ _____    ______ ____
ROOT
ATOM      1  O   UNL     1      -0.808  -0.424  23.697  0.00  0.00    -0.220 OA
ATOM      2  C   UNL     1      -0.415   0.247  23.973  0.00  0.00    +0.190 C 
ATOM      3  C   UNL     1       0.163   0.838  24.038  0.00  0.00    +0.135 C 
ATOM     11  C   UNL     1      -0.209   1.321  24.739  0.00  0.00    +0.166 C 
ATOM     12  C   UNL     1      -0.881   1.042  25.015  0.00  0.00    +0.176 C 
ATOM     13  O   UNL     1      -1.412   1.132  25.500  0.00  0.00    -0.327 OA
ATOM     14  C   UNL     1      -0.660   1.307  25.074  0.00  0.00    +0.253 C 
ATOM     15  O   UNL     1      -0.086   1.896  25.140  0.00  0.00    -0.328 OA
ATOM     16  C   UNL     1      -0.284   0.792  24.342  0.00  0.00    +0.147 C 
ENDROOT
BRANCH  16  17
ATOM     17  N   UNL     1      -0.992   0.450  24.590  0.00  0.00    -0.268 NA
ATOM     18  C   UNL     1      -1.706   0.685  24.250  0.00  0.00    +0.072 C 
ATOM     19  C   UNL     1      -2.414   0.342  24.498  0.00  0.00    +0.018 C 
ATOM     20  C   UNL     1      -2.408  -0.236  25.087  0.00  0.00    +0.007 C 
ATOM     28  C   UNL     1      -1.695  -0.471  25.427  0.00  0.00    +0.018 C 
ATOM     29  C   UNL     1      -0.987  -0.128  25.179  0.00  0.00    +0.072 C 
BRANCH  20  21
ATOM     21  C   UNL     1      -3.116  -0.579  25.336  0.00  0.00    +0.026 C 
BRANCH  21  22
ATOM     22  C   UNL     1      -3.428  -1.225  24.929  0.00  0.00    -0.022 A 
ATOM     23  C   UNL     1      -3.948  -1.106  24.302  0.00  0.00    -0.004 A 
ATOM     24  C   UNL     1      -4.260  -1.753  23.895  0.00  0.00    -0.000 A 
ATOM     25  C   UNL     1      -4.051  -2.519  24.117  0.00  0.00    -0.000 A 
ATOM     26  C   UNL     1      -3.530  -2.639  24.746  0.00  0.00    -0.000 A 
ATOM     27  C   UNL     1      -3.218  -1.992  25.152  0.00  0.00    -0.004 A 
ENDBRANCH  21  22
ENDBRANCH  20  21
ENDBRANCH  16  17
BRANCH   3   4
ATOM      4  N   UNL     1       0.858   0.959  23.609  0.00  0.00    -0.206 NA
BRANCH   4   5
ATOM      5  C   UNL     1       1.334   0.317  23.404  0.00  0.00    +0.153 C 
BRANCH   5   6
ATOM      6  C   UNL     1       2.071   0.445  23.059  0.00  0.00    +0.141 A 
ATOM      7  C   UNL     1       2.397   0.011  22.437  0.00  0.00    +0.038 A 
ATOM      8  C   UNL     1       3.140   0.326  22.268  0.00  0.00    +0.043 A 
ATOM      9  C   UNL     1       3.274   0.954  22.786  0.00  0.00    +0.179 A 
ATOM     10  O   UNL     1       2.614   1.027  23.274  0.00  0.00    -0.453 OA
ENDBRANCH   5   6
ENDBRANCH   4   5
ENDBRANCH   3   4
TORSDOF 6
ENDMDL
