REMARK  Name = 
REMARK  4 active torsions:
REMARK  status: ('A' for Active; 'I' for Inactive)
REMARK    1  A    between atoms: C_7  and  C_8
REMARK    2  A    between atoms: C_10  and  C_11
REMARK    3  A    between atoms: C_11  and  S_12
REMARK    4  A    between atoms: S_12  and  C_15
REMARK                            x       y       z     vdW  Elec       q    Type
REMARK                         _______ _______ _______ _____ _____    ______ ____
ROOT
ATOM      8  C   UNL     1       1.491  -4.390   0.000  0.00  0.00    +0.251 A 
ATOM      9  N   UNL     1       0.824  -4.875   0.000  0.00  0.00    -0.192 NA
ATOM     10  C   UNL     1       0.156  -4.390   0.000  0.00  0.00    +0.205 A 
ATOM     22  N   UNL     1       0.411  -3.605   0.000  0.00  0.00    -0.059 NA
ATOM     23  O   UNL     1       1.236  -3.605   0.000  0.00  0.00    -0.336 OA
ENDROOT
BRANCH   8   7
ATOM      1  C   UNL     1       2.943  -3.335   0.000  0.00  0.00    +0.090 C 
ATOM      2  N   UNL     1       2.943  -4.160   0.000  0.00  0.00    -0.263 NA
ATOM      3  C   UNL     1       3.611  -4.645   0.000  0.00  0.00    +0.106 C 
ATOM      4  C   UNL     1       3.356  -5.430   0.000  0.00  0.00    +0.170 C 
ATOM      5  O   UNL     1       3.841  -6.097   0.000  0.00  0.00    -0.222 OA
ATOM      6  C   UNL     1       2.531  -5.430   0.000  0.00  0.00    +0.060 C 
ATOM      7  C   UNL     1       2.276  -4.645   0.000  0.00  0.00    +0.140 C 
ENDBRANCH   8   7
BRANCH  10  11
ATOM     11  C   UNL     1      -0.628  -4.645   0.000  0.00  0.00    +0.224 C 
BRANCH  11  12
ATOM     12  S   UNL     1      -1.242  -4.093   0.000  0.00  0.00    +0.016 S 
ATOM     13  O   UNL     1      -0.690  -3.480   0.000  0.00  0.00    -0.168 OA
ATOM     14  O   UNL     1      -1.794  -4.706   0.000  0.00  0.00    -0.168 OA
BRANCH  12  15
ATOM     15  C   UNL     1      -1.855  -3.541   0.000  0.00  0.00    +0.106 A 
ATOM     16  C   UNL     1      -2.639  -3.796   0.000  0.00  0.00    +0.021 A 
ATOM     17  C   UNL     1      -3.252  -3.244   0.000  0.00  0.00    +0.031 A 
ATOM     18  C   UNL     1      -3.081  -2.437   0.000  0.00  0.00    +0.140 A 
ATOM     19  F   UNL     1      -3.694  -1.885   0.000  0.00  0.00    -0.204 F 
ATOM     20  C   UNL     1      -2.296  -2.182   0.000  0.00  0.00    +0.031 A 
ATOM     21  C   UNL     1      -1.683  -2.734   0.000  0.00  0.00    +0.021 A 
ENDBRANCH  12  15
ENDBRANCH  11  12
ENDBRANCH  10  11
TORSDOF 4
