MODEL 1
REMARK VINA RESULT:     -10.5      0.000      0.000
REMARK  Name = 
REMARK  4 active torsions:
REMARK  status: ('A' for Active; 'I' for Inactive)
REMARK    1  A    between atoms: C_4  and  C_11
REMARK    2  A    between atoms: N_5  and  C_6
REMARK    3  A    between atoms: C_6  and  C_7
REMARK    4  A    between atoms: C_13  and  C_16
REMARK                            x       y       z     vdW  Elec       q    Type
REMARK                         _______ _______ _______ _____ _____    ______ ____
ROOT
ATOM     11  C   UNL     1      -4.116   1.444  24.621  0.00  0.00    +0.251 A 
ATOM     12  N   UNL     1      -4.149   0.709  24.995  0.00  0.00    -0.190 NA
ATOM     13  C   UNL     1      -3.826   0.149  24.482  0.00  0.00    +0.205 A 
ATOM     14  N   UNL     1      -3.595   0.537  23.792  0.00  0.00    -0.056 NA
ATOM     15  O   UNL     1      -3.774   1.338  23.879  0.00  0.00    -0.336 OA
ENDROOT
BRANCH  11   4
ATOM      1  O   UNL     1      -5.845   3.535  25.659  0.00  0.00    -0.222 OA
ATOM      2  C   UNL     1      -5.174   3.121  25.413  0.00  0.00    +0.170 C 
ATOM      3  C   UNL     1      -5.163   2.353  25.109  0.00  0.00    +0.060 C 
ATOM      4  C   UNL     1      -4.380   2.160  24.935  0.00  0.00    +0.140 C 
ATOM      5  N   UNL     1      -3.908   2.806  25.132  0.00  0.00    -0.264 NA
ATOM     10  C   UNL     1      -4.399   3.401  25.427  0.00  0.00    +0.106 C 
BRANCH   5   6
ATOM      6  C   UNL     1      -3.088   2.852  25.048  0.00  0.00    +0.073 C 
BRANCH   6   7
ATOM      7  C   UNL     1      -2.675   3.487  25.374  0.00  0.00    +0.016 C 
ATOM      8  C   UNL     1      -2.307   3.844  26.020  0.00  0.00    +0.001 C 
ATOM      9  C   UNL     1      -2.327   4.230  25.291  0.00  0.00    +0.001 C 
ENDBRANCH   6   7
ENDBRANCH   5   6
ENDBRANCH  11   4
BRANCH  13  16
ATOM     16  C   UNL     1      -3.749  -0.659  24.633  0.00  0.00    +0.058 A 
ATOM     17  C   UNL     1      -4.047  -1.210  24.096  0.00  0.00    +0.006 A 
ATOM     18  C   UNL     1      -3.970  -2.017  24.248  0.00  0.00    +0.021 A 
ATOM     19  C   UNL     1      -3.595  -2.273  24.938  0.00  0.00    +0.099 A 
ATOM     20  N   UNL     1      -3.297  -1.722  25.475  0.00  0.00    -0.242 NA
ATOM     21  C   UNL     1      -3.374  -0.915  25.322  0.00  0.00    +0.102 A 
ENDBRANCH  13  16
TORSDOF 4
ENDMDL
MODEL 2
REMARK VINA RESULT:     -10.0      1.389      4.462
REMARK  Name = 
REMARK  4 active torsions:
REMARK  status: ('A' for Active; 'I' for Inactive)
REMARK    1  A    between atoms: C_4  and  C_11
REMARK    2  A    between atoms: N_5  and  C_6
REMARK    3  A    between atoms: C_6  and  C_7
REMARK    4  A    between atoms: C_13  and  C_16
REMARK                            x       y       z     vdW  Elec       q    Type
REMARK                         _______ _______ _______ _____ _____    ______ ____
ROOT
ATOM     11  C   UNL     1      -2.929   0.647  24.399  0.00  0.00    +0.251 A 
ATOM     12  N   UNL     1      -3.345   1.096  24.953  0.00  0.00    -0.190 NA
ATOM     13  C   UNL     1      -3.813   1.637  24.542  0.00  0.00    +0.205 A 
ATOM     14  N   UNL     1      -3.687   1.521  23.735  0.00  0.00    -0.056 NA
ATOM     15  O   UNL     1      -3.141   0.910  23.647  0.00  0.00    -0.336 OA
ENDROOT
BRANCH  11   4
ATOM      1  O   UNL     1      -0.471  -0.784  24.991  0.00  0.00    -0.222 OA
ATOM      2  C   UNL     1      -1.266  -0.616  24.841  0.00  0.00    +0.170 C 
ATOM      3  C   UNL     1      -1.583   0.130  24.686  0.00  0.00    +0.060 C 
ATOM      4  C   UNL     1      -2.395   0.041  24.569  0.00  0.00    +0.140 C 
ATOM      5  N   UNL     1      -2.580  -0.758  24.651  0.00  0.00    -0.264 NA
ATOM     10  C   UNL     1      -1.881  -1.165  24.819  0.00  0.00    +0.106 C 
BRANCH   5   6
ATOM      6  C   UNL     1      -3.330  -1.093  24.578  0.00  0.00    +0.073 C 
BRANCH   6   7
ATOM      7  C   UNL     1      -3.427  -1.909  24.654  0.00  0.00    +0.016 C 
ATOM      8  C   UNL     1      -3.520  -2.652  24.308  0.00  0.00    +0.001 C 
ATOM      9  C   UNL     1      -3.501  -2.578  25.129  0.00  0.00    +0.001 C 
ENDBRANCH   6   7
ENDBRANCH   5   6
ENDBRANCH  11   4
BRANCH  13  16
ATOM     16  C   UNL     1      -4.319   2.194  24.879  0.00  0.00    +0.058 A 
ATOM     17  C   UNL     1      -5.103   1.996  25.041  0.00  0.00    +0.006 A 
ATOM     18  C   UNL     1      -5.608   2.554  25.378  0.00  0.00    +0.021 A 
ATOM     19  C   UNL     1      -5.329   3.311  25.554  0.00  0.00    +0.099 A 
ATOM     20  N   UNL     1      -4.545   3.509  25.393  0.00  0.00    -0.242 NA
ATOM     21  C   UNL     1      -4.040   2.951  25.056  0.00  0.00    +0.102 A 
ENDBRANCH  13  16
TORSDOF 4
ENDMDL
MODEL 3
REMARK VINA RESULT:      -9.6      1.235      4.064
REMARK  Name = 
REMARK  4 active torsions:
REMARK  status: ('A' for Active; 'I' for Inactive)
REMARK    1  A    between atoms: C_4  and  C_11
REMARK    2  A    between atoms: N_5  and  C_6
REMARK    3  A    between atoms: C_6  and  C_7
REMARK    4  A    between atoms: C_13  and  C_16
REMARK                            x       y       z     vdW  Elec       q    Type
REMARK                         _______ _______ _______ _____ _____    ______ ____
ROOT
ATOM     11  C   UNL     1      -3.966   2.606  24.667  0.00  0.00    +0.251 A 
ATOM     12  N   UNL     1      -3.307   2.884  25.078  0.00  0.00    -0.190 NA
ATOM     13  C   UNL     1      -2.867   3.356  24.563  0.00  0.00    +0.205 A 
ATOM     14  N   UNL     1      -3.254   3.369  23.835  0.00  0.00    -0.056 NA
ATOM     15  O   UNL     1      -3.933   2.905  23.900  0.00  0.00    -0.336 OA
ENDROOT
BRANCH  11   4
ATOM      1  O   UNL     1      -6.381   1.679  25.989  0.00  0.00    -0.222 OA
ATOM      2  C   UNL     1      -5.665   1.688  25.579  0.00  0.00    +0.170 C 
ATOM      3  C   UNL     1      -5.231   2.360  25.375  0.00  0.00    +0.060 C 
ATOM      4  C   UNL     1      -4.554   2.114  24.971  0.00  0.00    +0.140 C 
ATOM      5  N   UNL     1      -4.570   1.291  24.925  0.00  0.00    -0.264 NA
ATOM     10  C   UNL     1      -5.256   1.027  25.301  0.00  0.00    +0.106 C 
BRANCH   5   6
ATOM      6  C   UNL     1      -4.001   0.814  24.567  0.00  0.00    +0.073 C 
BRANCH   6   7
ATOM      7  C   UNL     1      -4.060  -0.007  24.615  0.00  0.00    +0.016 C 
ATOM      8  C   UNL     1      -4.304  -0.726  24.291  0.00  0.00    +0.001 C 
ATOM      9  C   UNL     1      -3.920  -0.711  25.020  0.00  0.00    +0.001 C 
ENDBRANCH   6   7
ENDBRANCH   5   6
ENDBRANCH  11   4
BRANCH  13  16
ATOM     16  C   UNL     1      -2.164   3.746  24.746  0.00  0.00    +0.058 A 
ATOM     17  C   UNL     1      -2.183   4.515  25.044  0.00  0.00    +0.006 A 
ATOM     18  C   UNL     1      -1.479   4.905  25.226  0.00  0.00    +0.021 A 
ATOM     19  C   UNL     1      -0.755   4.525  25.110  0.00  0.00    +0.099 A 
ATOM     20  N   UNL     1      -0.736   3.756  24.812  0.00  0.00    -0.242 NA
ATOM     21  C   UNL     1      -1.440   3.367  24.630  0.00  0.00    +0.102 A 
ENDBRANCH  13  16
TORSDOF 4
ENDMDL
MODEL 4
REMARK VINA RESULT:      -9.6      1.541      2.037
REMARK  Name = 
REMARK  4 active torsions:
REMARK  status: ('A' for Active; 'I' for Inactive)
REMARK    1  A    between atoms: C_4  and  C_11
REMARK    2  A    between atoms: N_5  and  C_6
REMARK    3  A    between atoms: C_6  and  C_7
REMARK    4  A    between atoms: C_13  and  C_16
REMARK                            x       y       z     vdW  Elec       q    Type
REMARK                         _______ _______ _______ _____ _____    ______ ____
ROOT
ATOM     11  C   UNL     1      -3.302   0.785  24.478  0.00  0.00    +0.251 A 
ATOM     12  N   UNL     1      -3.559   0.055  24.192  0.00  0.00    -0.190 NA
ATOM     13  C   UNL     1      -3.148  -0.535  24.597  0.00  0.00    +0.205 A 
ATOM     14  N   UNL     1      -2.638  -0.170  25.132  0.00  0.00    -0.056 NA
ATOM     15  O   UNL     1      -2.733   0.646  25.058  0.00  0.00    -0.336 OA
ENDROOT
BRANCH  11   4
ATOM      1  O   UNL     1      -3.584   3.254  22.973  0.00  0.00    -0.222 OA
ATOM      2  C   UNL     1      -3.697   2.659  23.535  0.00  0.00    +0.170 C 
ATOM      3  C   UNL     1      -3.272   1.953  23.586  0.00  0.00    +0.060 C 
ATOM      4  C   UNL     1      -3.567   1.524  24.227  0.00  0.00    +0.140 C 
ATOM      5  N   UNL     1      -4.173   1.965  24.571  0.00  0.00    -0.264 NA
ATOM     10  C   UNL     1      -4.254   2.667  24.144  0.00  0.00    +0.106 C 
BRANCH   5   6
ATOM      6  C   UNL     1      -4.620   1.744  25.228  0.00  0.00    +0.073 C 
BRANCH   6   7
ATOM      7  C   UNL     1      -5.277   2.192  25.450  0.00  0.00    +0.016 C 
ATOM      8  C   UNL     1      -5.599   2.835  25.853  0.00  0.00    +0.001 C 
ATOM      9  C   UNL     1      -6.090   2.324  25.431  0.00  0.00    +0.001 C 
ENDBRANCH   6   7
ENDBRANCH   5   6
ENDBRANCH  11   4
BRANCH  13  16
ATOM     16  C   UNL     1      -3.234  -1.348  24.485  0.00  0.00    +0.058 A 
ATOM     17  C   UNL     1      -3.964  -1.660  24.261  0.00  0.00    +0.006 A 
ATOM     18  C   UNL     1      -4.049  -2.473  24.149  0.00  0.00    +0.021 A 
ATOM     19  C   UNL     1      -3.403  -2.975  24.262  0.00  0.00    +0.099 A 
ATOM     20  N   UNL     1      -2.673  -2.663  24.487  0.00  0.00    -0.242 NA
ATOM     21  C   UNL     1      -2.589  -1.850  24.598  0.00  0.00    +0.102 A 
ENDBRANCH  13  16
TORSDOF 4
ENDMDL
MODEL 5
REMARK VINA RESULT:      -9.5      1.937      2.670
REMARK  Name = 
REMARK  4 active torsions:
REMARK  status: ('A' for Active; 'I' for Inactive)
REMARK    1  A    between atoms: C_4  and  C_11
REMARK    2  A    between atoms: N_5  and  C_6
REMARK    3  A    between atoms: C_6  and  C_7
REMARK    4  A    between atoms: C_13  and  C_16
REMARK                            x       y       z     vdW  Elec       q    Type
REMARK                         _______ _______ _______ _____ _____    ______ ____
ROOT
ATOM     11  C   UNL     1      -1.584   1.297  24.791  0.00  0.00    +0.251 A 
ATOM     12  N   UNL     1      -2.044   0.675  25.082  0.00  0.00    -0.190 NA
ATOM     13  C   UNL     1      -2.377   0.283  24.437  0.00  0.00    +0.205 A 
ATOM     14  N   UNL     1      -2.124   0.661  23.749  0.00  0.00    -0.056 NA
ATOM     15  O   UNL     1      -1.634   1.288  23.969  0.00  0.00    -0.336 OA
ENDROOT
BRANCH  11   4
ATOM      1  O   UNL     1       0.529   2.489  26.388  0.00  0.00    -0.222 OA
ATOM      2  C   UNL     1      -0.180   2.381  25.979  0.00  0.00    +0.170 C 
ATOM      3  C   UNL     1      -0.404   1.700  25.569  0.00  0.00    +0.060 C 
ATOM      4  C   UNL     1      -1.151   1.832  25.245  0.00  0.00    +0.140 C 
ATOM      5  N   UNL     1      -1.389   2.594  25.454  0.00  0.00    -0.264 NA
ATOM     10  C   UNL     1      -0.789   2.933  25.908  0.00  0.00    +0.106 C 
BRANCH   5   6
ATOM      6  C   UNL     1      -2.101   2.954  25.247  0.00  0.00    +0.073 C 
BRANCH   6   7
ATOM      7  C   UNL     1      -2.285   3.704  25.536  0.00  0.00    +0.016 C 
ATOM      8  C   UNL     1      -2.201   4.524  25.499  0.00  0.00    +0.001 C 
ATOM      9  C   UNL     1      -2.685   4.184  26.074  0.00  0.00    +0.001 C 
ENDBRANCH   6   7
ENDBRANCH   5   6
ENDBRANCH  11   4
BRANCH  13  16
ATOM     16  C   UNL     1      -2.876  -0.373  24.475  0.00  0.00    +0.058 A 
ATOM     17  C   UNL     1      -3.671  -0.299  24.269  0.00  0.00    +0.006 A 
ATOM     18  C   UNL     1      -4.170  -0.955  24.307  0.00  0.00    +0.021 A 
ATOM     19  C   UNL     1      -3.873  -1.686  24.550  0.00  0.00    +0.099 A 
ATOM     20  N   UNL     1      -3.077  -1.760  24.756  0.00  0.00    -0.242 NA
ATOM     21  C   UNL     1      -2.579  -1.103  24.718  0.00  0.00    +0.102 A 
ENDBRANCH  13  16
TORSDOF 4
ENDMDL
MODEL 6
REMARK VINA RESULT:      -9.4      1.694      4.724
REMARK  Name = 
REMARK  4 active torsions:
REMARK  status: ('A' for Active; 'I' for Inactive)
REMARK    1  A    between atoms: C_4  and  C_11
REMARK    2  A    between atoms: N_5  and  C_6
REMARK    3  A    between atoms: C_6  and  C_7
REMARK    4  A    between atoms: C_13  and  C_16
REMARK                            x       y       z     vdW  Elec       q    Type
REMARK                         _______ _______ _______ _____ _____    ______ ____
ROOT
ATOM     11  C   UNL     1      -2.142   0.722  24.473  0.00  0.00    +0.251 A 
ATOM     12  N   UNL     1      -2.381   1.274  25.039  0.00  0.00    -0.190 NA
ATOM     13  C   UNL     1      -2.679   1.932  24.641  0.00  0.00    +0.205 A 
ATOM     14  N   UNL     1      -2.624   1.788  23.830  0.00  0.00    -0.056 NA
ATOM     15  O   UNL     1      -2.292   1.040  23.727  0.00  0.00    -0.336 OA
ENDROOT
BRANCH  11   4
ATOM      1  O   UNL     1      -0.216  -1.381  25.029  0.00  0.00    -0.222 OA
ATOM      2  C   UNL     1      -0.926  -0.984  24.883  0.00  0.00    +0.170 C 
ATOM      3  C   UNL     1      -1.009  -0.174  24.747  0.00  0.00    +0.060 C 
ATOM      4  C   UNL     1      -1.810  -0.017  24.627  0.00  0.00    +0.140 C 
ATOM      5  N   UNL     1      -2.222  -0.729  24.689  0.00  0.00    -0.264 NA
ATOM     10  C   UNL     1      -1.675  -1.327  24.847  0.00  0.00    +0.106 C 
BRANCH   5   6
ATOM      6  C   UNL     1      -3.036  -0.828  24.607  0.00  0.00    +0.073 C 
BRANCH   6   7
ATOM      7  C   UNL     1      -3.366  -1.584  24.633  0.00  0.00    +0.016 C 
ATOM      8  C   UNL     1      -3.707  -2.227  24.246  0.00  0.00    +0.001 C 
ATOM      9  C   UNL     1      -3.595  -2.248  25.063  0.00  0.00    +0.001 C 
ENDBRANCH   6   7
ENDBRANCH   5   6
ENDBRANCH  11   4
BRANCH  13  16
ATOM     16  C   UNL     1      -2.979   2.615  24.993  0.00  0.00    +0.058 A 
ATOM     17  C   UNL     1      -2.466   3.163  25.336  0.00  0.00    +0.006 A 
ATOM     18  C   UNL     1      -2.767   3.846  25.688  0.00  0.00    +0.021 A 
ATOM     19  C   UNL     1      -3.581   3.981  25.696  0.00  0.00    +0.099 A 
ATOM     20  N   UNL     1      -4.094   3.434  25.352  0.00  0.00    -0.242 NA
ATOM     21  C   UNL     1      -3.793   2.751  25.001  0.00  0.00    +0.102 A 
ENDBRANCH  13  16
TORSDOF 4
ENDMDL
MODEL 7
REMARK VINA RESULT:      -9.2      2.304      4.024
REMARK  Name = 
REMARK  4 active torsions:
REMARK  status: ('A' for Active; 'I' for Inactive)
REMARK    1  A    between atoms: C_4  and  C_11
REMARK    2  A    between atoms: N_5  and  C_6
REMARK    3  A    between atoms: C_6  and  C_7
REMARK    4  A    between atoms: C_13  and  C_16
REMARK                            x       y       z     vdW  Elec       q    Type
REMARK                         _______ _______ _______ _____ _____    ______ ____
ROOT
ATOM     11  C   UNL     1      -2.148   2.384  24.844  0.00  0.00    +0.251 A 
ATOM     12  N   UNL     1      -2.849   2.305  25.272  0.00  0.00    -0.190 NA
ATOM     13  C   UNL     1      -3.470   2.553  24.789  0.00  0.00    +0.205 A 
ATOM     14  N   UNL     1      -3.153   2.785  24.064  0.00  0.00    -0.056 NA
ATOM     15  O   UNL     1      -2.336   2.680  24.099  0.00  0.00    -0.336 OA
ENDROOT
BRANCH  11   4
ATOM      1  O   UNL     1       0.456   2.581  26.118  0.00  0.00    -0.222 OA
ATOM      2  C   UNL     1      -0.194   2.289  25.701  0.00  0.00    +0.170 C 
ATOM      3  C   UNL     1      -0.895   2.697  25.546  0.00  0.00    +0.060 C 
ATOM      4  C   UNL     1      -1.391   2.198  25.116  0.00  0.00    +0.140 C 
ATOM      5  N   UNL     1      -0.999   1.482  25.005  0.00  0.00    -0.264 NA
ATOM     10  C   UNL     1      -0.259   1.537  25.367  0.00  0.00    +0.106 C 
BRANCH   5   6
ATOM      6  C   UNL     1      -1.293   0.824  24.604  0.00  0.00    +0.073 C 
BRANCH   6   7
ATOM      7  C   UNL     1      -0.871   0.115  24.607  0.00  0.00    +0.016 C 
ATOM      8  C   UNL     1      -0.312  -0.385  24.264  0.00  0.00    +0.001 C 
ATOM      9  C   UNL     1      -0.700  -0.612  24.956  0.00  0.00    +0.001 C 
ENDBRANCH   6   7
ENDBRANCH   5   6
ENDBRANCH  11   4
BRANCH  13  16
ATOM     16  C   UNL     1      -4.269   2.567  24.996  0.00  0.00    +0.058 A 
ATOM     17  C   UNL     1      -4.756   1.928  24.806  0.00  0.00    +0.006 A 
ATOM     18  C   UNL     1      -5.554   1.943  25.014  0.00  0.00    +0.021 A 
ATOM     19  C   UNL     1      -5.866   2.596  25.411  0.00  0.00    +0.099 A 
ATOM     20  N   UNL     1      -5.379   3.234  25.601  0.00  0.00    -0.242 NA
ATOM     21  C   UNL     1      -4.581   3.219  25.394  0.00  0.00    +0.102 A 
ENDBRANCH  13  16
TORSDOF 4
ENDMDL
