REMARK  Name = 
REMARK  6 active torsions:
REMARK  status: ('A' for Active; 'I' for Inactive)
REMARK    1  A    between atoms: C_3  and  N_17
REMARK    2  A    between atoms: C_6  and  C_7
REMARK    3  A    between atoms: C_7  and  N_8
REMARK    4  A    between atoms: C_9  and  C_11
REMARK    5  A    between atoms: N_17  and  C_18
REMARK    6  A    between atoms: C_18  and  C_19
REMARK                            x       y       z     vdW  Elec       q    Type
REMARK                         _______ _______ _______ _____ _____    ______ ____
ROOT
ATOM      1  O   UNL     1       1.429  -1.650   0.000  0.00  0.00    -0.219 OA
ATOM      2  C   UNL     1       1.429  -2.475   0.000  0.00  0.00    +0.199 C 
ATOM      3  C   UNL     1       2.096  -2.960   0.000  0.00  0.00    +0.135 C 
ATOM      4  C   UNL     1       1.841  -3.744   0.000  0.00  0.00    +0.162 C 
ATOM      5  O   UNL     1       1.016  -3.744   0.000  0.00  0.00    -0.350 OA
ATOM      6  C   UNL     1       0.761  -2.960   0.000  0.00  0.00    +0.169 C 
ENDROOT
BRANCH   6   7
ATOM      7  C   UNL     1      -0.023  -2.705   0.000  0.00  0.00    +0.148 C 
BRANCH   7   8
ATOM      8  N   UNL     1      -0.636  -3.257   0.000  0.00  0.00    -0.199 NA
ATOM      9  C   UNL     1      -1.421  -3.002   0.000  0.00  0.00    +0.265 C 
ATOM     10  O   UNL     1      -1.592  -2.195   0.000  0.00  0.00    -0.268 OA
BRANCH   9  11
ATOM     11  C   UNL     1      -2.034  -3.554   0.000  0.00  0.00    +0.055 A 
ATOM     12  C   UNL     1      -1.862  -4.361   0.000  0.00  0.00    +0.005 A 
ATOM     13  C   UNL     1      -2.475  -4.913   0.000  0.00  0.00    +0.000 A 
ATOM     14  C   UNL     1      -3.260  -4.658   0.000  0.00  0.00    +0.000 A 
ATOM     15  C   UNL     1      -3.432  -3.851   0.000  0.00  0.00    +0.000 A 
ATOM     16  C   UNL     1      -2.819  -3.299   0.000  0.00  0.00    +0.005 A 
ENDBRANCH   9  11
ENDBRANCH   7   8
ENDBRANCH   6   7
BRANCH   3  17
ATOM     17  N   UNL     1       2.881  -2.705   0.000  0.00  0.00    -0.209 NA
BRANCH  17  18
ATOM     18  C   UNL     1       3.053  -1.898   0.000  0.00  0.00    +0.117 C 
BRANCH  18  19
ATOM     19  C   UNL     1       3.837  -1.643   0.000  0.00  0.00    +0.023 A 
ATOM     20  C   UNL     1       4.009  -0.836   0.000  0.00  0.00    -0.001 A 
ATOM     21  C   UNL     1       4.793  -0.581   0.000  0.00  0.00    -0.000 A 
ATOM     22  C   UNL     1       5.406  -1.133   0.000  0.00  0.00    +0.002 A 
ATOM     23  C   UNL     1       5.235  -1.940   0.000  0.00  0.00    +0.029 A 
ATOM     24  C   UNL     1       4.450  -2.195   0.000  0.00  0.00    +0.137 A 
ATOM     25  F   UNL     1       4.279  -3.002   0.000  0.00  0.00    -0.204 F 
ENDBRANCH  18  19
ENDBRANCH  17  18
ENDBRANCH   3  17
TORSDOF 6
