MODEL 1
REMARK VINA RESULT:      -7.2      0.000      0.000
REMARK  Name = 
REMARK  7 active torsions:
REMARK  status: ('A' for Active; 'I' for Inactive)
REMARK    1  A    between atoms: O_2  and  C_3
REMARK    2  A    between atoms: C_5  and  O_6
REMARK    3  A    between atoms: C_9  and  N_10
REMARK    4  A    between atoms: N_13  and  C_14
REMARK    5  A    between atoms: C_18  and  N_22
REMARK    6  A    between atoms: C_25  and  C_29
REMARK    7  A    between atoms: C_32  and  N_35
REMARK                            x       y       z     vdW  Elec       q    Type
REMARK                         _______ _______ _______ _____ _____    ______ ____
ROOT
ATOM     14  C   UNL     1      -2.050   1.838  23.694  0.00  0.00    +0.156 C 
ATOM     15  C   UNL     1      -1.588   2.490  23.898  0.00  0.00    +0.166 C 
ATOM     16  O   UNL     1      -0.808   2.236  23.975  0.00  0.00    -0.350 OA
ATOM     17  C   UNL     1      -0.787   1.427  23.820  0.00  0.00    +0.166 C 
ATOM     18  C   UNL     1      -0.292   0.768  23.771  0.00  0.00    +0.154 C 
ATOM     19  C   UNL     1      -0.753   0.116  23.568  0.00  0.00    +0.166 C 
ATOM     20  O   UNL     1      -1.534   0.370  23.490  0.00  0.00    -0.350 OA
ATOM     21  C   UNL     1      -1.555   1.181  23.646  0.00  0.00    +0.166 C 
ENDROOT
BRANCH  18  22
ATOM     22  N   UNL     1       0.523   0.764  23.904  0.00  0.00    -0.200 NA
ATOM     23  C   UNL     1       1.031   0.444  23.338  0.00  0.00    +0.237 A 
ATOM     24  N   UNL     1       1.845   0.439  23.470  0.00  0.00    -0.212 NA
ATOM     25  C   UNL     1       2.353   0.119  22.904  0.00  0.00    +0.086 A 
ATOM     26  C   UNL     1       2.047  -0.196  22.206  0.00  0.00    +0.040 A 
ATOM     27  C   UNL     1       1.232  -0.192  22.074  0.00  0.00    +0.103 A 
ATOM     28  N   UNL     1       0.725   0.128  22.640  0.00  0.00    -0.211 NA
BRANCH  25  29
ATOM     29  C   UNL     1       3.167   0.114  23.036  0.00  0.00    +0.018 A 
ATOM     30  C   UNL     1       3.623   0.772  22.828  0.00  0.00    +0.003 A 
ATOM     31  C   UNL     1       4.437   0.767  22.959  0.00  0.00    +0.015 A 
ATOM     32  C   UNL     1       4.796   0.107  23.299  0.00  0.00    +0.048 A 
ATOM     33  C   UNL     1       4.341  -0.549  23.507  0.00  0.00    +0.015 A 
ATOM     34  C   UNL     1       3.527  -0.545  23.375  0.00  0.00    +0.003 A 
BRANCH  32  35
ATOM     35  N   UNL     1       5.610   0.102  23.431  0.00  0.00    -0.304 N 
ATOM     36  C   UNL     1       5.918   0.434  24.120  0.00  0.00    +0.112 C 
ATOM     37  C   UNL     1       6.117  -0.235  22.874  0.00  0.00    +0.112 C 
ENDBRANCH  32  35
ENDBRANCH  25  29
ENDBRANCH  18  22
BRANCH  14  13
ATOM     10  N   UNL     1      -4.192   2.101  24.024  0.00  0.00    -0.161 NA
ATOM     11  C   UNL     1      -3.378   2.096  24.156  0.00  0.00    +0.344 C 
ATOM     12  O   UNL     1      -3.076   2.345  24.883  0.00  0.00    -0.249 OA
ATOM     13  N   UNL     1      -2.865   1.842  23.562  0.00  0.00    -0.184 NA
BRANCH  10   9
ATOM      3  C   UNL     1      -5.227   3.400  25.440  0.00  0.00    +0.143 A 
ATOM      4  C   UNL     1      -5.732   2.860  25.806  0.00  0.00    +0.074 A 
ATOM      5  C   UNL     1      -5.723   2.067  25.579  0.00  0.00    +0.143 A 
ATOM      8  C   UNL     1      -5.210   1.814  24.985  0.00  0.00    +0.054 A 
ATOM      9  C   UNL     1      -4.705   2.354  24.618  0.00  0.00    +0.081 A 
ATOM     38  C   UNL     1      -4.714   3.147  24.846  0.00  0.00    +0.054 A 
BRANCH   3   2
ATOM      1  C   UNL     1      -5.861   4.681  25.439  0.00  0.00    +0.252 C 
ATOM      2  O   UNL     1      -5.236   4.193  25.667  0.00  0.00    -0.471 OA
ENDBRANCH   3   2
BRANCH   5   6
ATOM      6  O   UNL     1      -6.228   1.527  25.946  0.00  0.00    -0.471 OA
ATOM      7  C   UNL     1      -6.291   1.514  26.769  0.00  0.00    +0.252 C 
ENDBRANCH   5   6
ENDBRANCH  10   9
ENDBRANCH  14  13
TORSDOF 7
ENDMDL
MODEL 2
REMARK VINA RESULT:      -4.7      1.951      8.242
REMARK  Name = 
REMARK  7 active torsions:
REMARK  status: ('A' for Active; 'I' for Inactive)
REMARK    1  A    between atoms: O_2  and  C_3
REMARK    2  A    between atoms: C_5  and  O_6
REMARK    3  A    between atoms: C_9  and  N_10
REMARK    4  A    between atoms: N_13  and  C_14
REMARK    5  A    between atoms: C_18  and  N_22
REMARK    6  A    between atoms: C_25  and  C_29
REMARK    7  A    between atoms: C_32  and  N_35
REMARK                            x       y       z     vdW  Elec       q    Type
REMARK                         _______ _______ _______ _____ _____    ______ ____
ROOT
ATOM     14  C   UNL     1       1.274   0.825  23.215  0.00  0.00    +0.156 C 
ATOM     15  C   UNL     1       1.286   1.540  23.626  0.00  0.00    +0.166 C 
ATOM     16  O   UNL     1       0.549   1.643  23.980  0.00  0.00    -0.350 OA
ATOM     17  C   UNL     1       0.080   0.993  23.788  0.00  0.00    +0.166 C 
ATOM     18  C   UNL     1      -0.666   0.653  23.886  0.00  0.00    +0.154 C 
ATOM     19  C   UNL     1      -0.678  -0.061  23.475  0.00  0.00    +0.166 C 
ATOM     20  O   UNL     1       0.060  -0.164  23.121  0.00  0.00    -0.350 OA
ATOM     21  C   UNL     1       0.528   0.487  23.314  0.00  0.00    +0.166 C 
ENDROOT
BRANCH  18  22
ATOM     22  N   UNL     1      -1.290   0.973  24.322  0.00  0.00    -0.200 NA
ATOM     23  C   UNL     1      -1.955   1.269  23.933  0.00  0.00    +0.237 A 
ATOM     24  N   UNL     1      -2.578   1.589  24.368  0.00  0.00    -0.212 NA
ATOM     25  C   UNL     1      -3.244   1.884  23.979  0.00  0.00    +0.086 A 
ATOM     26  C   UNL     1      -3.285   1.860  23.156  0.00  0.00    +0.040 A 
ATOM     27  C   UNL     1      -2.661   1.540  22.721  0.00  0.00    +0.103 A 
ATOM     28  N   UNL     1      -1.996   1.244  23.110  0.00  0.00    -0.211 NA
BRANCH  25  29
ATOM     29  C   UNL     1      -3.867   2.204  24.414  0.00  0.00    +0.018 A 
ATOM     30  C   UNL     1      -3.861   3.006  24.616  0.00  0.00    +0.003 A 
ATOM     31  C   UNL     1      -4.485   3.325  25.050  0.00  0.00    +0.015 A 
ATOM     32  C   UNL     1      -5.114   2.846  25.284  0.00  0.00    +0.048 A 
ATOM     33  C   UNL     1      -5.120   2.046  25.082  0.00  0.00    +0.015 A 
ATOM     34  C   UNL     1      -4.496   1.725  24.647  0.00  0.00    +0.003 A 
BRANCH  32  35
ATOM     35  N   UNL     1      -5.738   3.166  25.718  0.00  0.00    -0.304 N 
ATOM     36  C   UNL     1      -6.215   2.674  26.178  0.00  0.00    +0.112 C 
ATOM     37  C   UNL     1      -5.885   3.977  25.693  0.00  0.00    +0.112 C 
ENDBRANCH  32  35
ENDBRANCH  25  29
ENDBRANCH  18  22
BRANCH  14  13
ATOM     10  N   UNL     1       3.249   0.046  22.708  0.00  0.00    -0.161 NA
ATOM     11  C   UNL     1       2.625   0.366  23.142  0.00  0.00    +0.344 C 
ATOM     12  O   UNL     1       2.729   0.547  23.941  0.00  0.00    -0.249 OA
ATOM     13  N   UNL     1       1.898   0.505  22.779  0.00  0.00    -0.184 NA
BRANCH  10   9
ATOM      3  C   UNL     1       4.852  -0.957  23.799  0.00  0.00    +0.143 A 
ATOM      4  C   UNL     1       5.432  -0.372  23.797  0.00  0.00    +0.074 A 
ATOM      5  C   UNL     1       5.285   0.354  23.431  0.00  0.00    +0.143 A 
ATOM      8  C   UNL     1       4.557   0.492  23.069  0.00  0.00    +0.054 A 
ATOM      9  C   UNL     1       3.977  -0.093  23.071  0.00  0.00    +0.081 A 
ATOM     38  C   UNL     1       4.124  -0.818  23.436  0.00  0.00    +0.054 A 
BRANCH   3   2
ATOM      1  C   UNL     1       4.728  -2.381  23.818  0.00  0.00    +0.252 C 
ATOM      2  O   UNL     1       4.999  -1.682  24.163  0.00  0.00    -0.471 OA
ENDBRANCH   3   2
BRANCH   5   6
ATOM      6  O   UNL     1       5.866   0.940  23.429  0.00  0.00    -0.471 OA
ATOM      7  C   UNL     1       6.178   1.214  24.142  0.00  0.00    +0.252 C 
ENDBRANCH   5   6
ENDBRANCH  10   9
ENDBRANCH  14  13
TORSDOF 7
ENDMDL
MODEL 3
REMARK VINA RESULT:      -4.5     16.578     17.814
REMARK  Name = 
REMARK  7 active torsions:
REMARK  status: ('A' for Active; 'I' for Inactive)
REMARK    1  A    between atoms: O_2  and  C_3
REMARK    2  A    between atoms: C_5  and  O_6
REMARK    3  A    between atoms: C_9  and  N_10
REMARK    4  A    between atoms: N_13  and  C_14
REMARK    5  A    between atoms: C_18  and  N_22
REMARK    6  A    between atoms: C_25  and  C_29
REMARK    7  A    between atoms: C_32  and  N_35
REMARK                            x       y       z     vdW  Elec       q    Type
REMARK                         _______ _______ _______ _____ _____    ______ ____
ROOT
ATOM     14  C   UNL     1      -6.215  -9.198   9.220  0.00  0.00    +0.156 C 
ATOM     15  C   UNL     1      -6.099  -8.391   9.343  0.00  0.00    +0.166 C 
ATOM     16  O   UNL     1      -5.299  -8.271   9.503  0.00  0.00    -0.350 OA
ATOM     17  C   UNL     1      -4.921  -9.003   9.478  0.00  0.00    +0.166 C 
ATOM     18  C   UNL     1      -4.193  -9.382   9.562  0.00  0.00    +0.154 C 
ATOM     19  C   UNL     1      -4.309 -10.189   9.438  0.00  0.00    +0.166 C 
ATOM     20  O   UNL     1      -5.109 -10.309   9.278  0.00  0.00    -0.350 OA
ATOM     21  C   UNL     1      -5.488  -9.576   9.303  0.00  0.00    +0.166 C 
ENDROOT
BRANCH  18  22
ATOM     22  N   UNL     1      -3.474  -9.017   9.738  0.00  0.00    -0.200 NA
ATOM     23  C   UNL     1      -2.975  -9.342  10.309  0.00  0.00    +0.237 A 
ATOM     24  N   UNL     1      -2.257  -8.977  10.486  0.00  0.00    -0.212 NA
ATOM     25  C   UNL     1      -1.758  -9.302  11.057  0.00  0.00    +0.086 A 
ATOM     26  C   UNL     1      -1.978  -9.993  11.451  0.00  0.00    +0.040 A 
ATOM     27  C   UNL     1      -2.697 -10.358  11.275  0.00  0.00    +0.103 A 
ATOM     28  N   UNL     1      -3.195 -10.032  10.704  0.00  0.00    -0.211 NA
BRANCH  25  29
ATOM     29  C   UNL     1      -1.040  -8.938  11.233  0.00  0.00    +0.018 A 
ATOM     30  C   UNL     1      -0.966  -8.479  11.916  0.00  0.00    +0.003 A 
ATOM     31  C   UNL     1      -0.248  -8.115  12.093  0.00  0.00    +0.015 A 
ATOM     32  C   UNL     1       0.397  -8.208  11.587  0.00  0.00    +0.048 A 
ATOM     33  C   UNL     1       0.324  -8.666  10.905  0.00  0.00    +0.015 A 
ATOM     34  C   UNL     1      -0.395  -9.031  10.728  0.00  0.00    +0.003 A 
BRANCH  32  35
ATOM     35  N   UNL     1       1.116  -7.843  11.763  0.00  0.00    -0.304 N 
ATOM     36  C   UNL     1       1.778  -7.988  11.293  0.00  0.00    +0.112 C 
ATOM     37  C   UNL     1       1.173  -7.334  12.410  0.00  0.00    +0.112 C 
ENDBRANCH  32  35
ENDBRANCH  25  29
ENDBRANCH  18  22
BRANCH  14  13
ATOM     10  N   UNL     1      -8.353  -9.639   9.194  0.00  0.00    -0.161 NA
ATOM     11  C   UNL     1      -7.635  -9.275   9.370  0.00  0.00    +0.344 C 
ATOM     12  O   UNL     1      -7.616  -8.621   9.874  0.00  0.00    -0.249 OA
ATOM     13  N   UNL     1      -6.934  -9.563   9.043  0.00  0.00    -0.184 NA
BRANCH  10   9
ATOM      3  C   UNL     1     -10.004  -9.327  10.588  0.00  0.00    +0.143 A 
ATOM      4  C   UNL     1     -10.455  -8.774  10.174  0.00  0.00    +0.074 A 
ATOM      5  C   UNL     1     -10.205  -8.509   9.433  0.00  0.00    +0.143 A 
ATOM      8  C   UNL     1      -9.505  -8.798   9.107  0.00  0.00    +0.054 A 
ATOM      9  C   UNL     1      -9.054  -9.351   9.521  0.00  0.00    +0.081 A 
ATOM     38  C   UNL     1      -9.304  -9.615  10.261  0.00  0.00    +0.054 A 
BRANCH   3   2
ATOM      1  C   UNL     1     -10.568 -10.349  11.412  0.00  0.00    +0.252 C 
ATOM      2  O   UNL     1     -10.254  -9.590  11.328  0.00  0.00    -0.471 OA
ENDBRANCH   3   2
BRANCH   5   6
ATOM      6  O   UNL     1     -10.656  -7.956   9.019  0.00  0.00    -0.471 OA
ATOM      7  C   UNL     1     -10.606  -7.155   9.211  0.00  0.00    +0.252 C 
ENDBRANCH   5   6
ENDBRANCH  10   9
ENDBRANCH  14  13
TORSDOF 7
ENDMDL
