MODEL 1
REMARK VINA RESULT:     -10.0      0.000      0.000
REMARK  Name = 
REMARK  7 active torsions:
REMARK  status: ('A' for Active; 'I' for Inactive)
REMARK    1  A    between atoms: O_2  and  C_3
REMARK    2  A    between atoms: C_6  and  S_9
REMARK    3  A    between atoms: S_9  and  N_12
REMARK    4  A    between atoms: N_12  and  C_13
REMARK    5  A    between atoms: C_13  and  C_14
REMARK    6  A    between atoms: C_16  and  C_17
REMARK    7  A    between atoms: C_21  and  N_22
REMARK                            x       y       z     vdW  Elec       q    Type
REMARK                         _______ _______ _______ _____ _____    ______ ____
ROOT
ATOM     14  C   UNL     1      -4.088   2.271  24.943  0.00  0.00    +0.152 C 
ATOM     15  O   UNL     1      -4.472   2.973  25.147  0.00  0.00    -0.350 OA
ATOM     16  C   UNL     1      -5.222   2.780  25.432  0.00  0.00    +0.180 C 
ATOM     19  C   UNL     1      -5.302   1.959  25.403  0.00  0.00    +0.198 C 
ATOM     20  O   UNL     1      -5.966   1.529  25.636  0.00  0.00    -0.219 OA
ATOM     21  C   UNL     1      -4.602   1.645  25.102  0.00  0.00    +0.120 C 
ENDROOT
BRANCH  21  22
ATOM     22  N   UNL     1      -4.443   0.844  24.979  0.00  0.00    -0.267 NA
ATOM     23  C   UNL     1      -4.121   0.390  25.589  0.00  0.00    +0.094 C 
ATOM     24  C   UNL     1      -3.963  -0.410  25.467  0.00  0.00    +0.109 C 
ATOM     25  N   UNL     1      -4.124  -0.756  24.736  0.00  0.00    -0.290 N 
ATOM     26  C   UNL     1      -4.445  -0.302  24.127  0.00  0.00    +0.109 C 
ATOM     27  C   UNL     1      -4.605   0.499  24.248  0.00  0.00    +0.094 C 
ATOM     28  C   UNL     1      -3.965  -1.556  24.613  0.00  0.00    +0.132 A 
ATOM     29  N   UNL     1      -3.644  -2.010  25.222  0.00  0.00    -0.229 NA
ATOM     30  C   UNL     1      -3.485  -2.811  25.100  0.00  0.00    +0.100 A 
ATOM     31  C   UNL     1      -3.647  -3.157  24.369  0.00  0.00    +0.021 A 
ATOM     32  C   UNL     1      -3.968  -2.702  23.760  0.00  0.00    +0.004 A 
ATOM     33  C   UNL     1      -4.127  -1.902  23.882  0.00  0.00    +0.034 A 
ENDBRANCH  21  22
BRANCH  16  17
ATOM     17  C   UNL     1      -5.791   3.314  25.698  0.00  0.00    +0.214 C 
ATOM     18  O   UNL     1      -5.633   4.124  25.686  0.00  0.00    -0.218 OA
ENDBRANCH  16  17
BRANCH  14  13
ATOM     13  C   UNL     1      -3.327   2.207  24.636  0.00  0.00    +0.146 C 
BRANCH  13  12
ATOM     12  N   UNL     1      -2.758   2.776  24.819  0.00  0.00    -0.075 NA
BRANCH  12   9
ATOM      9  S   UNL     1      -1.960   2.623  24.677  0.00  0.00    +0.077 S 
ATOM     10  O   UNL     1      -1.811   2.644  25.488  0.00  0.00    -0.152 OA
ATOM     11  O   UNL     1      -2.108   2.601  23.866  0.00  0.00    -0.152 OA
BRANCH   9   6
ATOM      3  C   UNL     1       0.435   2.163  24.250  0.00  0.00    +0.139 A 
ATOM      4  C   UNL     1       0.158   2.940  24.255  0.00  0.00    +0.038 A 
ATOM      5  C   UNL     1      -0.639   3.093  24.397  0.00  0.00    +0.023 A 
ATOM      6  C   UNL     1      -1.162   2.469  24.535  0.00  0.00    +0.124 A 
ATOM      7  C   UNL     1      -0.885   1.692  24.530  0.00  0.00    +0.023 A 
ATOM      8  C   UNL     1      -0.088   1.539  24.388  0.00  0.00    +0.038 A 
BRANCH   3   2
ATOM      1  C   UNL     1       1.453   1.352  23.663  0.00  0.00    +0.252 C 
ATOM      2  O   UNL     1       1.233   2.010  24.108  0.00  0.00    -0.471 OA
ENDBRANCH   3   2
ENDBRANCH   9   6
ENDBRANCH  12   9
ENDBRANCH  13  12
ENDBRANCH  14  13
TORSDOF 7
ENDMDL
MODEL 2
REMARK VINA RESULT:      -9.1      1.978      4.446
REMARK  Name = 
REMARK  7 active torsions:
REMARK  status: ('A' for Active; 'I' for Inactive)
REMARK    1  A    between atoms: O_2  and  C_3
REMARK    2  A    between atoms: C_6  and  S_9
REMARK    3  A    between atoms: S_9  and  N_12
REMARK    4  A    between atoms: N_12  and  C_13
REMARK    5  A    between atoms: C_13  and  C_14
REMARK    6  A    between atoms: C_16  and  C_17
REMARK    7  A    between atoms: C_21  and  N_22
REMARK                            x       y       z     vdW  Elec       q    Type
REMARK                         _______ _______ _______ _____ _____    ______ ____
ROOT
ATOM     14  C   UNL     1      -4.780   1.397  24.947  0.00  0.00    +0.152 C 
ATOM     15  O   UNL     1      -5.593   1.271  25.009  0.00  0.00    -0.350 OA
ATOM     16  C   UNL     1      -5.961   2.007  25.072  0.00  0.00    +0.180 C 
ATOM     19  C   UNL     1      -5.376   2.588  25.048  0.00  0.00    +0.198 C 
ATOM     20  O   UNL     1      -5.498   3.402  25.093  0.00  0.00    -0.219 OA
ATOM     21  C   UNL     1      -4.645   2.211  24.971  0.00  0.00    +0.120 C 
ENDROOT
BRANCH  21  22
ATOM     22  N   UNL     1      -3.910   2.583  24.925  0.00  0.00    -0.267 NA
ATOM     23  C   UNL     1      -3.530   2.658  24.196  0.00  0.00    +0.094 C 
ATOM     24  C   UNL     1      -2.796   3.029  24.151  0.00  0.00    +0.109 C 
ATOM     25  N   UNL     1      -2.440   3.325  24.834  0.00  0.00    -0.290 N 
ATOM     26  C   UNL     1      -2.820   3.250  25.563  0.00  0.00    +0.109 C 
ATOM     27  C   UNL     1      -3.555   2.878  25.609  0.00  0.00    +0.094 C 
ATOM     28  C   UNL     1      -1.705   3.697  24.790  0.00  0.00    +0.132 A 
ATOM     29  N   UNL     1      -1.325   3.772  24.061  0.00  0.00    -0.229 NA
ATOM     30  C   UNL     1      -0.590   4.144  24.016  0.00  0.00    +0.100 A 
ATOM     31  C   UNL     1      -0.234   4.440  24.699  0.00  0.00    +0.021 A 
ATOM     32  C   UNL     1      -0.614   4.365  25.427  0.00  0.00    +0.004 A 
ATOM     33  C   UNL     1      -1.349   3.993  25.473  0.00  0.00    +0.034 A 
ENDBRANCH  21  22
BRANCH  16  17
ATOM     17  C   UNL     1      -6.772   2.139  25.145  0.00  0.00    +0.214 C 
ATOM     18  O   UNL     1      -7.302   1.719  24.672  0.00  0.00    -0.218 OA
ENDBRANCH  16  17
BRANCH  14  13
ATOM     13  C   UNL     1      -4.204   0.813  24.874  0.00  0.00    +0.146 C 
BRANCH  13  12
ATOM     12  N   UNL     1      -4.418   0.016  24.893  0.00  0.00    -0.075 NA
BRANCH  12   9
ATOM      9  S   UNL     1      -3.840  -0.569  24.828  0.00  0.00    +0.077 S 
ATOM     10  O   UNL     1      -3.933  -0.569  24.008  0.00  0.00    -0.152 OA
ATOM     11  O   UNL     1      -3.747  -0.569  25.647  0.00  0.00    -0.152 OA
BRANCH   9   6
ATOM      3  C   UNL     1      -2.106  -2.324  24.631  0.00  0.00    +0.139 A 
ATOM      4  C   UNL     1      -1.886  -1.533  24.714  0.00  0.00    +0.038 A 
ATOM      5  C   UNL     1      -2.463  -0.949  24.779  0.00  0.00    +0.023 A 
ATOM      6  C   UNL     1      -3.262  -1.154  24.762  0.00  0.00    +0.124 A 
ATOM      7  C   UNL     1      -3.482  -1.944  24.679  0.00  0.00    +0.023 A 
ATOM      8  C   UNL     1      -2.905  -2.529  24.614  0.00  0.00    +0.038 A 
BRANCH   3   2
ATOM      1  C   UNL     1      -0.762  -2.763  24.833  0.00  0.00    +0.252 C 
ATOM      2  O   UNL     1      -1.528  -2.909  24.565  0.00  0.00    -0.471 OA
ENDBRANCH   3   2
ENDBRANCH   9   6
ENDBRANCH  12   9
ENDBRANCH  13  12
ENDBRANCH  14  13
TORSDOF 7
ENDMDL
MODEL 3
REMARK VINA RESULT:      -9.0      2.370      3.952
REMARK  Name = 
REMARK  7 active torsions:
REMARK  status: ('A' for Active; 'I' for Inactive)
REMARK    1  A    between atoms: O_2  and  C_3
REMARK    2  A    between atoms: C_6  and  S_9
REMARK    3  A    between atoms: S_9  and  N_12
REMARK    4  A    between atoms: N_12  and  C_13
REMARK    5  A    between atoms: C_13  and  C_14
REMARK    6  A    between atoms: C_16  and  C_17
REMARK    7  A    between atoms: C_21  and  N_22
REMARK                            x       y       z     vdW  Elec       q    Type
REMARK                         _______ _______ _______ _____ _____    ______ ____
ROOT
ATOM     14  C   UNL     1      -1.432   3.265  25.201  0.00  0.00    +0.152 C 
ATOM     15  O   UNL     1      -0.791   3.776  25.110  0.00  0.00    -0.350 OA
ATOM     16  C   UNL     1      -1.086   4.541  25.019  0.00  0.00    +0.180 C 
ATOM     19  C   UNL     1      -1.910   4.503  25.053  0.00  0.00    +0.198 C 
ATOM     20  O   UNL     1      -2.428   5.141  24.987  0.00  0.00    -0.219 OA
ATOM     21  C   UNL     1      -2.124   3.714  25.166  0.00  0.00    +0.120 C 
ENDROOT
BRANCH  21  22
ATOM     22  N   UNL     1      -2.894   3.425  25.233  0.00  0.00    -0.267 NA
ATOM     23  C   UNL     1      -3.288   3.464  25.957  0.00  0.00    +0.094 C 
ATOM     24  C   UNL     1      -4.057   3.176  26.023  0.00  0.00    +0.109 C 
ATOM     25  N   UNL     1      -4.433   2.847  25.366  0.00  0.00    -0.290 N 
ATOM     26  C   UNL     1      -4.039   2.808  24.642  0.00  0.00    +0.109 C 
ATOM     27  C   UNL     1      -3.269   3.097  24.575  0.00  0.00    +0.094 C 
ATOM     28  C   UNL     1      -5.203   2.559  25.432  0.00  0.00    +0.132 A 
ATOM     29  N   UNL     1      -5.597   2.598  26.155  0.00  0.00    -0.229 NA
ATOM     30  C   UNL     1      -6.367   2.309  26.222  0.00  0.00    +0.100 A 
ATOM     31  C   UNL     1      -6.743   1.981  25.565  0.00  0.00    +0.021 A 
ATOM     32  C   UNL     1      -6.349   1.941  24.841  0.00  0.00    +0.004 A 
ATOM     33  C   UNL     1      -5.579   2.230  24.775  0.00  0.00    +0.034 A 
ENDBRANCH  21  22
BRANCH  16  17
ATOM     17  C   UNL     1      -0.637   5.224  24.911  0.00  0.00    +0.214 C 
ATOM     18  O   UNL     1      -0.078   5.259  24.305  0.00  0.00    -0.218 OA
ENDBRANCH  16  17
BRANCH  14  13
ATOM     13  C   UNL     1      -1.389   2.449  25.309  0.00  0.00    +0.146 C 
BRANCH  13  12
ATOM     12  N   UNL     1      -0.707   2.039  25.093  0.00  0.00    -0.075 NA
BRANCH  12   9
ATOM      9  S   UNL     1      -0.716   1.215  25.051  0.00  0.00    +0.077 S 
ATOM     10  O   UNL     1      -0.745   1.173  25.874  0.00  0.00    -0.152 OA
ATOM     11  O   UNL     1      -0.687   1.257  24.228  0.00  0.00    -0.152 OA
BRANCH   9   6
ATOM      3  C   UNL     1      -0.742  -1.257  24.925  0.00  0.00    +0.139 A 
ATOM      4  C   UNL     1      -1.153  -0.869  25.526  0.00  0.00    +0.038 A 
ATOM      5  C   UNL     1      -1.144  -0.046  25.568  0.00  0.00    +0.023 A 
ATOM      6  C   UNL     1      -0.725   0.391  25.009  0.00  0.00    +0.124 A 
ATOM      7  C   UNL     1      -0.314   0.004  24.408  0.00  0.00    +0.023 A 
ATOM      8  C   UNL     1      -0.322  -0.819  24.366  0.00  0.00    +0.038 A 
BRANCH   3   2
ATOM      1  C   UNL     1      -1.440  -2.474  24.659  0.00  0.00    +0.252 C 
ATOM      2  O   UNL     1      -0.751  -2.080  24.883  0.00  0.00    -0.471 OA
ENDBRANCH   3   2
ENDBRANCH   9   6
ENDBRANCH  12   9
ENDBRANCH  13  12
ENDBRANCH  14  13
TORSDOF 7
ENDMDL
MODEL 4
REMARK VINA RESULT:      -8.9      2.223      5.177
REMARK  Name = 
REMARK  7 active torsions:
REMARK  status: ('A' for Active; 'I' for Inactive)
REMARK    1  A    between atoms: O_2  and  C_3
REMARK    2  A    between atoms: C_6  and  S_9
REMARK    3  A    between atoms: S_9  and  N_12
REMARK    4  A    between atoms: N_12  and  C_13
REMARK    5  A    between atoms: C_13  and  C_14
REMARK    6  A    between atoms: C_16  and  C_17
REMARK    7  A    between atoms: C_21  and  N_22
REMARK                            x       y       z     vdW  Elec       q    Type
REMARK                         _______ _______ _______ _____ _____    ______ ____
ROOT
ATOM     14  C   UNL     1      -0.625   1.181  24.669  0.00  0.00    +0.152 C 
ATOM     15  O   UNL     1       0.170   1.108  24.460  0.00  0.00    -0.350 OA
ATOM     16  C   UNL     1       0.447   1.855  24.245  0.00  0.00    +0.180 C 
ATOM     19  C   UNL     1      -0.176   2.390  24.321  0.00  0.00    +0.198 C 
ATOM     20  O   UNL     1      -0.143   3.199  24.162  0.00  0.00    -0.219 OA
ATOM     21  C   UNL     1      -0.839   1.974  24.583  0.00  0.00    +0.120 C 
ENDROOT
BRANCH  21  22
ATOM     22  N   UNL     1      -1.585   2.294  24.733  0.00  0.00    -0.267 NA
ATOM     23  C   UNL     1      -1.759   2.603  25.479  0.00  0.00    +0.094 C 
ATOM     24  C   UNL     1      -2.504   2.923  25.628  0.00  0.00    +0.109 C 
ATOM     25  N   UNL     1      -3.075   2.934  25.033  0.00  0.00    -0.290 N 
ATOM     26  C   UNL     1      -2.901   2.626  24.288  0.00  0.00    +0.109 C 
ATOM     27  C   UNL     1      -2.156   2.305  24.137  0.00  0.00    +0.094 C 
ATOM     28  C   UNL     1      -3.820   3.254  25.183  0.00  0.00    +0.132 A 
ATOM     29  N   UNL     1      -3.994   3.563  25.927  0.00  0.00    -0.229 NA
ATOM     30  C   UNL     1      -4.740   3.883  26.077  0.00  0.00    +0.100 A 
ATOM     31  C   UNL     1      -5.312   3.895  25.482  0.00  0.00    +0.021 A 
ATOM     32  C   UNL     1      -5.138   3.586  24.737  0.00  0.00    +0.004 A 
ATOM     33  C   UNL     1      -4.392   3.266  24.588  0.00  0.00    +0.034 A 
ENDBRANCH  21  22
BRANCH  16  17
ATOM     17  C   UNL     1       1.213   2.034  23.997  0.00  0.00    +0.214 C 
ATOM     18  O   UNL     1       1.703   1.437  23.708  0.00  0.00    -0.218 OA
ENDBRANCH  16  17
BRANCH  14  13
ATOM     13  C   UNL     1      -1.118   0.571  24.920  0.00  0.00    +0.146 C 
BRANCH  13  12
ATOM     12  N   UNL     1      -0.867  -0.213  24.863  0.00  0.00    -0.075 NA
BRANCH  12   9
ATOM      9  S   UNL     1      -1.422  -0.822  24.825  0.00  0.00    +0.077 S 
ATOM     10  O   UNL     1      -1.550  -0.757  25.637  0.00  0.00    -0.152 OA
ATOM     11  O   UNL     1      -1.295  -0.888  24.013  0.00  0.00    -0.152 OA
BRANCH   9   6
ATOM      3  C   UNL     1      -3.086  -2.651  24.712  0.00  0.00    +0.139 A 
ATOM      4  C   UNL     1      -2.300  -2.795  24.508  0.00  0.00    +0.038 A 
ATOM      5  C   UNL     1      -1.746  -2.186  24.546  0.00  0.00    +0.023 A 
ATOM      6  C   UNL     1      -1.977  -1.432  24.787  0.00  0.00    +0.124 A 
ATOM      7  C   UNL     1      -2.763  -1.288  24.990  0.00  0.00    +0.023 A 
ATOM      8  C   UNL     1      -3.317  -1.897  24.953  0.00  0.00    +0.038 A 
BRANCH   3   2
ATOM      1  C   UNL     1      -4.203  -3.269  24.071  0.00  0.00    +0.252 C 
ATOM      2  O   UNL     1      -3.641  -3.261  24.674  0.00  0.00    -0.471 OA
ENDBRANCH   3   2
ENDBRANCH   9   6
ENDBRANCH  12   9
ENDBRANCH  13  12
ENDBRANCH  14  13
TORSDOF 7
ENDMDL
MODEL 5
REMARK VINA RESULT:      -8.8      1.428      4.122
REMARK  Name = 
REMARK  7 active torsions:
REMARK  status: ('A' for Active; 'I' for Inactive)
REMARK    1  A    between atoms: O_2  and  C_3
REMARK    2  A    between atoms: C_6  and  S_9
REMARK    3  A    between atoms: S_9  and  N_12
REMARK    4  A    between atoms: N_12  and  C_13
REMARK    5  A    between atoms: C_13  and  C_14
REMARK    6  A    between atoms: C_16  and  C_17
REMARK    7  A    between atoms: C_21  and  N_22
REMARK                            x       y       z     vdW  Elec       q    Type
REMARK                         _______ _______ _______ _____ _____    ______ ____
ROOT
ATOM     14  C   UNL     1      -0.599   1.250  24.396  0.00  0.00    +0.152 C 
ATOM     15  O   UNL     1       0.104   1.636  24.203  0.00  0.00    -0.350 OA
ATOM     16  C   UNL     1       0.611   1.084  23.858  0.00  0.00    +0.180 C 
ATOM     19  C   UNL     1       0.221   0.357  23.838  0.00  0.00    +0.198 C 
ATOM     20  O   UNL     1       0.525  -0.349  23.539  0.00  0.00    -0.219 OA
ATOM     21  C   UNL     1      -0.527   0.460  24.171  0.00  0.00    +0.120 C 
ENDROOT
BRANCH  21  22
ATOM     22  N   UNL     1      -1.102  -0.126  24.262  0.00  0.00    -0.267 NA
ATOM     23  C   UNL     1      -1.074  -0.633  24.913  0.00  0.00    +0.094 C 
ATOM     24  C   UNL     1      -1.649  -1.217  25.004  0.00  0.00    +0.109 C 
ATOM     25  N   UNL     1      -2.251  -1.295  24.445  0.00  0.00    -0.290 N 
ATOM     26  C   UNL     1      -2.278  -0.788  23.795  0.00  0.00    +0.109 C 
ATOM     27  C   UNL     1      -1.703  -0.203  23.703  0.00  0.00    +0.094 C 
ATOM     28  C   UNL     1      -2.825  -1.880  24.536  0.00  0.00    +0.132 A 
ATOM     29  N   UNL     1      -2.798  -2.387  25.186  0.00  0.00    -0.229 NA
ATOM     30  C   UNL     1      -3.373  -2.972  25.277  0.00  0.00    +0.100 A 
ATOM     31  C   UNL     1      -3.975  -3.050  24.718  0.00  0.00    +0.021 A 
ATOM     32  C   UNL     1      -4.002  -2.543  24.068  0.00  0.00    +0.004 A 
ATOM     33  C   UNL     1      -3.427  -1.958  23.977  0.00  0.00    +0.034 A 
ENDBRANCH  21  22
BRANCH  16  17
ATOM     17  C   UNL     1       1.374   1.232  23.582  0.00  0.00    +0.214 C 
ATOM     18  O   UNL     1       1.778   1.907  23.832  0.00  0.00    -0.218 OA
ENDBRANCH  16  17
BRANCH  14  13
ATOM     13  C   UNL     1      -1.258   1.594  24.752  0.00  0.00    +0.146 C 
BRANCH  13  12
ATOM     12  N   UNL     1      -1.345   2.415  24.756  0.00  0.00    -0.075 NA
BRANCH  12   9
ATOM      9  S   UNL     1      -2.077   2.752  24.929  0.00  0.00    +0.077 S 
ATOM     10  O   UNL     1      -2.146   3.005  24.147  0.00  0.00    -0.152 OA
ATOM     11  O   UNL     1      -2.008   2.499  25.712  0.00  0.00    -0.152 OA
BRANCH   9   6
ATOM      3  C   UNL     1      -4.275   3.764  25.449  0.00  0.00    +0.139 A 
ATOM      4  C   UNL     1      -4.222   3.154  24.897  0.00  0.00    +0.038 A 
ATOM      5  C   UNL     1      -3.490   2.817  24.724  0.00  0.00    +0.023 A 
ATOM      6  C   UNL     1      -2.810   3.089  25.103  0.00  0.00    +0.124 A 
ATOM      7  C   UNL     1      -2.863   3.700  25.655  0.00  0.00    +0.023 A 
ATOM      8  C   UNL     1      -3.595   4.037  25.828  0.00  0.00    +0.038 A 
BRANCH   3   2
ATOM      1  C   UNL     1      -5.681   3.628  25.660  0.00  0.00    +0.252 C 
ATOM      2  O   UNL     1      -5.008   4.102  25.622  0.00  0.00    -0.471 OA
ENDBRANCH   3   2
ENDBRANCH   9   6
ENDBRANCH  12   9
ENDBRANCH  13  12
ENDBRANCH  14  13
TORSDOF 7
ENDMDL
MODEL 6
REMARK VINA RESULT:      -8.5      2.022      4.523
REMARK  Name = 
REMARK  7 active torsions:
REMARK  status: ('A' for Active; 'I' for Inactive)
REMARK    1  A    between atoms: O_2  and  C_3
REMARK    2  A    between atoms: C_6  and  S_9
REMARK    3  A    between atoms: S_9  and  N_12
REMARK    4  A    between atoms: N_12  and  C_13
REMARK    5  A    between atoms: C_13  and  C_14
REMARK    6  A    between atoms: C_16  and  C_17
REMARK    7  A    between atoms: C_21  and  N_22
REMARK                            x       y       z     vdW  Elec       q    Type
REMARK                         _______ _______ _______ _____ _____    ______ ____
ROOT
ATOM     14  C   UNL     1      -1.750   3.257  24.655  0.00  0.00    +0.152 C 
ATOM     15  O   UNL     1      -1.552   4.057  24.630  0.00  0.00    -0.350 OA
ATOM     16  C   UNL     1      -0.729   4.117  24.646  0.00  0.00    +0.180 C 
ATOM     19  C   UNL     1      -0.419   3.354  24.681  0.00  0.00    +0.198 C 
ATOM     20  O   UNL     1       0.382   3.156  24.705  0.00  0.00    -0.219 OA
ATOM     21  C   UNL     1      -1.050   2.822  24.687  0.00  0.00    +0.120 C 
ENDROOT
BRANCH  21  22
ATOM     22  N   UNL     1      -0.991   1.999  24.719  0.00  0.00    -0.267 NA
ATOM     23  C   UNL     1      -0.953   1.561  24.020  0.00  0.00    +0.094 C 
ATOM     24  C   UNL     1      -0.894   0.740  24.052  0.00  0.00    +0.109 C 
ATOM     25  N   UNL     1      -0.873   0.355  24.781  0.00  0.00    -0.290 N 
ATOM     26  C   UNL     1      -0.910   0.793  25.479  0.00  0.00    +0.109 C 
ATOM     27  C   UNL     1      -0.969   1.616  25.449  0.00  0.00    +0.094 C 
ATOM     28  C   UNL     1      -0.813  -0.467  24.813  0.00  0.00    +0.132 A 
ATOM     29  N   UNL     1      -0.776  -0.905  24.115  0.00  0.00    -0.229 NA
ATOM     30  C   UNL     1      -0.717  -1.727  24.147  0.00  0.00    +0.100 A 
ATOM     31  C   UNL     1      -0.695  -2.112  24.877  0.00  0.00    +0.021 A 
ATOM     32  C   UNL     1      -0.733  -1.674  25.575  0.00  0.00    +0.004 A 
ATOM     33  C   UNL     1      -0.792  -0.851  25.543  0.00  0.00    +0.034 A 
ENDBRANCH  21  22
BRANCH  16  17
ATOM     17  C   UNL     1      -0.294   4.817  24.629  0.00  0.00    +0.214 C 
ATOM     18  O   UNL     1      -0.665   5.538  24.787  0.00  0.00    -0.218 OA
ENDBRANCH  16  17
BRANCH  14  13
ATOM     13  C   UNL     1      -2.514   2.947  24.650  0.00  0.00    +0.146 C 
BRANCH  13  12
ATOM     12  N   UNL     1      -3.163   3.445  24.755  0.00  0.00    -0.075 NA
BRANCH  12   9
ATOM      9  S   UNL     1      -3.886   3.135  25.002  0.00  0.00    +0.077 S 
ATOM     10  O   UNL     1      -4.033   2.867  24.236  0.00  0.00    -0.152 OA
ATOM     11  O   UNL     1      -3.739   3.402  25.768  0.00  0.00    -0.152 OA
BRANCH   9   6
ATOM      3  C   UNL     1      -6.056   2.203  25.744  0.00  0.00    +0.139 A 
ATOM      4  C   UNL     1      -5.480   1.706  25.425  0.00  0.00    +0.038 A 
ATOM      5  C   UNL     1      -4.758   2.016  25.178  0.00  0.00    +0.023 A 
ATOM      6  C   UNL     1      -4.609   2.824  25.249  0.00  0.00    +0.124 A 
ATOM      7  C   UNL     1      -5.185   3.322  25.568  0.00  0.00    +0.023 A 
ATOM      8  C   UNL     1      -5.908   3.012  25.815  0.00  0.00    +0.038 A 
BRANCH   3   2
ATOM      1  C   UNL     1      -6.847   1.549  26.737  0.00  0.00    +0.252 C 
ATOM      2  O   UNL     1      -6.779   1.893  25.991  0.00  0.00    -0.471 OA
ENDBRANCH   3   2
ENDBRANCH   9   6
ENDBRANCH  12   9
ENDBRANCH  13  12
ENDBRANCH  14  13
TORSDOF 7
ENDMDL
