MODEL 1
REMARK VINA RESULT:     -11.3      0.000      0.000
REMARK  Name = 
REMARK  6 active torsions:
REMARK  status: ('A' for Active; 'I' for Inactive)
REMARK    1  A    between atoms: O_2  and  C_3
REMARK    2  A    between atoms: C_3  and  C_5
REMARK    3  A    between atoms: N_10  and  S_11
REMARK    4  A    between atoms: S_11  and  C_14
REMARK    5  A    between atoms: N_20  and  C_21
REMARK    6  A    between atoms: C_21  and  C_22
REMARK                            x       y       z     vdW  Elec       q    Type
REMARK                         _______ _______ _______ _____ _____    ______ ____
ROOT
ATOM      5  C   UNL     1      -3.993   2.455  24.783  0.00  0.00    +0.184 C 
ATOM      6  C   UNL     1      -4.638   1.944  24.726  0.00  0.00    +0.076 C 
ATOM      7  C   UNL     1      -4.517   1.130  24.668  0.00  0.00    +0.076 A 
ATOM      8  C   UNL     1      -3.750   0.827  24.668  0.00  0.00    +0.070 A 
ATOM      9  C   UNL     1      -3.104   1.337  24.725  0.00  0.00    +0.141 C 
ATOM     10  N   UNL     1      -3.226   2.151  24.783  0.00  0.00    -0.140 NA
ATOM     20  N   UNL     1      -3.800   0.006  24.604  0.00  0.00    -0.307 N 
ATOM     28  C   UNL     1      -4.598  -0.198  24.565  0.00  0.00    +0.178 A 
ATOM     29  N   UNL     1      -5.041   0.497  24.605  0.00  0.00    -0.229 NA
ENDROOT
BRANCH  10  11
ATOM     11  S   UNL     1      -2.580   2.661  24.841  0.00  0.00    +0.064 S 
ATOM     12  O   UNL     1      -2.571   2.743  24.021  0.00  0.00    -0.153 OA
ATOM     13  O   UNL     1      -2.589   2.579  25.662  0.00  0.00    -0.153 OA
BRANCH  11  14
ATOM     14  C   UNL     1      -1.934   3.171  24.900  0.00  0.00    +0.122 A 
ATOM     15  C   UNL     1      -1.678   3.427  25.641  0.00  0.00    +0.020 A 
ATOM     16  C   UNL     1      -1.032   3.937  25.701  0.00  0.00    +0.001 A 
ATOM     17  C   UNL     1      -0.642   4.190  25.019  0.00  0.00    +0.000 A 
ATOM     18  C   UNL     1      -0.898   3.934  24.278  0.00  0.00    +0.001 A 
ATOM     19  C   UNL     1      -1.544   3.424  24.219  0.00  0.00    +0.020 A 
ENDBRANCH  11  14
ENDBRANCH  10  11
BRANCH   5   3
ATOM      3  C   UNL     1      -4.114   3.268  24.841  0.00  0.00    +0.334 C 
ATOM      4  O   UNL     1      -4.008   3.749  24.179  0.00  0.00    -0.249 OA
BRANCH   3   2
ATOM      1  C   UNL     1      -4.960   4.147  25.585  0.00  0.00    +0.256 C 
ATOM      2  O   UNL     1      -4.342   3.602  25.560  0.00  0.00    -0.443 OA
ENDBRANCH   3   2
ENDBRANCH   5   3
BRANCH  20  21
ATOM     21  C   UNL     1      -3.164  -0.519  24.584  0.00  0.00    +0.134 C 
BRANCH  21  22
ATOM     22  C   UNL     1      -3.294  -1.328  24.676  0.00  0.00    +0.000 A 
ATOM     23  C   UNL     1      -3.203  -1.678  25.418  0.00  0.00    -0.002 A 
ATOM     24  C   UNL     1      -3.333  -2.488  25.511  0.00  0.00    -0.000 A 
ATOM     25  C   UNL     1      -3.554  -2.947  24.862  0.00  0.00    -0.000 A 
ATOM     26  C   UNL     1      -3.644  -2.597  24.121  0.00  0.00    -0.000 A 
ATOM     27  C   UNL     1      -3.514  -1.788  24.028  0.00  0.00    -0.002 A 
ENDBRANCH  21  22
ENDBRANCH  20  21
TORSDOF 6
ENDMDL
MODEL 2
REMARK VINA RESULT:     -11.3      1.385      2.595
REMARK  Name = 
REMARK  6 active torsions:
REMARK  status: ('A' for Active; 'I' for Inactive)
REMARK    1  A    between atoms: O_2  and  C_3
REMARK    2  A    between atoms: C_3  and  C_5
REMARK    3  A    between atoms: N_10  and  S_11
REMARK    4  A    between atoms: S_11  and  C_14
REMARK    5  A    between atoms: N_20  and  C_21
REMARK    6  A    between atoms: C_21  and  C_22
REMARK                            x       y       z     vdW  Elec       q    Type
REMARK                         _______ _______ _______ _____ _____    ______ ____
ROOT
ATOM      5  C   UNL     1      -1.378   1.468  24.452  0.00  0.00    +0.184 C 
ATOM      6  C   UNL     1      -0.928   0.779  24.403  0.00  0.00    +0.076 C 
ATOM      7  C   UNL     1      -1.264   0.050  24.596  0.00  0.00    +0.076 A 
ATOM      8  C   UNL     1      -2.052   0.012  24.838  0.00  0.00    +0.070 A 
ATOM      9  C   UNL     1      -2.503   0.701  24.887  0.00  0.00    +0.141 C 
ATOM     10  N   UNL     1      -2.166   1.429  24.694  0.00  0.00    -0.140 NA
ATOM     20  N   UNL     1      -2.233  -0.778  24.992  0.00  0.00    -0.307 N 
ATOM     28  C   UNL     1      -1.557  -1.227  24.845  0.00  0.00    +0.178 A 
ATOM     29  N   UNL     1      -0.959  -0.715  24.601  0.00  0.00    -0.229 NA
ENDROOT
BRANCH  10  11
ATOM     11  S   UNL     1      -2.617   2.117  24.743  0.00  0.00    +0.064 S 
ATOM     12  O   UNL     1      -2.386   2.215  25.528  0.00  0.00    -0.153 OA
ATOM     13  O   UNL     1      -2.850   2.020  23.956  0.00  0.00    -0.153 OA
BRANCH  11  14
ATOM     14  C   UNL     1      -3.069   2.806  24.790  0.00  0.00    +0.122 A 
ATOM     15  C   UNL     1      -3.512   3.055  24.140  0.00  0.00    +0.020 A 
ATOM     16  C   UNL     1      -3.964   3.743  24.186  0.00  0.00    +0.001 A 
ATOM     17  C   UNL     1      -3.974   4.183  24.884  0.00  0.00    +0.000 A 
ATOM     18  C   UNL     1      -3.532   3.935  25.535  0.00  0.00    +0.001 A 
ATOM     19  C   UNL     1      -3.080   3.246  25.487  0.00  0.00    +0.020 A 
ENDBRANCH  11  14
ENDBRANCH  10  11
BRANCH   5   3
ATOM      3  C   UNL     1      -1.042   2.195  24.259  0.00  0.00    +0.334 C 
ATOM      4  O   UNL     1      -1.190   2.535  23.522  0.00  0.00    -0.249 OA
BRANCH   3   2
ATOM      1  C   UNL     1       0.124   2.971  24.545  0.00  0.00    +0.256 C 
ATOM      2  O   UNL     1      -0.557   2.583  24.802  0.00  0.00    -0.443 OA
ENDBRANCH   3   2
ENDBRANCH   5   3
BRANCH  20  21
ATOM     21  C   UNL     1      -2.962  -1.068  25.248  0.00  0.00    +0.134 C 
BRANCH  21  22
ATOM     22  C   UNL     1      -3.332  -1.677  24.833  0.00  0.00    +0.000 A 
ATOM     23  C   UNL     1      -3.879  -1.500  24.241  0.00  0.00    -0.002 A 
ATOM     24  C   UNL     1      -4.250  -2.109  23.827  0.00  0.00    -0.000 A 
ATOM     25  C   UNL     1      -4.073  -2.896  24.004  0.00  0.00    -0.000 A 
ATOM     26  C   UNL     1      -3.526  -3.073  24.595  0.00  0.00    -0.000 A 
ATOM     27  C   UNL     1      -3.156  -2.463  25.010  0.00  0.00    -0.002 A 
ENDBRANCH  21  22
ENDBRANCH  20  21
TORSDOF 6
ENDMDL
MODEL 3
REMARK VINA RESULT:     -10.8      1.973      4.904
REMARK  Name = 
REMARK  6 active torsions:
REMARK  status: ('A' for Active; 'I' for Inactive)
REMARK    1  A    between atoms: O_2  and  C_3
REMARK    2  A    between atoms: C_3  and  C_5
REMARK    3  A    between atoms: N_10  and  S_11
REMARK    4  A    between atoms: S_11  and  C_14
REMARK    5  A    between atoms: N_20  and  C_21
REMARK    6  A    between atoms: C_21  and  C_22
REMARK                            x       y       z     vdW  Elec       q    Type
REMARK                         _______ _______ _______ _____ _____    ______ ____
ROOT
ATOM      5  C   UNL     1      -1.833   0.275  24.821  0.00  0.00    +0.184 C 
ATOM      6  C   UNL     1      -1.576   1.058  24.810  0.00  0.00    +0.076 C 
ATOM      7  C   UNL     1      -2.115   1.669  24.681  0.00  0.00    +0.076 A 
ATOM      8  C   UNL     1      -2.913   1.496  24.564  0.00  0.00    +0.070 A 
ATOM      9  C   UNL     1      -3.172   0.712  24.574  0.00  0.00    +0.141 C 
ATOM     10  N   UNL     1      -2.631   0.102  24.703  0.00  0.00    -0.140 NA
ATOM     20  N   UNL     1      -3.315   2.207  24.451  0.00  0.00    -0.307 N 
ATOM     28  C   UNL     1      -2.765   2.820  24.499  0.00  0.00    +0.178 A 
ATOM     29  N   UNL     1      -2.025   2.487  24.641  0.00  0.00    -0.229 NA
ENDROOT
BRANCH  10  11
ATOM     11  S   UNL     1      -2.889  -0.681  24.713  0.00  0.00    +0.064 S 
ATOM     12  O   UNL     1      -2.993  -0.637  25.530  0.00  0.00    -0.153 OA
ATOM     13  O   UNL     1      -2.786  -0.726  23.895  0.00  0.00    -0.153 OA
BRANCH  11  14
ATOM     14  C   UNL     1      -3.148  -1.465  24.722  0.00  0.00    +0.122 A 
ATOM     15  C   UNL     1      -3.365  -1.835  24.018  0.00  0.00    +0.020 A 
ATOM     16  C   UNL     1      -3.624  -2.619  24.026  0.00  0.00    +0.001 A 
ATOM     17  C   UNL     1      -3.665  -3.032  24.739  0.00  0.00    +0.000 A 
ATOM     18  C   UNL     1      -3.447  -2.662  25.444  0.00  0.00    +0.001 A 
ATOM     19  C   UNL     1      -3.189  -1.878  25.435  0.00  0.00    +0.020 A 
ENDBRANCH  11  14
ENDBRANCH  10  11
BRANCH   5   3
ATOM      3  C   UNL     1      -1.294  -0.335  24.949  0.00  0.00    +0.334 C 
ATOM      4  O   UNL     1      -1.201  -0.651  25.705  0.00  0.00    -0.249 OA
BRANCH   3   2
ATOM      1  C   UNL     1      -0.054  -0.826  24.436  0.00  0.00    +0.256 C 
ATOM      2  O   UNL     1      -0.846  -0.629  24.321  0.00  0.00    -0.443 OA
ENDBRANCH   3   2
ENDBRANCH   5   3
BRANCH  20  21
ATOM     21  C   UNL     1      -4.124   2.291  24.314  0.00  0.00    +0.134 C 
BRANCH  21  22
ATOM     22  C   UNL     1      -4.577   2.776  24.804  0.00  0.00    +0.000 A 
ATOM     23  C   UNL     1      -5.080   2.441  25.366  0.00  0.00    -0.002 A 
ATOM     24  C   UNL     1      -5.533   2.927  25.856  0.00  0.00    -0.000 A 
ATOM     25  C   UNL     1      -5.483   3.747  25.782  0.00  0.00    -0.000 A 
ATOM     26  C   UNL     1      -4.982   4.082  25.221  0.00  0.00    -0.000 A 
ATOM     27  C   UNL     1      -4.529   3.597  24.731  0.00  0.00    -0.002 A 
ENDBRANCH  21  22
ENDBRANCH  20  21
TORSDOF 6
ENDMDL
MODEL 4
REMARK VINA RESULT:     -10.6      2.052      5.254
REMARK  Name = 
REMARK  6 active torsions:
REMARK  status: ('A' for Active; 'I' for Inactive)
REMARK    1  A    between atoms: O_2  and  C_3
REMARK    2  A    between atoms: C_3  and  C_5
REMARK    3  A    between atoms: N_10  and  S_11
REMARK    4  A    between atoms: S_11  and  C_14
REMARK    5  A    between atoms: N_20  and  C_21
REMARK    6  A    between atoms: C_21  and  C_22
REMARK                            x       y       z     vdW  Elec       q    Type
REMARK                         _______ _______ _______ _____ _____    ______ ____
ROOT
ATOM      5  C   UNL     1      -1.187   0.139  25.350  0.00  0.00    +0.184 C 
ATOM      6  C   UNL     1      -0.530   0.597  25.548  0.00  0.00    +0.076 C 
ATOM      7  C   UNL     1      -0.509   1.398  25.350  0.00  0.00    +0.076 A 
ATOM      8  C   UNL     1      -1.146   1.740  24.953  0.00  0.00    +0.070 A 
ATOM      9  C   UNL     1      -1.804   1.282  24.754  0.00  0.00    +0.141 C 
ATOM     10  N   UNL     1      -1.824   0.482  24.953  0.00  0.00    -0.140 NA
ATOM     20  N   UNL     1      -0.971   2.537  24.830  0.00  0.00    -0.307 N 
ATOM     28  C   UNL     1      -0.227   2.686  25.151  0.00  0.00    +0.178 A 
ATOM     29  N   UNL     1       0.058   1.982  25.472  0.00  0.00    -0.229 NA
ENDROOT
BRANCH  10  11
ATOM     11  S   UNL     1      -2.481   0.025  24.754  0.00  0.00    +0.064 S 
ATOM     12  O   UNL     1      -2.140  -0.150  24.024  0.00  0.00    -0.153 OA
ATOM     13  O   UNL     1      -2.823   0.200  25.485  0.00  0.00    -0.153 OA
BRANCH  11  14
ATOM     14  C   UNL     1      -3.139  -0.432  24.557  0.00  0.00    +0.122 A 
ATOM     15  C   UNL     1      -3.770  -0.496  25.085  0.00  0.00    +0.020 A 
ATOM     16  C   UNL     1      -4.428  -0.952  24.889  0.00  0.00    +0.001 A 
ATOM     17  C   UNL     1      -4.456  -1.345  24.163  0.00  0.00    +0.000 A 
ATOM     18  C   UNL     1      -3.825  -1.281  23.635  0.00  0.00    +0.001 A 
ATOM     19  C   UNL     1      -3.167  -0.824  23.832  0.00  0.00    +0.020 A 
ENDBRANCH  11  14
ENDBRANCH  10  11
BRANCH   5   3
ATOM      3  C   UNL     1      -1.207  -0.660  25.548  0.00  0.00    +0.334 C 
ATOM      4  O   UNL     1      -1.616  -0.908  26.221  0.00  0.00    -0.249 OA
BRANCH   3   2
ATOM      1  C   UNL     1      -0.411  -1.840  25.421  0.00  0.00    +0.256 C 
ATOM      2  O   UNL     1      -0.820  -1.214  25.074  0.00  0.00    -0.443 OA
ENDBRANCH   3   2
ENDBRANCH   5   3
BRANCH  20  21
ATOM     21  C   UNL     1      -1.456   3.087  24.452  0.00  0.00    +0.134 C 
BRANCH  21  22
ATOM     22  C   UNL     1      -1.510   3.857  24.743  0.00  0.00    +0.000 A 
ATOM     23  C   UNL     1      -2.140   4.071  25.231  0.00  0.00    -0.002 A 
ATOM     24  C   UNL     1      -2.194   4.841  25.522  0.00  0.00    -0.000 A 
ATOM     25  C   UNL     1      -1.618   5.398  25.324  0.00  0.00    -0.000 A 
ATOM     26  C   UNL     1      -0.989   5.185  24.836  0.00  0.00    -0.000 A 
ATOM     27  C   UNL     1      -0.935   4.415  24.545  0.00  0.00    -0.002 A 
ENDBRANCH  21  22
ENDBRANCH  20  21
TORSDOF 6
ENDMDL
MODEL 5
REMARK VINA RESULT:     -10.5      1.807      4.613
REMARK  Name = 
REMARK  6 active torsions:
REMARK  status: ('A' for Active; 'I' for Inactive)
REMARK    1  A    between atoms: O_2  and  C_3
REMARK    2  A    between atoms: C_3  and  C_5
REMARK    3  A    between atoms: N_10  and  S_11
REMARK    4  A    between atoms: S_11  and  C_14
REMARK    5  A    between atoms: N_20  and  C_21
REMARK    6  A    between atoms: C_21  and  C_22
REMARK                            x       y       z     vdW  Elec       q    Type
REMARK                         _______ _______ _______ _____ _____    ______ ____
ROOT
ATOM      5  C   UNL     1      -3.221   0.858  24.432  0.00  0.00    +0.184 C 
ATOM      6  C   UNL     1      -3.730   1.503  24.360  0.00  0.00    +0.076 C 
ATOM      7  C   UNL     1      -3.512   2.238  24.664  0.00  0.00    +0.076 A 
ATOM      8  C   UNL     1      -2.783   2.328  25.040  0.00  0.00    +0.070 A 
ATOM      9  C   UNL     1      -2.273   1.683  25.113  0.00  0.00    +0.141 C 
ATOM     10  N   UNL     1      -2.492   0.949  24.808  0.00  0.00    -0.140 NA
ATOM     20  N   UNL     1      -2.718   3.113  25.284  0.00  0.00    -0.307 N 
ATOM     28  C   UNL     1      -3.405   3.509  25.059  0.00  0.00    +0.178 A 
ATOM     29  N   UNL     1      -3.896   2.967  24.675  0.00  0.00    -0.229 NA
ENDROOT
BRANCH  10  11
ATOM     11  S   UNL     1      -1.982   0.305  24.881  0.00  0.00    +0.064 S 
ATOM     12  O   UNL     1      -1.653   0.481  24.146  0.00  0.00    -0.153 OA
ATOM     13  O   UNL     1      -2.312   0.127  25.617  0.00  0.00    -0.153 OA
BRANCH  11  14
ATOM     14  C   UNL     1      -1.473  -0.340  24.955  0.00  0.00    +0.122 A 
ATOM     15  C   UNL     1      -1.522  -0.831  25.616  0.00  0.00    +0.020 A 
ATOM     16  C   UNL     1      -1.013  -1.476  25.691  0.00  0.00    +0.001 A 
ATOM     17  C   UNL     1      -0.454  -1.630  25.103  0.00  0.00    +0.000 A 
ATOM     18  C   UNL     1      -0.404  -1.139  24.442  0.00  0.00    +0.001 A 
ATOM     19  C   UNL     1      -0.914  -0.494  24.368  0.00  0.00    +0.020 A 
ENDBRANCH  11  14
ENDBRANCH  10  11
BRANCH   5   3
ATOM      3  C   UNL     1      -3.439   0.124  24.128  0.00  0.00    +0.334 C 
ATOM      4  O   UNL     1      -3.160  -0.116  23.389  0.00  0.00    -0.249 OA
BRANCH   3   2
ATOM      1  C   UNL     1      -4.478  -0.856  24.172  0.00  0.00    +0.256 C 
ATOM      2  O   UNL     1      -3.937  -0.371  24.561  0.00  0.00    -0.443 OA
ENDBRANCH   3   2
ENDBRANCH   5   3
BRANCH  20  21
ATOM     21  C   UNL     1      -2.076   3.445  25.684  0.00  0.00    +0.134 C 
BRANCH  21  22
ATOM     22  C   UNL     1      -1.701   4.113  25.379  0.00  0.00    +0.000 A 
ATOM     23  C   UNL     1      -0.978   4.038  24.988  0.00  0.00    -0.002 A 
ATOM     24  C   UNL     1      -0.602   4.706  24.683  0.00  0.00    -0.000 A 
ATOM     25  C   UNL     1      -0.950   5.449  24.768  0.00  0.00    -0.000 A 
ATOM     26  C   UNL     1      -1.672   5.525  25.158  0.00  0.00    -0.000 A 
ATOM     27  C   UNL     1      -2.048   4.857  25.463  0.00  0.00    -0.002 A 
ENDBRANCH  21  22
ENDBRANCH  20  21
TORSDOF 6
ENDMDL
