MODEL 1
REMARK VINA RESULT:      -7.4      0.000      0.000
REMARK  Name = 
REMARK  9 active torsions:
REMARK  status: ('A' for Active; 'I' for Inactive)
REMARK    1  A    between atoms: O_2  and  C_3
REMARK    2  A    between atoms: C_6  and  O_7
REMARK    3  A    between atoms: C_9  and  S_11
REMARK    4  A    between atoms: S_11  and  N_14
REMARK    5  A    between atoms: N_14  and  C_15
REMARK    6  A    between atoms: C_15  and  C_16
REMARK    7  A    between atoms: C_23  and  C_24
REMARK    8  A    between atoms: C_26  and  C_30
REMARK    9  A    between atoms: C_33  and  N_36
REMARK                            x       y       z     vdW  Elec       q    Type
REMARK                         _______ _______ _______ _____ _____    ______ ____
ROOT
ATOM     16  C   UNL     1      -1.371   0.716  24.034  0.00  0.00    +0.077 C 
ATOM     17  C   UNL     1      -0.874   0.157  24.249  0.00  0.00    +0.018 C 
ATOM     18  C   UNL     1      -0.152   0.013  23.913  0.00  0.00    +0.010 C 
ATOM     19  C   UNL     1       0.267  -0.676  24.306  0.00  0.00    +0.018 C 
ATOM     20  C   UNL     1      -0.219  -0.250  24.213  0.00  0.00    +0.072 C 
ATOM     21  N   UNL     1      -0.634   0.562  23.696  0.00  0.00    -0.272 NA
ATOM     22  C   UNL     1      -0.181   0.960  23.011  0.00  0.00    +0.078 C 
ATOM     23  C   UNL     1       0.277   0.400  23.253  0.00  0.00    +0.056 C 
ENDROOT
BRANCH  23  24
ATOM     24  C   UNL     1       1.021   0.201  22.956  0.00  0.00    +0.058 A 
ATOM     25  C   UNL     1       1.743   0.329  23.333  0.00  0.00    +0.035 A 
ATOM     26  C   UNL     1       2.341   0.046  22.841  0.00  0.00    +0.102 A 
ATOM     27  N   UNL     1       1.989  -0.258  22.159  0.00  0.00    -0.170 NA
ATOM     28  N   UNL     1       1.172  -0.162  22.231  0.00  0.00    -0.253 N 
ATOM     29  C   UNL     1       0.606  -0.389  21.675  0.00  0.00    +0.153 C 
BRANCH  26  30
ATOM     30  C   UNL     1       3.150   0.063  23.000  0.00  0.00    +0.019 A 
ATOM     31  C   UNL     1       3.522  -0.603  23.317  0.00  0.00    +0.003 A 
ATOM     32  C   UNL     1       4.331  -0.586  23.477  0.00  0.00    +0.015 A 
ATOM     33  C   UNL     1       4.769   0.096  23.320  0.00  0.00    +0.048 A 
ATOM     34  C   UNL     1       4.397   0.761  23.004  0.00  0.00    +0.015 A 
ATOM     35  C   UNL     1       3.588   0.744  22.844  0.00  0.00    +0.003 A 
BRANCH  33  36
ATOM     36  N   UNL     1       5.578   0.112  23.481  0.00  0.00    -0.304 N 
ATOM     37  C   UNL     1       6.110  -0.239  22.957  0.00  0.00    +0.112 C 
ATOM     38  C   UNL     1       5.856   0.479  24.165  0.00  0.00    +0.112 C 
ENDBRANCH  33  36
ENDBRANCH  26  30
ENDBRANCH  23  24
BRANCH  16  15
ATOM     15  C   UNL     1      -2.079   1.134  24.094  0.00  0.00    +0.131 C 
BRANCH  15  14
ATOM     14  N   UNL     1      -2.152   1.745  24.643  0.00  0.00    -0.076 NA
BRANCH  14  11
ATOM     11  S   UNL     1      -2.893   2.074  24.798  0.00  0.00    +0.080 S 
ATOM     12  O   UNL     1      -2.843   2.516  24.103  0.00  0.00    -0.151 OA
ATOM     13  O   UNL     1      -2.942   1.633  25.493  0.00  0.00    -0.151 OA
BRANCH  11   9
ATOM      3  C   UNL     1      -5.057   2.345  24.856  0.00  0.00    +0.140 A 
ATOM      4  C   UNL     1      -5.114   3.059  25.265  0.00  0.00    +0.040 A 
ATOM      5  C   UNL     1      -4.431   3.444  25.519  0.00  0.00    +0.041 A 
ATOM      6  C   UNL     1      -3.690   3.116  25.363  0.00  0.00    +0.157 A 
ATOM      9  C   UNL     1      -3.633   2.403  24.954  0.00  0.00    +0.160 A 
ATOM     10  C   UNL     1      -4.317   2.017  24.700  0.00  0.00    +0.060 A 
BRANCH   3   2
ATOM      1  C   UNL     1      -6.393   1.902  25.104  0.00  0.00    +0.252 C 
ATOM      2  O   UNL     1      -5.741   1.959  24.602  0.00  0.00    -0.471 OA
ENDBRANCH   3   2
BRANCH   6   7
ATOM      7  O   UNL     1      -3.007   3.502  25.617  0.00  0.00    -0.470 OA
ATOM      8  C   UNL     1      -3.064   4.179  26.085  0.00  0.00    +0.253 C 
ENDBRANCH   6   7
ENDBRANCH  11   9
ENDBRANCH  14  11
ENDBRANCH  15  14
ENDBRANCH  16  15
TORSDOF 9
ENDMDL
MODEL 2
REMARK VINA RESULT:      -6.1      2.730      7.555
REMARK  Name = 
REMARK  9 active torsions:
REMARK  status: ('A' for Active; 'I' for Inactive)
REMARK    1  A    between atoms: O_2  and  C_3
REMARK    2  A    between atoms: C_6  and  O_7
REMARK    3  A    between atoms: C_9  and  S_11
REMARK    4  A    between atoms: S_11  and  N_14
REMARK    5  A    between atoms: N_14  and  C_15
REMARK    6  A    between atoms: C_15  and  C_16
REMARK    7  A    between atoms: C_23  and  C_24
REMARK    8  A    between atoms: C_26  and  C_30
REMARK    9  A    between atoms: C_33  and  N_36
REMARK                            x       y       z     vdW  Elec       q    Type
REMARK                         _______ _______ _______ _____ _____    ______ ____
ROOT
ATOM     16  C   UNL     1       0.573   0.147  23.512  0.00  0.00    +0.077 C 
ATOM     17  C   UNL     1      -0.017   0.634  23.371  0.00  0.00    +0.018 C 
ATOM     18  C   UNL     1      -0.760   0.579  23.687  0.00  0.00    +0.010 C 
ATOM     19  C   UNL     1      -1.295   1.238  23.399  0.00  0.00    +0.018 C 
ATOM     20  C   UNL     1      -0.738   0.900  23.442  0.00  0.00    +0.072 C 
ATOM     21  N   UNL     1      -0.187   0.097  23.830  0.00  0.00    -0.272 NA
ATOM     22  C   UNL     1      -0.569  -0.497  24.409  0.00  0.00    +0.078 C 
ATOM     23  C   UNL     1      -1.121   0.004  24.244  0.00  0.00    +0.056 C 
ENDROOT
BRANCH  23  24
ATOM     24  C   UNL     1      -1.895   0.005  24.530  0.00  0.00    +0.058 A 
ATOM     25  C   UNL     1      -2.416   0.644  24.517  0.00  0.00    +0.035 A 
ATOM     26  C   UNL     1      -3.126   0.402  24.858  0.00  0.00    +0.102 A 
ATOM     27  N   UNL     1      -3.045  -0.388  25.082  0.00  0.00    -0.170 NA
ATOM     28  N   UNL     1      -2.283  -0.634  24.879  0.00  0.00    -0.253 N 
ATOM     29  C   UNL     1      -1.966  -1.385  25.003  0.00  0.00    +0.153 C 
BRANCH  26  30
ATOM     30  C   UNL     1      -3.800   0.866  24.958  0.00  0.00    +0.019 A 
ATOM     31  C   UNL     1      -4.548   0.544  24.820  0.00  0.00    +0.003 A 
ATOM     32  C   UNL     1      -5.222   1.009  24.920  0.00  0.00    +0.015 A 
ATOM     33  C   UNL     1      -5.150   1.795  25.157  0.00  0.00    +0.048 A 
ATOM     34  C   UNL     1      -4.402   2.118  25.295  0.00  0.00    +0.015 A 
ATOM     35  C   UNL     1      -3.728   1.653  25.195  0.00  0.00    +0.003 A 
BRANCH  33  36
ATOM     36  N   UNL     1      -5.825   2.259  25.257  0.00  0.00    -0.304 N 
ATOM     37  C   UNL     1      -5.774   2.983  25.647  0.00  0.00    +0.112 C 
ATOM     38  C   UNL     1      -6.551   1.998  24.966  0.00  0.00    +0.112 C 
ENDBRANCH  33  36
ENDBRANCH  26  30
ENDBRANCH  23  24
BRANCH  16  15
ATOM     15  C   UNL     1       1.350  -0.116  23.418  0.00  0.00    +0.131 C 
BRANCH  15  14
ATOM     14  N   UNL     1       1.860   0.281  22.905  0.00  0.00    -0.076 NA
BRANCH  14  11
ATOM     11  S   UNL     1       2.676   0.213  23.002  0.00  0.00    +0.080 S 
ATOM     12  O   UNL     1       2.651   0.765  23.613  0.00  0.00    -0.151 OA
ATOM     13  O   UNL     1       2.702  -0.340  22.390  0.00  0.00    -0.151 OA
BRANCH  11   9
ATOM      3  C   UNL     1       4.625  -0.587  23.572  0.00  0.00    +0.140 A 
ATOM      4  C   UNL     1       5.125   0.005  23.290  0.00  0.00    +0.040 A 
ATOM      5  C   UNL     1       4.809   0.666  22.913  0.00  0.00    +0.041 A 
ATOM      6  C   UNL     1       3.993   0.736  22.816  0.00  0.00    +0.157 A 
ATOM      9  C   UNL     1       3.493   0.144  23.098  0.00  0.00    +0.160 A 
ATOM     10  C   UNL     1       3.809  -0.518  23.476  0.00  0.00    +0.060 A 
BRANCH   3   2
ATOM      1  C   UNL     1       5.657  -1.190  24.355  0.00  0.00    +0.252 C 
ATOM      2  O   UNL     1       4.942  -1.250  23.950  0.00  0.00    -0.471 OA
ENDBRANCH   3   2
BRANCH   6   7
ATOM      7  O   UNL     1       3.677   1.397  22.439  0.00  0.00    -0.470 OA
ATOM      8  C   UNL     1       4.174   2.005  22.185  0.00  0.00    +0.253 C 
ENDBRANCH   6   7
ENDBRANCH  11   9
ENDBRANCH  14  11
ENDBRANCH  15  14
ENDBRANCH  16  15
TORSDOF 9
ENDMDL
MODEL 3
REMARK VINA RESULT:      -5.6      2.683      7.684
REMARK  Name = 
REMARK  9 active torsions:
REMARK  status: ('A' for Active; 'I' for Inactive)
REMARK    1  A    between atoms: O_2  and  C_3
REMARK    2  A    between atoms: C_6  and  O_7
REMARK    3  A    between atoms: C_9  and  S_11
REMARK    4  A    between atoms: S_11  and  N_14
REMARK    5  A    between atoms: N_14  and  C_15
REMARK    6  A    between atoms: C_15  and  C_16
REMARK    7  A    between atoms: C_23  and  C_24
REMARK    8  A    between atoms: C_26  and  C_30
REMARK    9  A    between atoms: C_33  and  N_36
REMARK                            x       y       z     vdW  Elec       q    Type
REMARK                         _______ _______ _______ _____ _____    ______ ____
ROOT
ATOM     16  C   UNL     1       0.529   1.909  24.417  0.00  0.00    +0.077 C 
ATOM     17  C   UNL     1       0.121   1.917  25.079  0.00  0.00    +0.018 C 
ATOM     18  C   UNL     1      -0.624   2.221  25.170  0.00  0.00    +0.010 C 
ATOM     19  C   UNL     1      -0.921   2.132  26.012  0.00  0.00    +0.018 C 
ATOM     20  C   UNL     1      -0.493   2.071  25.522  0.00  0.00    +0.072 C 
ATOM     21  N   UNL     1      -0.230   2.217  24.518  0.00  0.00    -0.272 NA
ATOM     22  C   UNL     1      -0.807   2.621  23.937  0.00  0.00    +0.078 C 
ATOM     23  C   UNL     1      -1.174   2.608  24.607  0.00  0.00    +0.056 C 
ENDROOT
BRANCH  23  24
ATOM     24  C   UNL     1      -1.930   2.899  24.766  0.00  0.00    +0.058 A 
ATOM     25  C   UNL     1      -2.611   2.446  24.872  0.00  0.00    +0.035 A 
ATOM     26  C   UNL     1      -3.238   2.960  25.019  0.00  0.00    +0.102 A 
ATOM     27  N   UNL     1      -2.946   3.731  25.005  0.00  0.00    -0.170 NA
ATOM     28  N   UNL     1      -2.136   3.693  24.849  0.00  0.00    -0.253 N 
ATOM     29  C   UNL     1      -1.624   4.337  24.785  0.00  0.00    +0.153 C 
BRANCH  26  30
ATOM     30  C   UNL     1      -4.022   2.742  25.157  0.00  0.00    +0.019 A 
ATOM     31  C   UNL     1      -4.323   2.050  24.823  0.00  0.00    +0.003 A 
ATOM     32  C   UNL     1      -5.107   1.832  24.961  0.00  0.00    +0.015 A 
ATOM     33  C   UNL     1      -5.590   2.306  25.433  0.00  0.00    +0.048 A 
ATOM     34  C   UNL     1      -5.289   2.998  25.767  0.00  0.00    +0.015 A 
ATOM     35  C   UNL     1      -4.505   3.215  25.629  0.00  0.00    +0.003 A 
BRANCH  33  36
ATOM     36  N   UNL     1      -6.374   2.087  25.570  0.00  0.00    -0.304 N 
ATOM     37  C   UNL     1      -6.643   1.981  26.342  0.00  0.00    +0.112 C 
ATOM     38  C   UNL     1      -6.888   1.975  24.935  0.00  0.00    +0.112 C 
ENDBRANCH  33  36
ENDBRANCH  26  30
ENDBRANCH  23  24
BRANCH  16  15
ATOM     15  C   UNL     1       1.197   1.733  23.967  0.00  0.00    +0.131 C 
BRANCH  15  14
ATOM     14  N   UNL     1       1.410   0.947  23.835  0.00  0.00    -0.076 NA
BRANCH  14  11
ATOM     11  S   UNL     1       2.097   0.771  23.413  0.00  0.00    +0.080 S 
ATOM     12  O   UNL     1       1.950  -0.035  23.507  0.00  0.00    -0.151 OA
ATOM     13  O   UNL     1       2.245   1.577  23.319  0.00  0.00    -0.151 OA
BRANCH  11   9
ATOM      3  C   UNL     1       4.208   0.623  22.880  0.00  0.00    +0.140 A 
ATOM      4  C   UNL     1       4.158   0.247  22.148  0.00  0.00    +0.040 A 
ATOM      5  C   UNL     1       3.421   0.045  21.837  0.00  0.00    +0.041 A 
ATOM      6  C   UNL     1       2.734   0.220  22.259  0.00  0.00    +0.157 A 
ATOM      9  C   UNL     1       2.784   0.596  22.991  0.00  0.00    +0.160 A 
ATOM     10  C   UNL     1       3.521   0.798  23.302  0.00  0.00    +0.060 A 
BRANCH   3   2
ATOM      1  C   UNL     1       5.463   0.234  23.442  0.00  0.00    +0.252 C 
ATOM      2  O   UNL     1       4.946   0.825  23.190  0.00  0.00    -0.471 OA
ENDBRANCH   3   2
BRANCH   6   7
ATOM      7  O   UNL     1       1.997   0.018  21.948  0.00  0.00    -0.470 OA
ATOM      8  C   UNL     1       1.949  -0.421  21.252  0.00  0.00    +0.253 C 
ENDBRANCH   6   7
ENDBRANCH  11   9
ENDBRANCH  14  11
ENDBRANCH  15  14
ENDBRANCH  16  15
TORSDOF 9
ENDMDL
MODEL 4
REMARK VINA RESULT:      -5.2     15.691     17.631
REMARK  Name = 
REMARK  9 active torsions:
REMARK  status: ('A' for Active; 'I' for Inactive)
REMARK    1  A    between atoms: O_2  and  C_3
REMARK    2  A    between atoms: C_6  and  O_7
REMARK    3  A    between atoms: C_9  and  S_11
REMARK    4  A    between atoms: S_11  and  N_14
REMARK    5  A    between atoms: N_14  and  C_15
REMARK    6  A    between atoms: C_15  and  C_16
REMARK    7  A    between atoms: C_23  and  C_24
REMARK    8  A    between atoms: C_26  and  C_30
REMARK    9  A    between atoms: C_33  and  N_36
REMARK                            x       y       z     vdW  Elec       q    Type
REMARK                         _______ _______ _______ _____ _____    ______ ____
ROOT
ATOM     16  C   UNL     1      -5.861 -10.217  13.408  0.00  0.00    +0.077 C 
ATOM     17  C   UNL     1      -5.828 -10.024  14.161  0.00  0.00    +0.018 C 
ATOM     18  C   UNL     1      -6.464  -9.947  14.656  0.00  0.00    +0.010 C 
ATOM     19  C   UNL     1      -6.216  -9.719  15.487  0.00  0.00    +0.018 C 
ATOM     20  C   UNL     1      -6.123  -9.870  14.858  0.00  0.00    +0.072 C 
ATOM     21  N   UNL     1      -6.504 -10.136  13.919  0.00  0.00    -0.272 NA
ATOM     22  C   UNL     1      -7.402 -10.236  13.790  0.00  0.00    +0.078 C 
ATOM     23  C   UNL     1      -7.327 -10.045  14.525  0.00  0.00    +0.056 C 
ENDROOT
BRANCH  23  24
ATOM     24  C   UNL     1      -7.930  -9.950  15.080  0.00  0.00    +0.058 A 
ATOM     25  C   UNL     1      -7.917 -10.217  15.860  0.00  0.00    +0.035 A 
ATOM     26  C   UNL     1      -8.630 -10.004  16.215  0.00  0.00    +0.102 A 
ATOM     27  N   UNL     1      -9.085  -9.605  15.654  0.00  0.00    -0.170 NA
ATOM     28  N   UNL     1      -8.652  -9.571  14.952  0.00  0.00    -0.253 N 
ATOM     29  C   UNL     1      -8.897  -9.222  14.246  0.00  0.00    +0.153 C 
BRANCH  26  30
ATOM     30  C   UNL     1      -8.851 -10.161  16.993  0.00  0.00    +0.019 A 
ATOM     31  C   UNL     1      -8.282 -10.168  17.591  0.00  0.00    +0.003 A 
ATOM     32  C   UNL     1      -8.503 -10.325  18.370  0.00  0.00    +0.015 A 
ATOM     33  C   UNL     1      -9.293 -10.476  18.552  0.00  0.00    +0.048 A 
ATOM     34  C   UNL     1      -9.863 -10.469  17.955  0.00  0.00    +0.015 A 
ATOM     35  C   UNL     1      -9.642 -10.311  17.176  0.00  0.00    +0.003 A 
BRANCH  33  36
ATOM     36  N   UNL     1      -9.514 -10.633  19.332  0.00  0.00    -0.304 N 
ATOM     37  C   UNL     1      -8.937 -10.781  19.902  0.00  0.00    +0.112 C 
ATOM     38  C   UNL     1     -10.312 -10.642  19.541  0.00  0.00    +0.112 C 
ENDBRANCH  33  36
ENDBRANCH  26  30
ENDBRANCH  23  24
BRANCH  16  15
ATOM     15  C   UNL     1      -5.520 -10.376  12.674  0.00  0.00    +0.131 C 
BRANCH  15  14
ATOM     14  N   UNL     1      -4.841  -9.972  12.438  0.00  0.00    -0.076 NA
BRANCH  14  11
ATOM     11  S   UNL     1      -4.606  -9.987  11.647  0.00  0.00    +0.080 S 
ATOM     12  O   UNL     1      -4.397 -10.781  11.723  0.00  0.00    -0.151 OA
ATOM     13  O   UNL     1      -4.816  -9.193  11.571  0.00  0.00    -0.151 OA
BRANCH  11   9
ATOM      3  C   UNL     1      -4.692 -10.176   9.475  0.00  0.00    +0.140 A 
ATOM      4  C   UNL     1      -3.906 -10.029   9.274  0.00  0.00    +0.040 A 
ATOM      5  C   UNL     1      -3.353  -9.868   9.864  0.00  0.00    +0.041 A 
ATOM      6  C   UNL     1      -3.586  -9.854  10.656  0.00  0.00    +0.157 A 
ATOM      9  C   UNL     1      -4.373 -10.001  10.856  0.00  0.00    +0.160 A 
ATOM     10  C   UNL     1      -4.926 -10.162  10.265  0.00  0.00    +0.060 A 
BRANCH   3   2
ATOM      1  C   UNL     1      -5.353  -9.805   8.263  0.00  0.00    +0.252 C 
ATOM      2  O   UNL     1      -5.246 -10.337   8.884  0.00  0.00    -0.471 OA
ENDBRANCH   3   2
BRANCH   6   7
ATOM      7  O   UNL     1      -3.033  -9.693  11.246  0.00  0.00    -0.470 OA
ATOM      8  C   UNL     1      -2.287  -9.404  11.045  0.00  0.00    +0.253 C 
ENDBRANCH   6   7
ENDBRANCH  11   9
ENDBRANCH  14  11
ENDBRANCH  15  14
ENDBRANCH  16  15
TORSDOF 9
ENDMDL
MODEL 5
REMARK VINA RESULT:      -4.2     15.794     17.434
REMARK  Name = 
REMARK  9 active torsions:
REMARK  status: ('A' for Active; 'I' for Inactive)
REMARK    1  A    between atoms: O_2  and  C_3
REMARK    2  A    between atoms: C_6  and  O_7
REMARK    3  A    between atoms: C_9  and  S_11
REMARK    4  A    between atoms: S_11  and  N_14
REMARK    5  A    between atoms: N_14  and  C_15
REMARK    6  A    between atoms: C_15  and  C_16
REMARK    7  A    between atoms: C_23  and  C_24
REMARK    8  A    between atoms: C_26  and  C_30
REMARK    9  A    between atoms: C_33  and  N_36
REMARK                            x       y       z     vdW  Elec       q    Type
REMARK                         _______ _______ _______ _____ _____    ______ ____
ROOT
ATOM     16  C   UNL     1      -5.483  -9.004  10.000  0.00  0.00    +0.077 C 
ATOM     17  C   UNL     1      -4.802  -9.017   9.623  0.00  0.00    +0.018 C 
ATOM     18  C   UNL     1      -4.077  -9.140   9.961  0.00  0.00    +0.010 C 
ATOM     19  C   UNL     1      -3.417  -9.117   9.355  0.00  0.00    +0.018 C 
ATOM     20  C   UNL     1      -4.036  -9.086   9.563  0.00  0.00    +0.072 C 
ATOM     21  N   UNL     1      -4.740  -9.129  10.338  0.00  0.00    -0.272 NA
ATOM     22  C   UNL     1      -4.479  -9.281  11.199  0.00  0.00    +0.078 C 
ATOM     23  C   UNL     1      -3.833  -9.286  10.792  0.00  0.00    +0.056 C 
ENDROOT
BRANCH  23  24
ATOM     24  C   UNL     1      -3.066  -9.405  11.073  0.00  0.00    +0.058 A 
ATOM     25  C   UNL     1      -2.437  -8.877  11.000  0.00  0.00    +0.035 A 
ATOM     26  C   UNL     1      -1.777  -9.218  11.358  0.00  0.00    +0.102 A 
ATOM     27  N   UNL     1      -1.998  -9.956  11.653  0.00  0.00    -0.170 NA
ATOM     28  N   UNL     1      -2.796 -10.072  11.476  0.00  0.00    -0.253 N 
ATOM     29  C   UNL     1      -3.244 -10.737  11.669  0.00  0.00    +0.153 C 
BRANCH  26  30
ATOM     30  C   UNL     1      -1.026  -8.880  11.413  0.00  0.00    +0.019 A 
ATOM     31  C   UNL     1      -0.812  -8.459  12.090  0.00  0.00    +0.003 A 
ATOM     32  C   UNL     1      -0.061  -8.121  12.145  0.00  0.00    +0.015 A 
ATOM     33  C   UNL     1       0.476  -8.204  11.524  0.00  0.00    +0.048 A 
ATOM     34  C   UNL     1       0.261  -8.625  10.847  0.00  0.00    +0.015 A 
ATOM     35  C   UNL     1      -0.490  -8.963  10.792  0.00  0.00    +0.003 A 
BRANCH  33  36
ATOM     36  N   UNL     1       1.226  -7.866  11.580  0.00  0.00    -0.304 N 
ATOM     37  C   UNL     1       1.350  -7.214  12.070  0.00  0.00    +0.112 C 
ATOM     38  C   UNL     1       1.853  -8.180  11.146  0.00  0.00    +0.112 C 
ENDBRANCH  33  36
ENDBRANCH  26  30
ENDBRANCH  23  24
BRANCH  16  15
ATOM     15  C   UNL     1      -6.303  -8.927  10.036  0.00  0.00    +0.131 C 
BRANCH  15  14
ATOM     14  N   UNL     1      -6.719  -8.643   9.383  0.00  0.00    -0.076 NA
BRANCH  14  11
ATOM     11  S   UNL     1      -7.540  -8.560   9.421  0.00  0.00    +0.080 S 
ATOM     12  O   UNL     1      -7.455  -7.992  10.013  0.00  0.00    -0.151 OA
ATOM     13  O   UNL     1      -7.624  -9.128   8.829  0.00  0.00    -0.151 OA
BRANCH  11   9
ATOM      3  C   UNL     1      -9.624  -8.908   9.966  0.00  0.00    +0.140 A 
ATOM      4  C   UNL     1      -9.999  -8.313   9.535  0.00  0.00    +0.040 A 
ATOM      5  C   UNL     1      -9.555  -7.801   9.066  0.00  0.00    +0.041 A 
ATOM      6  C   UNL     1      -8.734  -7.883   9.028  0.00  0.00    +0.157 A 
ATOM      9  C   UNL     1      -8.359  -8.478   9.459  0.00  0.00    +0.160 A 
ATOM     10  C   UNL     1      -8.804  -8.991   9.928  0.00  0.00    +0.060 A 
BRANCH   3   2
ATOM      1  C   UNL     1     -10.578  -9.118  11.009  0.00  0.00    +0.252 C 
ATOM      2  O   UNL     1     -10.069  -9.421  10.436  0.00  0.00    -0.471 OA
ENDBRANCH   3   2
BRANCH   6   7
ATOM      7  O   UNL     1      -8.290  -7.371   8.559  0.00  0.00    -0.470 OA
ATOM      8  C   UNL     1      -8.657  -6.739   8.174  0.00  0.00    +0.253 C 
ENDBRANCH   6   7
ENDBRANCH  11   9
ENDBRANCH  14  11
ENDBRANCH  15  14
ENDBRANCH  16  15
TORSDOF 9
ENDMDL
MODEL 6
REMARK VINA RESULT:      -3.8     15.599     17.956
REMARK  Name = 
REMARK  9 active torsions:
REMARK  status: ('A' for Active; 'I' for Inactive)
REMARK    1  A    between atoms: O_2  and  C_3
REMARK    2  A    between atoms: C_6  and  O_7
REMARK    3  A    between atoms: C_9  and  S_11
REMARK    4  A    between atoms: S_11  and  N_14
REMARK    5  A    between atoms: N_14  and  C_15
REMARK    6  A    between atoms: C_15  and  C_16
REMARK    7  A    between atoms: C_23  and  C_24
REMARK    8  A    between atoms: C_26  and  C_30
REMARK    9  A    between atoms: C_33  and  N_36
REMARK                            x       y       z     vdW  Elec       q    Type
REMARK                         _______ _______ _______ _____ _____    ______ ____
ROOT
ATOM     16  C   UNL     1      -6.020 -10.590  12.716  0.00  0.00    +0.077 C 
ATOM     17  C   UNL     1      -6.179 -10.637  13.476  0.00  0.00    +0.018 C 
ATOM     18  C   UNL     1      -6.899 -10.493  13.817  0.00  0.00    +0.010 C 
ATOM     19  C   UNL     1      -6.875 -10.601  14.706  0.00  0.00    +0.018 C 
ATOM     20  C   UNL     1      -6.630 -10.594  14.101  0.00  0.00    +0.072 C 
ATOM     21  N   UNL     1      -6.751 -10.445  13.070  0.00  0.00    -0.272 NA
ATOM     22  C   UNL     1      -7.559 -10.200  12.725  0.00  0.00    +0.078 C 
ATOM     23  C   UNL     1      -7.673 -10.257  13.477  0.00  0.00    +0.056 C 
ENDROOT
BRANCH  23  24
ATOM     24  C   UNL     1      -8.378 -10.125  13.886  0.00  0.00    +0.058 A 
ATOM     25  C   UNL     1      -8.453  -9.729  14.606  0.00  0.00    +0.035 A 
ATOM     26  C   UNL     1      -9.252  -9.725  14.812  0.00  0.00    +0.102 A 
ATOM     27  N   UNL     1      -9.670 -10.118  14.219  0.00  0.00    -0.170 NA
ATOM     28  N   UNL     1      -9.130 -10.365  13.647  0.00  0.00    -0.253 N 
ATOM     29  C   UNL     1      -9.309 -10.780  12.956  0.00  0.00    +0.153 C 
BRANCH  26  30
ATOM     30  C   UNL     1      -9.576  -9.387  15.491  0.00  0.00    +0.019 A 
ATOM     31  C   UNL     1      -9.898  -9.869  16.078  0.00  0.00    +0.003 A 
ATOM     32  C   UNL     1     -10.223  -9.532  16.757  0.00  0.00    +0.015 A 
ATOM     33  C   UNL     1     -10.226  -8.712  16.850  0.00  0.00    +0.048 A 
ATOM     34  C   UNL     1      -9.904  -8.229  16.262  0.00  0.00    +0.015 A 
ATOM     35  C   UNL     1      -9.579  -8.567  15.583  0.00  0.00    +0.003 A 
BRANCH  33  36
ATOM     36  N   UNL     1     -10.551  -8.375  17.529  0.00  0.00    -0.304 N 
ATOM     37  C   UNL     1     -10.719  -7.568  17.550  0.00  0.00    +0.112 C 
ATOM     38  C   UNL     1     -10.707  -8.846  18.188  0.00  0.00    +0.112 C 
ENDBRANCH  33  36
ENDBRANCH  26  30
ENDBRANCH  23  24
BRANCH  16  15
ATOM     15  C   UNL     1      -5.516 -10.643  12.065  0.00  0.00    +0.131 C 
BRANCH  15  14
ATOM     14  N   UNL     1      -5.399  -9.988  11.578  0.00  0.00    -0.076 NA
BRANCH  14  11
ATOM     11  S   UNL     1      -4.652  -9.835  11.263  0.00  0.00    +0.080 S 
ATOM     12  O   UNL     1      -4.662  -9.083  11.601  0.00  0.00    -0.151 OA
ATOM     13  O   UNL     1      -4.642 -10.588  10.926  0.00  0.00    -0.151 OA
BRANCH  11   9
ATOM      3  C   UNL     1      -2.482  -9.699  11.077  0.00  0.00    +0.140 A 
ATOM      4  C   UNL     1      -2.410  -9.382  10.319  0.00  0.00    +0.040 A 
ATOM      5  C   UNL     1      -3.085  -9.215   9.876  0.00  0.00    +0.041 A 
ATOM      6  C   UNL     1      -3.833  -9.366  10.191  0.00  0.00    +0.157 A 
ATOM      9  C   UNL     1      -3.905  -9.684  10.949  0.00  0.00    +0.160 A 
ATOM     10  C   UNL     1      -3.229  -9.851  11.392  0.00  0.00    +0.060 A 
BRANCH   3   2
ATOM      1  C   UNL     1      -1.068  -9.606  11.260  0.00  0.00    +0.252 C 
ATOM      2  O   UNL     1      -1.806  -9.866  11.520  0.00  0.00    -0.471 OA
ENDBRANCH   3   2
BRANCH   6   7
ATOM      7  O   UNL     1      -4.508  -9.200   9.748  0.00  0.00    -0.470 OA
ATOM      8  C   UNL     1      -4.442  -8.801   9.028  0.00  0.00    +0.253 C 
ENDBRANCH   6   7
ENDBRANCH  11   9
ENDBRANCH  14  11
ENDBRANCH  15  14
ENDBRANCH  16  15
TORSDOF 9
ENDMDL
MODEL 7
REMARK VINA RESULT:      -3.7     15.581     17.489
REMARK  Name = 
REMARK  9 active torsions:
REMARK  status: ('A' for Active; 'I' for Inactive)
REMARK    1  A    between atoms: O_2  and  C_3
REMARK    2  A    between atoms: C_6  and  O_7
REMARK    3  A    between atoms: C_9  and  S_11
REMARK    4  A    between atoms: S_11  and  N_14
REMARK    5  A    between atoms: N_14  and  C_15
REMARK    6  A    between atoms: C_15  and  C_16
REMARK    7  A    between atoms: C_23  and  C_24
REMARK    8  A    between atoms: C_26  and  C_30
REMARK    9  A    between atoms: C_33  and  N_36
REMARK                            x       y       z     vdW  Elec       q    Type
REMARK                         _______ _______ _______ _____ _____    ______ ____
ROOT
ATOM     16  C   UNL     1      -7.180 -10.026  12.272  0.00  0.00    +0.077 C 
ATOM     17  C   UNL     1      -6.720 -10.343  12.813  0.00  0.00    +0.018 C 
ATOM     18  C   UNL     1      -6.860 -10.342  13.611  0.00  0.00    +0.010 C 
ATOM     19  C   UNL     1      -6.209 -10.760  14.064  0.00  0.00    +0.018 C 
ATOM     20  C   UNL     1      -6.512 -10.533  13.532  0.00  0.00    +0.072 C 
ATOM     21  N   UNL     1      -7.315 -10.028  13.086  0.00  0.00    -0.272 NA
ATOM     22  C   UNL     1      -7.994  -9.689  13.593  0.00  0.00    +0.078 C 
ATOM     23  C   UNL     1      -7.516 -10.013  14.092  0.00  0.00    +0.056 C 
ENDROOT
BRANCH  23  24
ATOM     24  C   UNL     1      -7.598 -10.046  14.913  0.00  0.00    +0.058 A 
ATOM     25  C   UNL     1      -6.994 -10.194  15.454  0.00  0.00    +0.035 A 
ATOM     26  C   UNL     1      -7.321 -10.177  16.211  0.00  0.00    +0.102 A 
ATOM     27  N   UNL     1      -8.127 -10.019  16.137  0.00  0.00    -0.170 NA
ATOM     28  N   UNL     1      -8.299  -9.938  15.334  0.00  0.00    -0.253 N 
ATOM     29  C   UNL     1      -9.040  -9.777  15.009  0.00  0.00    +0.153 C 
BRANCH  26  30
ATOM     30  C   UNL     1      -6.914 -10.298  16.918  0.00  0.00    +0.019 A 
ATOM     31  C   UNL     1      -7.316 -10.581  17.582  0.00  0.00    +0.003 A 
ATOM     32  C   UNL     1      -6.909 -10.701  18.290  0.00  0.00    +0.015 A 
ATOM     33  C   UNL     1      -6.101 -10.539  18.335  0.00  0.00    +0.048 A 
ATOM     34  C   UNL     1      -5.700 -10.256  17.671  0.00  0.00    +0.015 A 
ATOM     35  C   UNL     1      -6.107 -10.136  16.963  0.00  0.00    +0.003 A 
BRANCH  33  36
ATOM     36  N   UNL     1      -5.695 -10.659  19.043  0.00  0.00    -0.304 N 
ATOM     37  C   UNL     1      -4.880 -10.781  19.035  0.00  0.00    +0.112 C 
ATOM     38  C   UNL     1      -6.105 -10.658  19.758  0.00  0.00    +0.112 C 
ENDBRANCH  33  36
ENDBRANCH  26  30
ENDBRANCH  23  24
BRANCH  16  15
ATOM     15  C   UNL     1      -7.378  -9.836  11.494  0.00  0.00    +0.131 C 
BRANCH  15  14
ATOM     14  N   UNL     1      -6.803  -9.537  10.983  0.00  0.00    -0.076 NA
BRANCH  14  11
ATOM     11  S   UNL     1      -7.027  -9.192  10.268  0.00  0.00    +0.080 S 
ATOM     12  O   UNL     1      -7.377  -9.901  10.034  0.00  0.00    -0.151 OA
ATOM     13  O   UNL     1      -6.677  -8.483  10.502  0.00  0.00    -0.151 OA
BRANCH  11   9
ATOM      3  C   UNL     1      -8.259  -8.278   8.715  0.00  0.00    +0.140 A 
ATOM      4  C   UNL     1      -7.698  -8.155   8.124  0.00  0.00    +0.040 A 
ATOM      5  C   UNL     1      -6.913  -8.377   8.246  0.00  0.00    +0.041 A 
ATOM      6  C   UNL     1      -6.689  -8.723   8.961  0.00  0.00    +0.157 A 
ATOM      9  C   UNL     1      -7.250  -8.846   9.553  0.00  0.00    +0.160 A 
ATOM     10  C   UNL     1      -8.036  -8.624   9.430  0.00  0.00    +0.060 A 
BRANCH   3   2
ATOM      1  C   UNL     1      -9.502  -7.792   9.225  0.00  0.00    +0.252 C 
ATOM      2  O   UNL     1      -9.044  -8.056   8.592  0.00  0.00    -0.471 OA
ENDBRANCH   3   2
BRANCH   6   7
ATOM      7  O   UNL     1      -5.905  -8.945   9.084  0.00  0.00    -0.470 OA
ATOM      8  C   UNL     1      -5.464  -9.265   8.464  0.00  0.00    +0.253 C 
ENDBRANCH   6   7
ENDBRANCH  11   9
ENDBRANCH  14  11
ENDBRANCH  15  14
ENDBRANCH  16  15
TORSDOF 9
ENDMDL
MODEL 8
REMARK VINA RESULT:      -3.4     15.793     17.731
REMARK  Name = 
REMARK  9 active torsions:
REMARK  status: ('A' for Active; 'I' for Inactive)
REMARK    1  A    between atoms: O_2  and  C_3
REMARK    2  A    between atoms: C_6  and  O_7
REMARK    3  A    between atoms: C_9  and  S_11
REMARK    4  A    between atoms: S_11  and  N_14
REMARK    5  A    between atoms: N_14  and  C_15
REMARK    6  A    between atoms: C_15  and  C_16
REMARK    7  A    between atoms: C_23  and  C_24
REMARK    8  A    between atoms: C_26  and  C_30
REMARK    9  A    between atoms: C_33  and  N_36
REMARK                            x       y       z     vdW  Elec       q    Type
REMARK                         _______ _______ _______ _____ _____    ______ ____
ROOT
ATOM     16  C   UNL     1      -7.710 -10.402  12.665  0.00  0.00    +0.077 C 
ATOM     17  C   UNL     1      -7.928 -10.137  13.364  0.00  0.00    +0.018 C 
ATOM     18  C   UNL     1      -7.488 -10.181  14.043  0.00  0.00    +0.010 C 
ATOM     19  C   UNL     1      -7.917  -9.819  14.742  0.00  0.00    +0.018 C 
ATOM     20  C   UNL     1      -7.842 -10.000  14.119  0.00  0.00    +0.072 C 
ATOM     21  N   UNL     1      -7.268 -10.442  13.361  0.00  0.00    -0.272 NA
ATOM     22  C   UNL     1      -6.440 -10.781  13.539  0.00  0.00    +0.078 C 
ATOM     23  C   UNL     1      -6.691 -10.509  14.207  0.00  0.00    +0.056 C 
ENDROOT
BRANCH  23  24
ATOM     24  C   UNL     1      -6.295 -10.521  14.931  0.00  0.00    +0.058 A 
ATOM     25  C   UNL     1      -6.648 -10.516  15.676  0.00  0.00    +0.035 A 
ATOM     26  C   UNL     1      -6.049 -10.532  16.242  0.00  0.00    +0.102 A 
ATOM     27  N   UNL     1      -5.325 -10.548  15.847  0.00  0.00    -0.170 NA
ATOM     28  N   UNL     1      -5.477 -10.541  15.036  0.00  0.00    -0.253 N 
ATOM     29  C   UNL     1      -4.911 -10.552  14.436  0.00  0.00    +0.153 C 
BRANCH  26  30
ATOM     30  C   UNL     1      -6.155 -10.533  17.060  0.00  0.00    +0.019 A 
ATOM     31  C   UNL     1      -6.892 -10.718  17.382  0.00  0.00    +0.003 A 
ATOM     32  C   UNL     1      -6.997 -10.718  18.200  0.00  0.00    +0.015 A 
ATOM     33  C   UNL     1      -6.366 -10.535  18.698  0.00  0.00    +0.048 A 
ATOM     34  C   UNL     1      -5.628 -10.350  18.376  0.00  0.00    +0.015 A 
ATOM     35  C   UNL     1      -5.523 -10.349  17.558  0.00  0.00    +0.003 A 
BRANCH  33  36
ATOM     36  N   UNL     1      -6.472 -10.536  19.516  0.00  0.00    -0.304 N 
ATOM     37  C   UNL     1      -7.192 -10.773  19.838  0.00  0.00    +0.112 C 
ATOM     38  C   UNL     1      -5.856 -10.300  20.011  0.00  0.00    +0.112 C 
ENDBRANCH  33  36
ENDBRANCH  26  30
ENDBRANCH  23  24
BRANCH  16  15
ATOM     15  C   UNL     1      -7.828 -10.536  11.860  0.00  0.00    +0.131 C 
BRANCH  15  14
ATOM     14  N   UNL     1      -8.198  -9.963  11.396  0.00  0.00    -0.076 NA
BRANCH  14  11
ATOM     11  S   UNL     1      -8.073  -9.950  10.581  0.00  0.00    +0.080 S 
ATOM     12  O   UNL     1      -7.959 -10.767  10.584  0.00  0.00    -0.151 OA
ATOM     13  O   UNL     1      -8.188  -9.133  10.577  0.00  0.00    -0.151 OA
BRANCH  11   9
ATOM      3  C   UNL     1      -7.064 -10.031   8.648  0.00  0.00    +0.140 A 
ATOM      4  C   UNL     1      -7.698  -9.908   8.135  0.00  0.00    +0.040 A 
ATOM      5  C   UNL     1      -8.457  -9.799   8.438  0.00  0.00    +0.041 A 
ATOM      6  C   UNL     1      -8.583  -9.813   9.253  0.00  0.00    +0.157 A 
ATOM      9  C   UNL     1      -7.949  -9.936   9.766  0.00  0.00    +0.160 A 
ATOM     10  C   UNL     1      -7.188 -10.045   9.463  0.00  0.00    +0.060 A 
BRANCH   3   2
ATOM      1  C   UNL     1      -5.769  -9.512   8.338  0.00  0.00    +0.252 C 
ATOM      2  O   UNL     1      -6.303 -10.139   8.345  0.00  0.00    -0.471 OA
ENDBRANCH   3   2
BRANCH   6   7
ATOM      7  O   UNL     1      -9.342  -9.704   9.555  0.00  0.00    -0.470 OA
ATOM      8  C   UNL     1      -9.978  -9.586   9.043  0.00  0.00    +0.253 C 
ENDBRANCH   6   7
ENDBRANCH  11   9
ENDBRANCH  14  11
ENDBRANCH  15  14
ENDBRANCH  16  15
TORSDOF 9
ENDMDL
