MODEL 1
REMARK VINA RESULT:     -11.8      0.000      0.000
REMARK  Name = 
REMARK  5 active torsions:
REMARK  status: ('A' for Active; 'I' for Inactive)
REMARK    1  A    between atoms: O_2  and  C_3
REMARK    2  A    between atoms: C_6  and  N_7
REMARK    3  A    between atoms: N_10  and  C_11
REMARK    4  A    between atoms: C_13  and  C_17
REMARK    5  A    between atoms: C_19  and  C_22
REMARK                            x       y       z     vdW  Elec       q    Type
REMARK                         _______ _______ _______ _____ _____    ______ ____
ROOT
ATOM     11  C   UNL     1      -5.005   1.747  25.037  0.00  0.00    +0.115 C 
ATOM     12  C   UNL     1      -4.253   2.040  25.207  0.00  0.00    +0.049 C 
ATOM     13  C   UNL     1      -4.327   2.843  25.384  0.00  0.00    +0.139 C 
ATOM     14  N   UNL     1      -5.124   3.045  25.322  0.00  0.00    -0.264 NA
ATOM     15  C   UNL     1      -5.446   3.793  25.452  0.00  0.00    +0.090 C 
ATOM     16  C   UNL     1      -5.543   2.367  25.108  0.00  0.00    +0.094 C 
ENDROOT
BRANCH  13  17
ATOM     17  C   UNL     1      -3.711   3.353  25.586  0.00  0.00    +0.251 A 
ATOM     18  N   UNL     1      -3.052   3.526  25.122  0.00  0.00    -0.190 NA
ATOM     19  C   UNL     1      -2.580   4.060  25.538  0.00  0.00    +0.205 A 
ATOM     20  N   UNL     1      -2.948   4.217  26.259  0.00  0.00    -0.056 NA
ATOM     21  O   UNL     1      -3.647   3.780  26.289  0.00  0.00    -0.336 OA
BRANCH  19  22
ATOM     22  C   UNL     1      -1.865   4.381  25.278  0.00  0.00    +0.058 A 
ATOM     23  C   UNL     1      -1.801   5.192  25.146  0.00  0.00    +0.006 A 
ATOM     24  C   UNL     1      -1.087   5.512  24.887  0.00  0.00    +0.021 A 
ATOM     25  C   UNL     1      -0.436   5.021  24.758  0.00  0.00    +0.099 A 
ATOM     26  N   UNL     1      -0.501   4.209  24.889  0.00  0.00    -0.242 NA
ATOM     27  C   UNL     1      -1.216   3.889  25.149  0.00  0.00    +0.102 A 
ENDBRANCH  19  22
ENDBRANCH  13  17
BRANCH  11  10
ATOM      7  N   UNL     1      -4.778  -0.385  24.627  0.00  0.00    -0.161 NA
ATOM      8  C   UNL     1      -4.596   0.393  24.833  0.00  0.00    +0.343 C 
ATOM      9  O   UNL     1      -3.824   0.596  25.041  0.00  0.00    -0.249 OA
ATOM     10  N   UNL     1      -5.187   0.969  24.831  0.00  0.00    -0.187 NA
BRANCH   7   6
ATOM      3  C   UNL     1      -3.005  -2.112  24.632  0.00  0.00    +0.139 A 
ATOM      4  C   UNL     1      -3.343  -1.871  23.920  0.00  0.00    +0.038 A 
ATOM      5  C   UNL     1      -3.934  -1.295  23.918  0.00  0.00    +0.020 A 
ATOM      6  C   UNL     1      -4.187  -0.960  24.629  0.00  0.00    +0.075 A 
ATOM     28  C   UNL     1      -3.848  -1.202  25.342  0.00  0.00    +0.020 A 
ATOM     29  C   UNL     1      -3.258  -1.777  25.344  0.00  0.00    +0.038 A 
BRANCH   3   2
ATOM      1  C   UNL     1      -1.621  -2.466  24.593  0.00  0.00    +0.252 C 
ATOM      2  O   UNL     1      -2.414  -2.688  24.635  0.00  0.00    -0.471 OA
ENDBRANCH   3   2
ENDBRANCH   7   6
ENDBRANCH  11  10
TORSDOF 5
ENDMDL
MODEL 2
REMARK VINA RESULT:     -10.8      2.349      3.353
REMARK  Name = 
REMARK  5 active torsions:
REMARK  status: ('A' for Active; 'I' for Inactive)
REMARK    1  A    between atoms: O_2  and  C_3
REMARK    2  A    between atoms: C_6  and  N_7
REMARK    3  A    between atoms: N_10  and  C_11
REMARK    4  A    between atoms: C_13  and  C_17
REMARK    5  A    between atoms: C_19  and  C_22
REMARK                            x       y       z     vdW  Elec       q    Type
REMARK                         _______ _______ _______ _____ _____    ______ ____
ROOT
ATOM     11  C   UNL     1      -0.314  -0.020  24.849  0.00  0.00    +0.115 C 
ATOM     12  C   UNL     1      -0.500   0.648  25.296  0.00  0.00    +0.049 C 
ATOM     13  C   UNL     1      -0.180   1.306  24.914  0.00  0.00    +0.139 C 
ATOM     14  N   UNL     1       0.203   1.045  24.232  0.00  0.00    -0.264 NA
ATOM     15  C   UNL     1       0.599   1.519  23.686  0.00  0.00    +0.090 C 
ATOM     16  C   UNL     1       0.120   0.224  24.192  0.00  0.00    +0.094 C 
ENDROOT
BRANCH  13  17
ATOM     17  C   UNL     1      -0.234   2.089  25.170  0.00  0.00    +0.251 A 
ATOM     18  N   UNL     1      -0.839   2.618  24.986  0.00  0.00    -0.190 NA
ATOM     19  C   UNL     1      -0.671   3.336  25.358  0.00  0.00    +0.205 A 
ATOM     20  N   UNL     1       0.037   3.250  25.771  0.00  0.00    -0.056 NA
ATOM     21  O   UNL     1       0.308   2.479  25.655  0.00  0.00    -0.336 OA
BRANCH  19  22
ATOM     22  C   UNL     1      -1.132   4.020  25.322  0.00  0.00    +0.058 A 
ATOM     23  C   UNL     1      -0.833   4.701  24.965  0.00  0.00    +0.006 A 
ATOM     24  C   UNL     1      -1.293   5.384  24.930  0.00  0.00    +0.021 A 
ATOM     25  C   UNL     1      -2.053   5.387  25.252  0.00  0.00    +0.099 A 
ATOM     26  N   UNL     1      -2.352   4.707  25.609  0.00  0.00    -0.242 NA
ATOM     27  C   UNL     1      -1.891   4.022  25.645  0.00  0.00    +0.102 A 
ENDBRANCH  19  22
ENDBRANCH  13  17
BRANCH  11  10
ATOM      7  N   UNL     1      -1.478  -1.861  24.988  0.00  0.00    -0.161 NA
ATOM      8  C   UNL     1      -1.267  -1.084  24.809  0.00  0.00    +0.343 C 
ATOM      9  O   UNL     1      -1.796  -0.593  24.409  0.00  0.00    -0.249 OA
ATOM     10  N   UNL     1      -0.525  -0.797  25.028  0.00  0.00    -0.187 NA
BRANCH   7   6
ATOM      3  C   UNL     1      -3.703  -2.721  24.328  0.00  0.00    +0.139 A 
ATOM      4  C   UNL     1      -3.031  -2.951  23.908  0.00  0.00    +0.038 A 
ATOM      5  C   UNL     1      -2.289  -2.664  24.128  0.00  0.00    +0.020 A 
ATOM      6  C   UNL     1      -2.219  -2.147  24.768  0.00  0.00    +0.075 A 
ATOM     28  C   UNL     1      -2.892  -1.918  25.188  0.00  0.00    +0.020 A 
ATOM     29  C   UNL     1      -3.633  -2.205  24.968  0.00  0.00    +0.038 A 
BRANCH   3   2
ATOM      1  C   UNL     1      -4.877  -2.626  23.519  0.00  0.00    +0.252 C 
ATOM      2  O   UNL     1      -4.445  -3.008  24.108  0.00  0.00    -0.471 OA
ENDBRANCH   3   2
ENDBRANCH   7   6
ENDBRANCH  11  10
TORSDOF 5
ENDMDL
MODEL 3
REMARK VINA RESULT:     -10.6      2.141      5.978
REMARK  Name = 
REMARK  5 active torsions:
REMARK  status: ('A' for Active; 'I' for Inactive)
REMARK    1  A    between atoms: O_2  and  C_3
REMARK    2  A    between atoms: C_6  and  N_7
REMARK    3  A    between atoms: N_10  and  C_11
REMARK    4  A    between atoms: C_13  and  C_17
REMARK    5  A    between atoms: C_19  and  C_22
REMARK                            x       y       z     vdW  Elec       q    Type
REMARK                         _______ _______ _______ _____ _____    ______ ____
ROOT
ATOM     11  C   UNL     1      -0.654   1.693  24.571  0.00  0.00    +0.115 C 
ATOM     12  C   UNL     1      -1.038   1.020  24.855  0.00  0.00    +0.049 C 
ATOM     13  C   UNL     1      -0.664   0.359  24.531  0.00  0.00    +0.139 C 
ATOM     14  N   UNL     1      -0.049   0.624  24.049  0.00  0.00    -0.264 NA
ATOM     15  C   UNL     1       0.469   0.149  23.618  0.00  0.00    +0.090 C 
ATOM     16  C   UNL     1      -0.043   1.449  24.074  0.00  0.00    +0.094 C 
ENDROOT
BRANCH  13  17
ATOM     17  C   UNL     1      -0.868  -0.429  24.667  0.00  0.00    +0.251 A 
ATOM     18  N   UNL     1      -1.605  -0.770  24.522  0.00  0.00    -0.190 NA
ATOM     19  C   UNL     1      -1.564  -1.566  24.737  0.00  0.00    +0.205 A 
ATOM     20  N   UNL     1      -0.802  -1.716  25.015  0.00  0.00    -0.056 NA
ATOM     21  O   UNL     1      -0.372  -1.013  24.972  0.00  0.00    -0.336 OA
BRANCH  19  22
ATOM     22  C   UNL     1      -2.178  -2.115  24.683  0.00  0.00    +0.058 A 
ATOM     23  C   UNL     1      -2.877  -1.995  25.104  0.00  0.00    +0.006 A 
ATOM     24  C   UNL     1      -3.490  -2.544  25.050  0.00  0.00    +0.021 A 
ATOM     25  C   UNL     1      -3.404  -3.214  24.575  0.00  0.00    +0.099 A 
ATOM     26  N   UNL     1      -2.705  -3.334  24.154  0.00  0.00    -0.242 NA
ATOM     27  C   UNL     1      -2.091  -2.785  24.208  0.00  0.00    +0.102 A 
ENDBRANCH  19  22
ENDBRANCH  13  17
BRANCH  11  10
ATOM      7  N   UNL     1      -1.829   3.469  25.050  0.00  0.00    -0.161 NA
ATOM      8  C   UNL     1      -1.636   2.688  24.867  0.00  0.00    +0.343 C 
ATOM      9  O   UNL     1      -2.230   2.120  24.797  0.00  0.00    -0.249 OA
ATOM     10  N   UNL     1      -0.847   2.473  24.755  0.00  0.00    -0.187 NA
BRANCH   7   6
ATOM      3  C   UNL     1      -4.196   4.109  25.387  0.00  0.00    +0.139 A 
ATOM      4  C   UNL     1      -3.903   3.999  24.624  0.00  0.00    +0.038 A 
ATOM      5  C   UNL     1      -3.114   3.786  24.511  0.00  0.00    +0.020 A 
ATOM      6  C   UNL     1      -2.618   3.682  25.163  0.00  0.00    +0.075 A 
ATOM     28  C   UNL     1      -2.911   3.792  25.926  0.00  0.00    +0.020 A 
ATOM     29  C   UNL     1      -3.699   4.006  26.039  0.00  0.00    +0.038 A 
BRANCH   3   2
ATOM      1  C   UNL     1      -5.564   3.741  25.572  0.00  0.00    +0.252 C 
ATOM      2  O   UNL     1      -4.985   4.323  25.500  0.00  0.00    -0.471 OA
ENDBRANCH   3   2
ENDBRANCH   7   6
ENDBRANCH  11  10
TORSDOF 5
ENDMDL
MODEL 4
REMARK VINA RESULT:     -10.3      4.374      5.853
REMARK  Name = 
REMARK  5 active torsions:
REMARK  status: ('A' for Active; 'I' for Inactive)
REMARK    1  A    between atoms: O_2  and  C_3
REMARK    2  A    between atoms: C_6  and  N_7
REMARK    3  A    between atoms: N_10  and  C_11
REMARK    4  A    between atoms: C_13  and  C_17
REMARK    5  A    between atoms: C_19  and  C_22
REMARK                            x       y       z     vdW  Elec       q    Type
REMARK                         _______ _______ _______ _____ _____    ______ ____
ROOT
ATOM     11  C   UNL     1       0.158   0.009  23.409  0.00  0.00    +0.115 C 
ATOM     12  C   UNL     1      -0.309   0.676  23.548  0.00  0.00    +0.049 C 
ATOM     13  C   UNL     1      -0.821   0.502  24.171  0.00  0.00    +0.139 C 
ATOM     14  N   UNL     1      -0.671  -0.271  24.417  0.00  0.00    -0.264 NA
ATOM     15  C   UNL     1      -1.057  -0.669  25.027  0.00  0.00    +0.090 C 
ATOM     16  C   UNL     1      -0.066  -0.575  23.946  0.00  0.00    +0.094 C 
ENDROOT
BRANCH  13  17
ATOM     17  C   UNL     1      -1.384   1.013  24.491  0.00  0.00    +0.251 A 
ATOM     18  N   UNL     1      -2.154   1.121  24.215  0.00  0.00    -0.190 NA
ATOM     19  C   UNL     1      -2.522   1.680  24.698  0.00  0.00    +0.205 A 
ATOM     20  N   UNL     1      -1.981   1.917  25.272  0.00  0.00    -0.056 NA
ATOM     21  O   UNL     1      -1.277   1.505  25.145  0.00  0.00    -0.336 OA
BRANCH  19  22
ATOM     22  C   UNL     1      -3.297   1.953  24.619  0.00  0.00    +0.058 A 
ATOM     23  C   UNL     1      -3.931   1.441  24.749  0.00  0.00    +0.006 A 
ATOM     24  C   UNL     1      -4.704   1.714  24.671  0.00  0.00    +0.021 A 
ATOM     25  C   UNL     1      -4.846   2.500  24.463  0.00  0.00    +0.099 A 
ATOM     26  N   UNL     1      -4.212   3.012  24.333  0.00  0.00    -0.242 NA
ATOM     27  C   UNL     1      -3.438   2.739  24.411  0.00  0.00    +0.102 A 
ENDBRANCH  19  22
ENDBRANCH  13  17
BRANCH  11  10
ATOM      7  N   UNL     1       2.121   0.012  22.455  0.00  0.00    -0.161 NA
ATOM      8  C   UNL     1       1.534   0.081  23.031  0.00  0.00    +0.343 C 
ATOM      9  O   UNL     1       1.734   0.290  23.803  0.00  0.00    -0.249 OA
ATOM     10  N   UNL     1       0.745  -0.060  22.834  0.00  0.00    -0.187 NA
BRANCH   7   6
ATOM      3  C   UNL     1       4.487   0.431  23.047  0.00  0.00    +0.139 A 
ATOM      4  C   UNL     1       4.168  -0.324  23.134  0.00  0.00    +0.038 A 
ATOM      5  C   UNL     1       3.380  -0.465  22.937  0.00  0.00    +0.020 A 
ATOM      6  C   UNL     1       2.909   0.152  22.653  0.00  0.00    +0.075 A 
ATOM     28  C   UNL     1       3.229   0.908  22.566  0.00  0.00    +0.020 A 
ATOM     29  C   UNL     1       4.017   1.048  22.763  0.00  0.00    +0.038 A 
BRANCH   3   2
ATOM      1  C   UNL     1       5.608   0.206  23.904  0.00  0.00    +0.252 C 
ATOM      2  O   UNL     1       5.276   0.572  23.245  0.00  0.00    -0.471 OA
ENDBRANCH   3   2
ENDBRANCH   7   6
ENDBRANCH  11  10
TORSDOF 5
ENDMDL
MODEL 5
REMARK VINA RESULT:     -10.1      1.199      5.500
REMARK  Name = 
REMARK  5 active torsions:
REMARK  status: ('A' for Active; 'I' for Inactive)
REMARK    1  A    between atoms: O_2  and  C_3
REMARK    2  A    between atoms: C_6  and  N_7
REMARK    3  A    between atoms: N_10  and  C_11
REMARK    4  A    between atoms: C_13  and  C_17
REMARK    5  A    between atoms: C_19  and  C_22
REMARK                            x       y       z     vdW  Elec       q    Type
REMARK                         _______ _______ _______ _____ _____    ______ ____
ROOT
ATOM     11  C   UNL     1      -4.478   2.532  25.641  0.00  0.00    +0.115 C 
ATOM     12  C   UNL     1      -4.141   1.825  25.382  0.00  0.00    +0.049 C 
ATOM     13  C   UNL     1      -4.744   1.354  25.074  0.00  0.00    +0.139 C 
ATOM     14  N   UNL     1      -5.453   1.770  25.143  0.00  0.00    -0.264 NA
ATOM     15  C   UNL     1      -6.197   1.505  24.903  0.00  0.00    +0.090 C 
ATOM     16  C   UNL     1      -5.288   2.498  25.494  0.00  0.00    +0.094 C 
ENDROOT
BRANCH  13  17
ATOM     17  C   UNL     1      -4.654   0.599  24.753  0.00  0.00    +0.251 A 
ATOM     18  N   UNL     1      -4.239  -0.027  25.094  0.00  0.00    -0.190 NA
ATOM     19  C   UNL     1      -4.292  -0.675  24.586  0.00  0.00    +0.205 A 
ATOM     20  N   UNL     1      -4.739  -0.450  23.931  0.00  0.00    -0.056 NA
ATOM     21  O   UNL     1      -4.963   0.338  24.033  0.00  0.00    -0.336 OA
BRANCH  19  22
ATOM     22  C   UNL     1      -3.956  -1.418  24.712  0.00  0.00    +0.058 A 
ATOM     23  C   UNL     1      -3.989  -1.991  24.119  0.00  0.00    +0.006 A 
ATOM     24  C   UNL     1      -3.654  -2.734  24.245  0.00  0.00    +0.021 A 
ATOM     25  C   UNL     1      -3.284  -2.904  24.963  0.00  0.00    +0.099 A 
ATOM     26  N   UNL     1      -3.250  -2.331  25.555  0.00  0.00    -0.242 NA
ATOM     27  C   UNL     1      -3.586  -1.587  25.430  0.00  0.00    +0.102 A 
ENDBRANCH  19  22
ENDBRANCH  13  17
BRANCH  11  10
ATOM      7  N   UNL     1      -2.980   4.081  25.988  0.00  0.00    -0.161 NA
ATOM      8  C   UNL     1      -3.383   3.450  25.642  0.00  0.00    +0.343 C 
ATOM      9  O   UNL     1      -3.096   3.107  24.949  0.00  0.00    -0.249 OA
ATOM     10  N   UNL     1      -4.075   3.162  25.988  0.00  0.00    -0.187 NA
BRANCH   7   6
ATOM      3  C   UNL     1      -0.907   4.944  24.948  0.00  0.00    +0.139 A 
ATOM      4  C   UNL     1      -1.590   5.405  24.950  0.00  0.00    +0.038 A 
ATOM      5  C   UNL     1      -2.281   5.118  25.296  0.00  0.00    +0.020 A 
ATOM      6  C   UNL     1      -2.289   4.368  25.642  0.00  0.00    +0.075 A 
ATOM     28  C   UNL     1      -1.605   3.906  25.639  0.00  0.00    +0.020 A 
ATOM     29  C   UNL     1      -0.914   4.194  25.293  0.00  0.00    +0.038 A 
BRANCH   3   2
ATOM      1  C   UNL     1       0.039   4.931  23.876  0.00  0.00    +0.252 C 
ATOM      2  O   UNL     1      -0.215   5.231  24.601  0.00  0.00    -0.471 OA
ENDBRANCH   3   2
ENDBRANCH   7   6
ENDBRANCH  11  10
TORSDOF 5
ENDMDL
MODEL 6
REMARK VINA RESULT:      -9.6      4.497      6.825
REMARK  Name = 
REMARK  5 active torsions:
REMARK  status: ('A' for Active; 'I' for Inactive)
REMARK    1  A    between atoms: O_2  and  C_3
REMARK    2  A    between atoms: C_6  and  N_7
REMARK    3  A    between atoms: N_10  and  C_11
REMARK    4  A    between atoms: C_13  and  C_17
REMARK    5  A    between atoms: C_19  and  C_22
REMARK                            x       y       z     vdW  Elec       q    Type
REMARK                         _______ _______ _______ _____ _____    ______ ____
ROOT
ATOM     11  C   UNL     1       0.492   0.289  23.279  0.00  0.00    +0.115 C 
ATOM     12  C   UNL     1      -0.012  -0.323  23.505  0.00  0.00    +0.049 C 
ATOM     13  C   UNL     1      -0.544  -0.022  24.060  0.00  0.00    +0.139 C 
ATOM     14  N   UNL     1      -0.367   0.775  24.176  0.00  0.00    -0.264 NA
ATOM     15  C   UNL     1      -0.762   1.290  24.686  0.00  0.00    +0.090 C 
ATOM     16  C   UNL     1       0.273   0.967  23.693  0.00  0.00    +0.094 C 
ENDROOT
BRANCH  13  17
ATOM     17  C   UNL     1      -1.146  -0.445  24.433  0.00  0.00    +0.251 A 
ATOM     18  N   UNL     1      -1.791  -0.801  24.062  0.00  0.00    -0.190 NA
ATOM     19  C   UNL     1      -2.252  -1.163  24.643  0.00  0.00    +0.205 A 
ATOM     20  N   UNL     1      -1.893  -1.030  25.373  0.00  0.00    -0.056 NA
ATOM     21  O   UNL     1      -1.209  -0.586  25.244  0.00  0.00    -0.336 OA
BRANCH  19  22
ATOM     22  C   UNL     1      -2.951  -1.583  24.515  0.00  0.00    +0.058 A 
ATOM     23  C   UNL     1      -2.964  -2.402  24.616  0.00  0.00    +0.006 A 
ATOM     24  C   UNL     1      -3.662  -2.821  24.489  0.00  0.00    +0.021 A 
ATOM     25  C   UNL     1      -4.348  -2.423  24.261  0.00  0.00    +0.099 A 
ATOM     26  N   UNL     1      -4.335  -1.605  24.159  0.00  0.00    -0.242 NA
ATOM     27  C   UNL     1      -3.636  -1.184  24.287  0.00  0.00    +0.102 A 
ENDBRANCH  19  22
ENDBRANCH  13  17
BRANCH  11  10
ATOM      7  N   UNL     1       2.508   0.197  22.445  0.00  0.00    -0.161 NA
ATOM      8  C   UNL     1       1.892   0.254  22.991  0.00  0.00    +0.343 C 
ATOM      9  O   UNL     1       2.058   0.333  23.795  0.00  0.00    -0.249 OA
ATOM     10  N   UNL     1       1.108   0.232  22.733  0.00  0.00    -0.187 NA
BRANCH   7   6
ATOM      3  C   UNL     1       4.857   0.263  23.221  0.00  0.00    +0.139 A 
ATOM      4  C   UNL     1       4.425  -0.438  23.272  0.00  0.00    +0.038 A 
ATOM      5  C   UNL     1       3.642  -0.461  23.013  0.00  0.00    +0.020 A 
ATOM      6  C   UNL     1       3.290   0.219  22.703  0.00  0.00    +0.075 A 
ATOM     28  C   UNL     1       3.723   0.920  22.653  0.00  0.00    +0.020 A 
ATOM     29  C   UNL     1       4.505   0.943  22.911  0.00  0.00    +0.038 A 
BRANCH   3   2
ATOM      1  C   UNL     1       5.843  -0.033  24.212  0.00  0.00    +0.252 C 
ATOM      2  O   UNL     1       5.640   0.285  23.479  0.00  0.00    -0.471 OA
ENDBRANCH   3   2
ENDBRANCH   7   6
ENDBRANCH  11  10
TORSDOF 5
ENDMDL
MODEL 7
REMARK VINA RESULT:      -9.6      3.193      4.984
REMARK  Name = 
REMARK  5 active torsions:
REMARK  status: ('A' for Active; 'I' for Inactive)
REMARK    1  A    between atoms: O_2  and  C_3
REMARK    2  A    between atoms: C_6  and  N_7
REMARK    3  A    between atoms: N_10  and  C_11
REMARK    4  A    between atoms: C_13  and  C_17
REMARK    5  A    between atoms: C_19  and  C_22
REMARK                            x       y       z     vdW  Elec       q    Type
REMARK                         _______ _______ _______ _____ _____    ______ ____
ROOT
ATOM     11  C   UNL     1      -2.386  -0.006  24.368  0.00  0.00    +0.115 C 
ATOM     12  C   UNL     1      -1.782   0.418  23.998  0.00  0.00    +0.049 C 
ATOM     13  C   UNL     1      -1.062   0.143  24.292  0.00  0.00    +0.139 C 
ATOM     14  N   UNL     1      -1.221  -0.451  24.842  0.00  0.00    -0.264 NA
ATOM     15  C   UNL     1      -0.661  -0.878  25.270  0.00  0.00    +0.090 C 
ATOM     16  C   UNL     1      -2.040  -0.543  24.889  0.00  0.00    +0.094 C 
ENDROOT
BRANCH  13  17
ATOM     17  C   UNL     1      -0.314   0.413  24.073  0.00  0.00    +0.251 A 
ATOM     18  N   UNL     1       0.195   0.051  23.535  0.00  0.00    -0.190 NA
ATOM     19  C   UNL     1       0.880   0.508  23.484  0.00  0.00    +0.205 A 
ATOM     20  N   UNL     1       0.794   1.154  23.990  0.00  0.00    -0.056 NA
ATOM     21  O   UNL     1       0.056   1.095  24.355  0.00  0.00    -0.336 OA
BRANCH  19  22
ATOM     22  C   UNL     1       1.536   0.348  23.009  0.00  0.00    +0.058 A 
ATOM     23  C   UNL     1       2.272   0.667  23.201  0.00  0.00    +0.006 A 
ATOM     24  C   UNL     1       2.927   0.507  22.727  0.00  0.00    +0.021 A 
ATOM     25  C   UNL     1       2.847   0.028  22.060  0.00  0.00    +0.099 A 
ATOM     26  N   UNL     1       2.111  -0.291  21.868  0.00  0.00    -0.242 NA
ATOM     27  C   UNL     1       1.455  -0.131  22.342  0.00  0.00    +0.102 A 
ENDBRANCH  19  22
ENDBRANCH  13  17
BRANCH  11  10
ATOM      7  N   UNL     1      -4.400   0.834  24.433  0.00  0.00    -0.161 NA
ATOM      8  C   UNL     1      -3.591   0.737  24.563  0.00  0.00    +0.343 C 
ATOM      9  O   UNL     1      -3.177   1.287  25.018  0.00  0.00    -0.249 OA
ATOM     10  N   UNL     1      -3.195   0.091  24.238  0.00  0.00    -0.187 NA
BRANCH   7   6
ATOM      3  C   UNL     1      -5.586   2.774  25.410  0.00  0.00    +0.139 A 
ATOM      4  C   UNL     1      -5.119   2.872  24.737  0.00  0.00    +0.038 A 
ATOM      5  C   UNL     1      -4.724   2.226  24.411  0.00  0.00    +0.020 A 
ATOM      6  C   UNL     1      -4.795   1.480  24.759  0.00  0.00    +0.075 A 
ATOM     28  C   UNL     1      -5.262   1.383  25.432  0.00  0.00    +0.020 A 
ATOM     29  C   UNL     1      -5.657   2.029  25.758  0.00  0.00    +0.038 A 
BRANCH   3   2
ATOM      1  C   UNL     1      -5.639   4.170  25.711  0.00  0.00    +0.252 C 
ATOM      2  O   UNL     1      -5.982   3.421  25.736  0.00  0.00    -0.471 OA
ENDBRANCH   3   2
ENDBRANCH   7   6
ENDBRANCH  11  10
TORSDOF 5
ENDMDL
MODEL 8
REMARK VINA RESULT:      -9.5      1.834      3.205
REMARK  Name = 
REMARK  5 active torsions:
REMARK  status: ('A' for Active; 'I' for Inactive)
REMARK    1  A    between atoms: O_2  and  C_3
REMARK    2  A    between atoms: C_6  and  N_7
REMARK    3  A    between atoms: N_10  and  C_11
REMARK    4  A    between atoms: C_13  and  C_17
REMARK    5  A    between atoms: C_19  and  C_22
REMARK                            x       y       z     vdW  Elec       q    Type
REMARK                         _______ _______ _______ _____ _____    ______ ____
ROOT
ATOM     11  C   UNL     1      -0.728   0.849  25.144  0.00  0.00    +0.115 C 
ATOM     12  C   UNL     1      -1.378   1.300  25.377  0.00  0.00    +0.049 C 
ATOM     13  C   UNL     1      -1.233   2.084  25.164  0.00  0.00    +0.139 C 
ATOM     14  N   UNL     1      -0.493   2.116  24.799  0.00  0.00    -0.264 NA
ATOM     15  C   UNL     1      -0.129   2.793  24.500  0.00  0.00    +0.090 C 
ATOM     16  C   UNL     1      -0.181   1.352  24.788  0.00  0.00    +0.094 C 
ENDROOT
BRANCH  13  17
ATOM     17  C   UNL     1      -1.739   2.723  25.292  0.00  0.00    +0.251 A 
ATOM     18  N   UNL     1      -2.560   2.715  25.214  0.00  0.00    -0.190 NA
ATOM     19  C   UNL     1      -2.841   3.469  25.395  0.00  0.00    +0.205 A 
ATOM     20  N   UNL     1      -2.193   3.944  25.585  0.00  0.00    -0.056 NA
ATOM     21  O   UNL     1      -1.512   3.482  25.522  0.00  0.00    -0.336 OA
BRANCH  19  22
ATOM     22  C   UNL     1      -3.631   3.708  25.388  0.00  0.00    +0.058 A 
ATOM     23  C   UNL     1      -4.005   3.873  24.672  0.00  0.00    +0.006 A 
ATOM     24  C   UNL     1      -4.794   4.111  24.665  0.00  0.00    +0.021 A 
ATOM     25  C   UNL     1      -5.210   4.184  25.373  0.00  0.00    +0.099 A 
ATOM     26  N   UNL     1      -4.836   4.019  26.090  0.00  0.00    -0.242 NA
ATOM     27  C   UNL     1      -4.046   3.780  26.097  0.00  0.00    +0.102 A 
ENDBRANCH  19  22
ENDBRANCH  13  17
BRANCH  11  10
ATOM      7  N   UNL     1      -1.165  -1.290  25.148  0.00  0.00    -0.161 NA
ATOM      8  C   UNL     1      -1.253  -0.477  25.042  0.00  0.00    +0.343 C 
ATOM      9  O   UNL     1      -1.953  -0.174  24.728  0.00  0.00    -0.249 OA
ATOM     10  N   UNL     1      -0.640   0.035  25.250  0.00  0.00    -0.187 NA
BRANCH   7   6
ATOM      3  C   UNL     1      -3.005  -2.823  24.524  0.00  0.00    +0.139 A 
ATOM      4  C   UNL     1      -3.088  -2.322  25.173  0.00  0.00    +0.038 A 
ATOM      5  C   UNL     1      -2.475  -1.811  25.382  0.00  0.00    +0.020 A 
ATOM      6  C   UNL     1      -1.778  -1.801  24.940  0.00  0.00    +0.075 A 
ATOM     28  C   UNL     1      -1.695  -2.303  24.290  0.00  0.00    +0.020 A 
ATOM     29  C   UNL     1      -2.308  -2.814  24.082  0.00  0.00    +0.038 A 
BRANCH   3   2
ATOM      1  C   UNL     1      -4.254  -3.058  23.870  0.00  0.00    +0.252 C 
ATOM      2  O   UNL     1      -3.618  -3.335  24.316  0.00  0.00    -0.471 OA
ENDBRANCH   3   2
ENDBRANCH   7   6
ENDBRANCH  11  10
TORSDOF 5
ENDMDL
MODEL 9
REMARK VINA RESULT:      -9.0     16.198     18.811
REMARK  Name = 
REMARK  5 active torsions:
REMARK  status: ('A' for Active; 'I' for Inactive)
REMARK    1  A    between atoms: O_2  and  C_3
REMARK    2  A    between atoms: C_6  and  N_7
REMARK    3  A    between atoms: N_10  and  C_11
REMARK    4  A    between atoms: C_13  and  C_17
REMARK    5  A    between atoms: C_19  and  C_22
REMARK                            x       y       z     vdW  Elec       q    Type
REMARK                         _______ _______ _______ _____ _____    ______ ____
ROOT
ATOM     11  C   UNL     1      12.701   7.914  21.072  0.00  0.00    +0.115 C 
ATOM     12  C   UNL     1      12.540   8.180  20.308  0.00  0.00    +0.049 C 
ATOM     13  C   UNL     1      11.729   8.098  20.177  0.00  0.00    +0.139 C 
ATOM     14  N   UNL     1      11.391   7.781  20.859  0.00  0.00    -0.264 NA
ATOM     15  C   UNL     1      10.592   7.608  20.970  0.00  0.00    +0.090 C 
ATOM     16  C   UNL     1      11.992   7.668  21.413  0.00  0.00    +0.094 C 
ENDROOT
BRANCH  13  17
ATOM     17  C   UNL     1      11.328   8.298  19.484  0.00  0.00    +0.251 A 
ATOM     18  N   UNL     1      11.654   8.331  18.727  0.00  0.00    -0.190 NA
ATOM     19  C   UNL     1      11.057   8.553  18.202  0.00  0.00    +0.205 A 
ATOM     20  N   UNL     1      10.362   8.656  18.635  0.00  0.00    -0.056 NA
ATOM     21  O   UNL     1      10.529   8.498  19.427  0.00  0.00    -0.336 OA
BRANCH  19  22
ATOM     22  C   UNL     1      11.140   8.654  17.387  0.00  0.00    +0.058 A 
ATOM     23  C   UNL     1      10.476   8.629  16.898  0.00  0.00    +0.006 A 
ATOM     24  C   UNL     1      10.560   8.729  16.084  0.00  0.00    +0.021 A 
ATOM     25  C   UNL     1      11.308   8.856  15.758  0.00  0.00    +0.099 A 
ATOM     26  N   UNL     1      11.971   8.881  16.247  0.00  0.00    -0.242 NA
ATOM     27  C   UNL     1      11.888   8.780  17.062  0.00  0.00    +0.102 A 
ENDBRANCH  19  22
ENDBRANCH  13  17
BRANCH  11  10
ATOM      7  N   UNL     1      14.830   7.552  21.396  0.00  0.00    -0.161 NA
ATOM      8  C   UNL     1      14.087   7.569  21.036  0.00  0.00    +0.343 C 
ATOM      9  O   UNL     1      13.989   7.256  20.279  0.00  0.00    -0.249 OA
ATOM     10  N   UNL     1      13.443   7.898  21.432  0.00  0.00    -0.187 NA
BRANCH   7   6
ATOM      3  C   UNL     1      16.761   6.565  20.204  0.00  0.00    +0.139 A 
ATOM      4  C   UNL     1      16.553   7.352  20.071  0.00  0.00    +0.038 A 
ATOM      5  C   UNL     1      15.909   7.682  20.468  0.00  0.00    +0.020 A 
ATOM      6  C   UNL     1      15.473   7.223  20.999  0.00  0.00    +0.075 A 
ATOM     28  C   UNL     1      15.681   6.436  21.132  0.00  0.00    +0.020 A 
ATOM     29  C   UNL     1      16.325   6.107  20.735  0.00  0.00    +0.038 A 
BRANCH   3   2
ATOM      1  C   UNL     1      17.312   5.941  19.043  0.00  0.00    +0.252 C 
ATOM      2  O   UNL     1      17.405   6.235  19.807  0.00  0.00    -0.471 OA
ENDBRANCH   3   2
ENDBRANCH   7   6
ENDBRANCH  11  10
TORSDOF 5
ENDMDL
MODEL 10
REMARK VINA RESULT:      -8.0     16.893     18.740
REMARK  Name = 
REMARK  5 active torsions:
REMARK  status: ('A' for Active; 'I' for Inactive)
REMARK    1  A    between atoms: O_2  and  C_3
REMARK    2  A    between atoms: C_6  and  N_7
REMARK    3  A    between atoms: N_10  and  C_11
REMARK    4  A    between atoms: C_13  and  C_17
REMARK    5  A    between atoms: C_19  and  C_22
REMARK                            x       y       z     vdW  Elec       q    Type
REMARK                         _______ _______ _______ _____ _____    ______ ____
ROOT
ATOM     11  C   UNL     1      11.737   7.861  20.314  0.00  0.00    +0.115 C 
ATOM     12  C   UNL     1      12.539   8.023  20.421  0.00  0.00    +0.049 C 
ATOM     13  C   UNL     1      12.847   7.453  20.932  0.00  0.00    +0.139 C 
ATOM     14  N   UNL     1      12.236   6.940  21.140  0.00  0.00    -0.264 NA
ATOM     15  C   UNL     1      12.299   6.289  21.641  0.00  0.00    +0.090 C 
ATOM     16  C   UNL     1      11.549   7.193  20.757  0.00  0.00    +0.094 C 
ENDROOT
BRANCH  13  17
ATOM     17  C   UNL     1      13.629   7.405  21.189  0.00  0.00    +0.251 A 
ATOM     18  N   UNL     1      14.266   7.112  20.754  0.00  0.00    -0.190 NA
ATOM     19  C   UNL     1      14.943   7.168  21.223  0.00  0.00    +0.205 A 
ATOM     20  N   UNL     1      14.724   7.496  21.948  0.00  0.00    -0.056 NA
ATOM     21  O   UNL     1      13.912   7.643  21.927  0.00  0.00    -0.336 OA
BRANCH  19  22
ATOM     22  C   UNL     1      15.704   6.937  21.006  0.00  0.00    +0.058 A 
ATOM     23  C   UNL     1      15.944   6.994  20.218  0.00  0.00    +0.006 A 
ATOM     24  C   UNL     1      16.705   6.763  20.001  0.00  0.00    +0.021 A 
ATOM     25  C   UNL     1      17.227   6.474  20.571  0.00  0.00    +0.099 A 
ATOM     26  N   UNL     1      16.988   6.417  21.358  0.00  0.00    -0.242 NA
ATOM     27  C   UNL     1      16.226   6.648  21.576  0.00  0.00    +0.102 A 
ENDBRANCH  19  22
ENDBRANCH  13  17
BRANCH  11  10
ATOM      7  N   UNL     1      10.782   8.733  18.555  0.00  0.00    -0.161 NA
ATOM      8  C   UNL     1      11.304   8.301  19.024  0.00  0.00    +0.343 C 
ATOM      9  O   UNL     1      11.918   7.874  18.674  0.00  0.00    -0.249 OA
ATOM     10  N   UNL     1      11.214   8.294  19.844  0.00  0.00    -0.187 NA
BRANCH   7   6
ATOM      3  C   UNL     1      11.055   8.752  16.095  0.00  0.00    +0.139 A 
ATOM      4  C   UNL     1      11.632   9.092  16.576  0.00  0.00    +0.038 A 
ATOM      5  C   UNL     1      11.541   9.086  17.397  0.00  0.00    +0.020 A 
ATOM      6  C   UNL     1      10.873   8.739  17.735  0.00  0.00    +0.075 A 
ATOM     28  C   UNL     1      10.296   8.399  17.253  0.00  0.00    +0.020 A 
ATOM     29  C   UNL     1      10.387   8.405  16.434  0.00  0.00    +0.038 A 
BRANCH   3   2
ATOM      1  C   UNL     1      11.886   8.902  14.942  0.00  0.00    +0.252 C 
ATOM      2  O   UNL     1      11.146   8.758  15.275  0.00  0.00    -0.471 OA
ENDBRANCH   3   2
ENDBRANCH   7   6
ENDBRANCH  11  10
TORSDOF 5
ENDMDL
