REMARK  Name = 
REMARK  9 active torsions:
REMARK  status: ('A' for Active; 'I' for Inactive)
REMARK    1  A    between atoms: O_2  and  C_3
REMARK    2  A    between atoms: C_6  and  N_7
REMARK    3  A    between atoms: C_8  and  O_10
REMARK    4  A    between atoms: O_10  and  C_11
REMARK    5  A    between atoms: C_16  and  C_17
REMARK    6  A    between atoms: C_17  and  C_18
REMARK    7  A    between atoms: N_20  and  C_21
REMARK    8  A    between atoms: C_21  and  C_22
REMARK    9  A    between atoms: C_33  and  C_35
REMARK                            x       y       z     vdW  Elec       q    Type
REMARK                         _______ _______ _______ _____ _____    ______ ____
ROOT
ATOM     11  C   UNL     1       0.715  -1.238   0.000  0.00  0.00    +0.173 C 
ATOM     12  C   UNL     1       0.715  -0.412   0.000  0.00  0.00    +0.044 C 
ATOM     13  C   UNL     1       1.429   0.000   0.000  0.00  0.00    +0.004 C 
ATOM     14  C   UNL     1       2.143  -0.412   0.000  0.00  0.00    +0.003 C 
ATOM     15  C   UNL     1       2.143   0.412   0.000  0.00  0.00    +0.000 C 
ATOM     16  C   UNL     1       2.858   0.000   0.000  0.00  0.00    +0.040 C 
ATOM     28  C   UNL     1       3.572  -0.412   0.000  0.00  0.00    +0.152 C 
ATOM     29  O   UNL     1       4.287   0.000   0.000  0.00  0.00    -0.223 OA
ATOM     30  C   UNL     1       3.572  -1.238   0.000  0.00  0.00    +0.033 C 
ATOM     31  C   UNL     1       2.858  -1.650   0.000  0.00  0.00    +0.003 C 
ATOM     32  C   UNL     1       2.143  -1.238   0.000  0.00  0.00    +0.006 C 
ATOM     33  C   UNL     1       1.429  -1.650   0.000  0.00  0.00    +0.068 C 
ATOM     34  C   UNL     1       1.816  -2.378   0.000  0.00  0.00    +0.006 C 
ENDROOT
BRANCH  33  35
ATOM     35  C   UNL     1       1.042  -2.378   0.000  0.00  0.00    +0.185 C 
ATOM     36  O   UNL     1       0.217  -2.407   0.000  0.00  0.00    -0.220 OA
ENDBRANCH  33  35
BRANCH  11  10
ATOM     10  O   UNL     1       0.000  -1.650   0.000  0.00  0.00    -0.437 OA
BRANCH  10   8
ATOM      7  N   UNL     1      -0.715  -0.412   0.000  0.00  0.00    -0.142 NA
ATOM      8  C   UNL     1      -0.715  -1.238   0.000  0.00  0.00    +0.425 C 
ATOM      9  O   UNL     1      -1.429  -1.650   0.000  0.00  0.00    -0.224 OA
BRANCH   7   6
ATOM      3  C   UNL     1      -2.858   0.825   0.000  0.00  0.00    +0.139 A 
ATOM      4  C   UNL     1      -2.143   1.238   0.000  0.00  0.00    +0.038 A 
ATOM      5  C   UNL     1      -1.429   0.825   0.000  0.00  0.00    +0.020 A 
ATOM      6  C   UNL     1      -1.429   0.000   0.000  0.00  0.00    +0.077 A 
ATOM     37  C   UNL     1      -2.143  -0.412   0.000  0.00  0.00    +0.020 A 
ATOM     38  C   UNL     1      -2.858   0.000   0.000  0.00  0.00    +0.038 A 
BRANCH   3   2
ATOM      1  C   UNL     1      -4.287   0.825   0.000  0.00  0.00    +0.252 C 
ATOM      2  O   UNL     1      -3.572   1.238   0.000  0.00  0.00    -0.471 OA
ENDBRANCH   3   2
ENDBRANCH   7   6
ENDBRANCH  10   8
ENDBRANCH  11  10
BRANCH  16  17
ATOM     17  C   UNL     1       2.858   0.825   0.000  0.00  0.00    +0.089 C 
BRANCH  17  18
ATOM     18  C   UNL     1       2.143   1.238   0.000  0.00  0.00    +0.242 C 
ATOM     19  O   UNL     1       1.429   0.825   0.000  0.00  0.00    -0.273 OA
ATOM     20  N   UNL     1       2.143   2.062   0.000  0.00  0.00    -0.201 NA
BRANCH  20  21
ATOM     21  C   UNL     1       1.429   2.475   0.000  0.00  0.00    +0.141 C 
BRANCH  21  22
ATOM     22  C   UNL     1       1.429   3.300   0.000  0.00  0.00    -0.001 A 
ATOM     23  C   UNL     1       0.715   3.712   0.000  0.00  0.00    -0.003 A 
ATOM     24  C   UNL     1       0.715   4.537   0.000  0.00  0.00    -0.000 A 
ATOM     25  C   UNL     1       1.429   4.950   0.000  0.00  0.00    -0.000 A 
ATOM     26  C   UNL     1       2.143   4.537   0.000  0.00  0.00    -0.000 A 
ATOM     27  C   UNL     1       2.143   3.712   0.000  0.00  0.00    -0.003 A 
ENDBRANCH  21  22
ENDBRANCH  20  21
ENDBRANCH  17  18
ENDBRANCH  16  17
TORSDOF 9
