MODEL 1
REMARK VINA RESULT:     -12.1      0.000      0.000
REMARK  Name = 
REMARK  5 active torsions:
REMARK  status: ('A' for Active; 'I' for Inactive)
REMARK    1  A    between atoms: N_3  and  C_4
REMARK    2  A    between atoms: C_9  and  C_10
REMARK    3  A    between atoms: C_10  and  C_11
REMARK    4  A    between atoms: C_11  and  C_12
REMARK    5  A    between atoms: N_27  and  C_28
REMARK                            x       y       z     vdW  Elec       q    Type
REMARK                         _______ _______ _______ _____ _____    ______ ____
ROOT
ATOM      4  C   UNL     1      -4.777   0.886  24.570  0.00  0.00    +0.115 C 
ATOM      5  C   UNL     1      -5.356   1.018  25.143  0.00  0.00    +0.049 C 
ATOM      6  C   UNL     1      -5.278   1.795  25.409  0.00  0.00    +0.138 C 
ATOM      7  N   UNL     1      -4.650   2.143  25.001  0.00  0.00    -0.265 NA
ATOM      8  C   UNL     1      -4.342   1.580  24.482  0.00  0.00    +0.094 C 
ATOM      9  C   UNL     1      -4.442   2.926  25.154  0.00  0.00    +0.080 C 
ATOM     23  C   UNL     1      -4.860   3.362  25.716  0.00  0.00    +0.131 C 
ATOM     24  N   UNL     1      -5.487   3.015  26.124  0.00  0.00    -0.203 NA
ATOM     25  C   UNL     1      -5.696   2.231  25.971  0.00  0.00    +0.256 C 
ATOM     26  O   UNL     1      -6.323   1.884  26.380  0.00  0.00    -0.272 OA
ENDROOT
BRANCH   4   3
ATOM      1  O   UNL     1      -3.738  -0.249  25.163  0.00  0.00    -0.249 OA
ATOM      2  C   UNL     1      -4.137  -0.386  24.455  0.00  0.00    +0.344 C 
ATOM      3  N   UNL     1      -4.657   0.181  24.157  0.00  0.00    -0.187 NA
ATOM     27  N   UNL     1      -4.016  -1.091  24.043  0.00  0.00    -0.160 NA
BRANCH  27  28
ATOM     28  C   UNL     1      -3.496  -1.658  24.340  0.00  0.00    +0.082 A 
ATOM     29  C   UNL     1      -2.676  -1.656  24.254  0.00  0.00    +0.052 A 
ATOM     30  S   UNL     1      -2.377  -2.324  24.636  0.00  0.00    -0.085 S 
ATOM     31  C   UNL     1      -3.014  -2.739  24.959  0.00  0.00    +0.037 A 
ATOM     32  C   UNL     1      -3.705  -2.328  24.775  0.00  0.00    +0.024 A 
ENDBRANCH  27  28
ENDBRANCH   4   3
BRANCH   9  10
ATOM     10  C   UNL     1      -3.815   3.273  24.745  0.00  0.00    +0.027 C 
BRANCH  10  11
ATOM     11  C   UNL     1      -3.113   3.450  25.141  0.00  0.00    +0.087 C 
BRANCH  11  12
ATOM     12  C   UNL     1      -2.666   4.105  24.914  0.00  0.00    +0.229 C 
ATOM     13  O   UNL     1      -3.036   4.760  24.575  0.00  0.00    -0.275 OA
ATOM     14  N   UNL     1      -1.848   4.106  25.026  0.00  0.00    -0.259 N 
ATOM     15  C   UNL     1      -1.333   4.719  24.828  0.00  0.00    +0.103 C 
ATOM     16  C   UNL     1      -0.568   4.486  25.035  0.00  0.00    +0.049 C 
ATOM     17  C   UNL     1      -0.613   3.730  25.362  0.00  0.00    -0.007 A 
ATOM     18  C   UNL     1      -0.035   3.224  25.664  0.00  0.00    -0.003 A 
ATOM     19  C   UNL     1      -0.248   2.484  25.960  0.00  0.00    -0.000 A 
ATOM     20  C   UNL     1      -1.039   2.250  25.954  0.00  0.00    +0.001 A 
ATOM     21  C   UNL     1      -1.617   2.755  25.652  0.00  0.00    +0.015 A 
ATOM     22  C   UNL     1      -1.404   3.495  25.356  0.00  0.00    +0.050 A 
ENDBRANCH  11  12
ENDBRANCH  10  11
ENDBRANCH   9  10
TORSDOF 5
ENDMDL
MODEL 2
REMARK VINA RESULT:     -11.6      2.069      3.809
REMARK  Name = 
REMARK  5 active torsions:
REMARK  status: ('A' for Active; 'I' for Inactive)
REMARK    1  A    between atoms: N_3  and  C_4
REMARK    2  A    between atoms: C_9  and  C_10
REMARK    3  A    between atoms: C_10  and  C_11
REMARK    4  A    between atoms: C_11  and  C_12
REMARK    5  A    between atoms: N_27  and  C_28
REMARK                            x       y       z     vdW  Elec       q    Type
REMARK                         _______ _______ _______ _____ _____    ______ ____
ROOT
ATOM      4  C   UNL     1      -0.790  -0.543  24.797  0.00  0.00    +0.115 C 
ATOM      5  C   UNL     1      -0.222  -0.484  24.202  0.00  0.00    +0.049 C 
ATOM      6  C   UNL     1       0.029   0.300  24.165  0.00  0.00    +0.138 C 
ATOM      7  N   UNL     1      -0.383   0.728  24.738  0.00  0.00    -0.265 NA
ATOM      8  C   UNL     1      -0.890   0.206  25.128  0.00  0.00    +0.094 C 
ATOM      9  C   UNL     1      -0.245   1.535  24.830  0.00  0.00    +0.080 C 
ATOM     23  C   UNL     1       0.306   1.917  24.349  0.00  0.00    +0.131 C 
ATOM     24  N   UNL     1       0.719   1.491  23.776  0.00  0.00    -0.203 NA
ATOM     25  C   UNL     1       0.581   0.682  23.684  0.00  0.00    +0.256 C 
ATOM     26  O   UNL     1       0.994   0.256  23.111  0.00  0.00    -0.272 OA
ENDROOT
BRANCH   4   3
ATOM      1  O   UNL     1      -2.265  -0.890  24.145  0.00  0.00    -0.249 OA
ATOM      2  C   UNL     1      -1.925  -1.404  24.695  0.00  0.00    +0.344 C 
ATOM      3  N   UNL     1      -1.188  -1.230  25.021  0.00  0.00    -0.187 NA
ATOM     27  N   UNL     1      -2.324  -2.091  24.919  0.00  0.00    -0.160 NA
BRANCH  27  28
ATOM     28  C   UNL     1      -3.062  -2.264  24.592  0.00  0.00    +0.082 A 
ATOM     29  C   UNL     1      -3.237  -2.907  24.106  0.00  0.00    +0.052 A 
ATOM     30  S   UNL     1      -4.037  -2.866  23.908  0.00  0.00    -0.085 S 
ATOM     31  C   UNL     1      -4.356  -2.198  24.273  0.00  0.00    +0.037 A 
ATOM     32  C   UNL     1      -3.753  -1.826  24.696  0.00  0.00    +0.024 A 
ENDBRANCH  27  28
ENDBRANCH   4   3
BRANCH   9  10
ATOM     10  C   UNL     1      -0.658   1.962  25.402  0.00  0.00    +0.027 C 
BRANCH  10  11
ATOM     11  C   UNL     1      -1.245   2.495  25.176  0.00  0.00    +0.087 C 
BRANCH  11  12
ATOM     12  C   UNL     1      -1.517   3.062  25.710  0.00  0.00    +0.229 C 
ATOM     13  O   UNL     1      -1.052   3.275  26.358  0.00  0.00    -0.275 OA
ATOM     14  N   UNL     1      -2.253   3.417  25.598  0.00  0.00    -0.259 N 
ATOM     15  C   UNL     1      -2.595   3.989  26.084  0.00  0.00    +0.103 C 
ATOM     16  C   UNL     1      -3.330   4.187  25.766  0.00  0.00    +0.049 C 
ATOM     17  C   UNL     1      -3.442   3.738  25.084  0.00  0.00    -0.007 A 
ATOM     18  C   UNL     1      -4.064   3.700  24.543  0.00  0.00    -0.003 A 
ATOM     19  C   UNL     1      -4.021   3.187  23.899  0.00  0.00    -0.000 A 
ATOM     20  C   UNL     1      -3.355   2.711  23.795  0.00  0.00    +0.001 A 
ATOM     21  C   UNL     1      -2.733   2.748  24.335  0.00  0.00    +0.015 A 
ATOM     22  C   UNL     1      -2.777   3.262  24.980  0.00  0.00    +0.050 A 
ENDBRANCH  11  12
ENDBRANCH  10  11
ENDBRANCH   9  10
TORSDOF 5
ENDMDL
MODEL 3
REMARK VINA RESULT:     -11.5      2.505      6.084
REMARK  Name = 
REMARK  5 active torsions:
REMARK  status: ('A' for Active; 'I' for Inactive)
REMARK    1  A    between atoms: N_3  and  C_4
REMARK    2  A    between atoms: C_9  and  C_10
REMARK    3  A    between atoms: C_10  and  C_11
REMARK    4  A    between atoms: C_11  and  C_12
REMARK    5  A    between atoms: N_27  and  C_28
REMARK                            x       y       z     vdW  Elec       q    Type
REMARK                         _______ _______ _______ _____ _____    ______ ____
ROOT
ATOM      4  C   UNL     1      -0.271   1.560  25.214  0.00  0.00    +0.115 C 
ATOM      5  C   UNL     1       0.233   1.609  24.562  0.00  0.00    +0.049 C 
ATOM      6  C   UNL     1       0.266   0.865  24.208  0.00  0.00    +0.138 C 
ATOM      7  N   UNL     1      -0.217   0.355  24.642  0.00  0.00    -0.265 NA
ATOM      8  C   UNL     1      -0.549   0.785  25.264  0.00  0.00    +0.094 C 
ATOM      9  C   UNL     1      -0.293  -0.434  24.415  0.00  0.00    +0.080 C 
ATOM     23  C   UNL     1       0.114  -0.715  23.754  0.00  0.00    +0.131 C 
ATOM     24  N   UNL     1       0.597  -0.205  23.321  0.00  0.00    -0.203 NA
ATOM     25  C   UNL     1       0.673   0.585  23.548  0.00  0.00    +0.256 C 
ATOM     26  O   UNL     1       1.156   1.094  23.114  0.00  0.00    -0.272 OA
ENDROOT
BRANCH   4   3
ATOM      1  O   UNL     1      -1.546   2.549  24.873  0.00  0.00    -0.249 OA
ATOM      2  C   UNL     1      -1.099   2.672  25.556  0.00  0.00    +0.344 C 
ATOM      3  N   UNL     1      -0.462   2.178  25.727  0.00  0.00    -0.187 NA
ATOM     27  N   UNL     1      -1.290   3.291  26.067  0.00  0.00    -0.160 NA
BRANCH  27  28
ATOM     28  C   UNL     1      -1.928   3.785  25.896  0.00  0.00    +0.082 A 
ATOM     29  C   UNL     1      -2.708   3.672  26.140  0.00  0.00    +0.052 A 
ATOM     30  S   UNL     1      -3.160   4.297  25.846  0.00  0.00    -0.085 S 
ATOM     31  C   UNL     1      -2.659   4.796  25.420  0.00  0.00    +0.037 A 
ATOM     32  C   UNL     1      -1.898   4.480  25.451  0.00  0.00    +0.024 A 
ENDBRANCH  27  28
ENDBRANCH   4   3
BRANCH   9  10
ATOM     10  C   UNL     1      -0.776  -0.943  24.848  0.00  0.00    +0.027 C 
BRANCH  10  11
ATOM     11  C   UNL     1      -1.480  -1.223  24.521  0.00  0.00    +0.087 C 
BRANCH  11  12
ATOM     12  C   UNL     1      -1.745  -1.983  24.699  0.00  0.00    +0.229 C 
ATOM     13  O   UNL     1      -1.214  -2.551  24.975  0.00  0.00    -0.275 OA
ATOM     14  N   UNL     1      -2.541  -2.176  24.602  0.00  0.00    -0.259 N 
ATOM     15  C   UNL     1      -2.884  -2.910  24.758  0.00  0.00    +0.103 C 
ATOM     16  C   UNL     1      -3.690  -2.857  24.584  0.00  0.00    +0.049 C 
ATOM     17  C   UNL     1      -3.843  -2.090  24.323  0.00  0.00    -0.007 A 
ATOM     18  C   UNL     1      -4.538  -1.720  24.075  0.00  0.00    -0.003 A 
ATOM     19  C   UNL     1      -4.523  -0.930  23.839  0.00  0.00    -0.000 A 
ATOM     20  C   UNL     1      -3.814  -0.510  23.850  0.00  0.00    +0.001 A 
ATOM     21  C   UNL     1      -3.119  -0.879  24.097  0.00  0.00    +0.015 A 
ATOM     22  C   UNL     1      -3.134  -1.670  24.334  0.00  0.00    +0.050 A 
ENDBRANCH  11  12
ENDBRANCH  10  11
ENDBRANCH   9  10
TORSDOF 5
ENDMDL
MODEL 4
REMARK VINA RESULT:     -11.4      2.096      5.050
REMARK  Name = 
REMARK  5 active torsions:
REMARK  status: ('A' for Active; 'I' for Inactive)
REMARK    1  A    between atoms: N_3  and  C_4
REMARK    2  A    between atoms: C_9  and  C_10
REMARK    3  A    between atoms: C_10  and  C_11
REMARK    4  A    between atoms: C_11  and  C_12
REMARK    5  A    between atoms: N_27  and  C_28
REMARK                            x       y       z     vdW  Elec       q    Type
REMARK                         _______ _______ _______ _____ _____    ______ ____
ROOT
ATOM      4  C   UNL     1      -2.194   2.756  24.564  0.00  0.00    +0.115 C 
ATOM      5  C   UNL     1      -1.626   3.129  25.032  0.00  0.00    +0.049 C 
ATOM      6  C   UNL     1      -0.981   2.621  25.104  0.00  0.00    +0.138 C 
ATOM      7  N   UNL     1      -1.149   1.932  24.681  0.00  0.00    -0.265 NA
ATOM      8  C   UNL     1      -1.899   2.017  24.347  0.00  0.00    +0.094 C 
ATOM      9  C   UNL     1      -0.599   1.319  24.654  0.00  0.00    +0.080 C 
ATOM     23  C   UNL     1       0.121   1.392  25.050  0.00  0.00    +0.131 C 
ATOM     24  N   UNL     1       0.290   2.080  25.474  0.00  0.00    -0.203 NA
ATOM     25  C   UNL     1      -0.261   2.694  25.501  0.00  0.00    +0.256 C 
ATOM     26  O   UNL     1      -0.092   3.381  25.924  0.00  0.00    -0.272 OA
ENDROOT
BRANCH   4   3
ATOM      1  O   UNL     1      -3.558   2.265  25.350  0.00  0.00    -0.249 OA
ATOM      2  C   UNL     1      -3.609   2.823  24.744  0.00  0.00    +0.344 C 
ATOM      3  N   UNL     1      -2.927   3.069  24.351  0.00  0.00    -0.187 NA
ATOM     27  N   UNL     1      -4.343   3.135  24.531  0.00  0.00    -0.160 NA
BRANCH  27  28
ATOM     28  C   UNL     1      -5.025   2.889  24.925  0.00  0.00    +0.082 A 
ATOM     29  C   UNL     1      -5.390   3.280  25.553  0.00  0.00    +0.052 A 
ATOM     30  S   UNL     1      -6.053   2.841  25.775  0.00  0.00    -0.085 S 
ATOM     31  C   UNL     1      -6.098   2.180  25.284  0.00  0.00    +0.037 A 
ATOM     32  C   UNL     1      -5.463   2.209  24.758  0.00  0.00    +0.024 A 
ENDBRANCH  27  28
ENDBRANCH   4   3
BRANCH   9  10
ATOM     10  C   UNL     1      -0.768   0.632  24.230  0.00  0.00    +0.027 C 
BRANCH  10  11
ATOM     11  C   UNL     1      -0.986  -0.056  24.630  0.00  0.00    +0.087 C 
BRANCH  11  12
ATOM     12  C   UNL     1      -0.801  -0.795  24.312  0.00  0.00    +0.229 C 
ATOM     13  O   UNL     1      -0.114  -0.892  23.866  0.00  0.00    -0.275 OA
ATOM     14  N   UNL     1      -1.304  -1.437  24.439  0.00  0.00    -0.259 N 
ATOM     15  C   UNL     1      -1.192  -2.203  24.157  0.00  0.00    +0.103 C 
ATOM     16  C   UNL     1      -1.826  -2.665  24.415  0.00  0.00    +0.049 C 
ATOM     17  C   UNL     1      -2.329  -2.183  24.856  0.00  0.00    -0.007 A 
ATOM     18  C   UNL     1      -3.039  -2.337  25.246  0.00  0.00    -0.003 A 
ATOM     19  C   UNL     1      -3.427  -1.733  25.651  0.00  0.00    -0.000 A 
ATOM     20  C   UNL     1      -3.104  -0.974  25.666  0.00  0.00    +0.001 A 
ATOM     21  C   UNL     1      -2.394  -0.819  25.277  0.00  0.00    +0.015 A 
ATOM     22  C   UNL     1      -2.006  -1.424  24.871  0.00  0.00    +0.050 A 
ENDBRANCH  11  12
ENDBRANCH  10  11
ENDBRANCH   9  10
TORSDOF 5
ENDMDL
MODEL 5
REMARK VINA RESULT:     -11.3      1.668      3.692
REMARK  Name = 
REMARK  5 active torsions:
REMARK  status: ('A' for Active; 'I' for Inactive)
REMARK    1  A    between atoms: N_3  and  C_4
REMARK    2  A    between atoms: C_9  and  C_10
REMARK    3  A    between atoms: C_10  and  C_11
REMARK    4  A    between atoms: C_11  and  C_12
REMARK    5  A    between atoms: N_27  and  C_28
REMARK                            x       y       z     vdW  Elec       q    Type
REMARK                         _______ _______ _______ _____ _____    ______ ____
ROOT
ATOM      4  C   UNL     1      -0.911   0.447  25.317  0.00  0.00    +0.115 C 
ATOM      5  C   UNL     1      -0.318   0.686  24.795  0.00  0.00    +0.049 C 
ATOM      6  C   UNL     1      -0.370   1.505  24.709  0.00  0.00    +0.138 C 
ATOM      7  N   UNL     1      -0.995   1.772  25.178  0.00  0.00    -0.265 NA
ATOM      8  C   UNL     1      -1.329   1.117  25.553  0.00  0.00    +0.094 C 
ATOM      9  C   UNL     1      -1.179   2.575  25.202  0.00  0.00    +0.080 C 
ATOM     23  C   UNL     1      -0.738   3.113  24.758  0.00  0.00    +0.131 C 
ATOM     24  N   UNL     1      -0.114   2.847  24.289  0.00  0.00    -0.203 NA
ATOM     25  C   UNL     1       0.071   2.043  24.265  0.00  0.00    +0.256 C 
ATOM     26  O   UNL     1       0.695   1.777  23.796  0.00  0.00    -0.272 OA
ENDROOT
BRANCH   4   3
ATOM      1  O   UNL     1      -2.094  -0.435  24.581  0.00  0.00    -0.249 OA
ATOM      2  C   UNL     1      -1.650  -0.769  25.190  0.00  0.00    +0.344 C 
ATOM      3  N   UNL     1      -1.058  -0.329  25.559  0.00  0.00    -0.187 NA
ATOM     27  N   UNL     1      -1.798  -1.544  25.432  0.00  0.00    -0.160 NA
BRANCH  27  28
ATOM     28  C   UNL     1      -2.390  -1.985  25.063  0.00  0.00    +0.082 A 
ATOM     29  C   UNL     1      -2.285  -2.507  24.434  0.00  0.00    +0.052 A 
ATOM     30  S   UNL     1      -3.021  -2.826  24.241  0.00  0.00    -0.085 S 
ATOM     31  C   UNL     1      -3.582  -2.501  24.752  0.00  0.00    +0.037 A 
ATOM     32  C   UNL     1      -3.192  -1.981  25.260  0.00  0.00    +0.024 A 
ENDBRANCH  27  28
ENDBRANCH   4   3
BRANCH   9  10
ATOM     10  C   UNL     1      -1.803   2.841  25.671  0.00  0.00    +0.027 C 
BRANCH  10  11
ATOM     11  C   UNL     1      -2.528   3.031  25.324  0.00  0.00    +0.087 C 
BRANCH  11  12
ATOM     12  C   UNL     1      -3.007   3.611  25.661  0.00  0.00    +0.229 C 
ATOM     13  O   UNL     1      -2.666   4.253  26.050  0.00  0.00    -0.275 OA
ATOM     14  N   UNL     1      -3.829   3.550  25.608  0.00  0.00    -0.259 N 
ATOM     15  C   UNL     1      -4.375   4.084  25.917  0.00  0.00    +0.103 C 
ATOM     16  C   UNL     1      -5.132   3.808  25.738  0.00  0.00    +0.049 C 
ATOM     17  C   UNL     1      -5.052   3.102  25.319  0.00  0.00    -0.007 A 
ATOM     18  C   UNL     1      -5.609   2.584  24.999  0.00  0.00    -0.003 A 
ATOM     19  C   UNL     1      -5.361   1.907  24.600  0.00  0.00    -0.000 A 
ATOM     20  C   UNL     1      -4.555   1.747  24.520  0.00  0.00    +0.001 A 
ATOM     21  C   UNL     1      -3.998   2.265  24.839  0.00  0.00    +0.015 A 
ATOM     22  C   UNL     1      -4.247   2.943  25.239  0.00  0.00    +0.050 A 
ENDBRANCH  11  12
ENDBRANCH  10  11
ENDBRANCH   9  10
TORSDOF 5
ENDMDL
MODEL 6
REMARK VINA RESULT:     -11.0      1.628      4.624
REMARK  Name = 
REMARK  5 active torsions:
REMARK  status: ('A' for Active; 'I' for Inactive)
REMARK    1  A    between atoms: N_3  and  C_4
REMARK    2  A    between atoms: C_9  and  C_10
REMARK    3  A    between atoms: C_10  and  C_11
REMARK    4  A    between atoms: C_11  and  C_12
REMARK    5  A    between atoms: N_27  and  C_28
REMARK                            x       y       z     vdW  Elec       q    Type
REMARK                         _______ _______ _______ _____ _____    ______ ____
ROOT
ATOM      4  C   UNL     1      -4.161   2.962  24.625  0.00  0.00    +0.115 C 
ATOM      5  C   UNL     1      -4.741   3.072  25.201  0.00  0.00    +0.049 C 
ATOM      6  C   UNL     1      -5.081   2.338  25.364  0.00  0.00    +0.138 C 
ATOM      7  N   UNL     1      -4.711   1.774  24.888  0.00  0.00    -0.265 NA
ATOM      8  C   UNL     1      -4.142   2.161  24.431  0.00  0.00    +0.094 C 
ATOM      9  C   UNL     1      -4.939   0.983  24.932  0.00  0.00    +0.080 C 
ATOM     23  C   UNL     1      -5.538   0.754  25.452  0.00  0.00    +0.131 C 
ATOM     24  N   UNL     1      -5.908   1.317  25.928  0.00  0.00    -0.203 NA
ATOM     25  C   UNL     1      -5.680   2.109  25.884  0.00  0.00    +0.256 C 
ATOM     26  O   UNL     1      -6.050   2.672  26.360  0.00  0.00    -0.272 OA
ENDROOT
BRANCH   4   3
ATOM      1  O   UNL     1      -2.653   3.232  25.236  0.00  0.00    -0.249 OA
ATOM      2  C   UNL     1      -2.930   3.686  24.605  0.00  0.00    +0.344 C 
ATOM      3  N   UNL     1      -3.684   3.552  24.299  0.00  0.00    -0.187 NA
ATOM     27  N   UNL     1      -2.453   4.276  24.280  0.00  0.00    -0.160 NA
BRANCH  27  28
ATOM     28  C   UNL     1      -1.698   4.411  24.587  0.00  0.00    +0.082 A 
ATOM     29  C   UNL     1      -1.045   3.915  24.501  0.00  0.00    +0.052 A 
ATOM     30  S   UNL     1      -0.408   4.263  24.894  0.00  0.00    -0.085 S 
ATOM     31  C   UNL     1      -0.668   4.974  25.222  0.00  0.00    +0.037 A 
ATOM     32  C   UNL     1      -1.466   5.066  25.032  0.00  0.00    +0.024 A 
ENDBRANCH  27  28
ENDBRANCH   4   3
BRANCH   9  10
ATOM     10  C   UNL     1      -4.569   0.420  24.457  0.00  0.00    +0.027 C 
BRANCH  10  11
ATOM     11  C   UNL     1      -4.100  -0.166  24.800  0.00  0.00    +0.087 C 
BRANCH  11  12
ATOM     12  C   UNL     1      -4.054  -0.913  24.453  0.00  0.00    +0.229 C 
ATOM     13  O   UNL     1      -4.690  -1.206  24.018  0.00  0.00    -0.275 OA
ATOM     14  N   UNL     1      -3.370  -1.367  24.541  0.00  0.00    -0.259 N 
ATOM     15  C   UNL     1      -3.245  -2.120  24.228  0.00  0.00    +0.103 C 
ATOM     16  C   UNL     1      -2.490  -2.367  24.451  0.00  0.00    +0.049 C 
ATOM     17  C   UNL     1      -2.149  -1.766  24.902  0.00  0.00    -0.007 A 
ATOM     18  C   UNL     1      -1.413  -1.701  25.269  0.00  0.00    -0.003 A 
ATOM     19  C   UNL     1      -1.221  -1.020  25.692  0.00  0.00    -0.000 A 
ATOM     20  C   UNL     1      -1.766  -0.402  25.748  0.00  0.00    +0.001 A 
ATOM     21  C   UNL     1      -2.502  -0.466  25.381  0.00  0.00    +0.015 A 
ATOM     22  C   UNL     1      -2.693  -1.149  24.957  0.00  0.00    +0.050 A 
ENDBRANCH  11  12
ENDBRANCH  10  11
ENDBRANCH   9  10
TORSDOF 5
ENDMDL
MODEL 7
REMARK VINA RESULT:     -10.9      3.426      5.119
REMARK  Name = 
REMARK  5 active torsions:
REMARK  status: ('A' for Active; 'I' for Inactive)
REMARK    1  A    between atoms: N_3  and  C_4
REMARK    2  A    between atoms: C_9  and  C_10
REMARK    3  A    between atoms: C_10  and  C_11
REMARK    4  A    between atoms: C_11  and  C_12
REMARK    5  A    between atoms: N_27  and  C_28
REMARK                            x       y       z     vdW  Elec       q    Type
REMARK                         _______ _______ _______ _____ _____    ______ ____
ROOT
ATOM      4  C   UNL     1       0.224  -0.110  23.526  0.00  0.00    +0.115 C 
ATOM      5  C   UNL     1       0.075  -0.760  24.012  0.00  0.00    +0.049 C 
ATOM      6  C   UNL     1      -0.504  -0.543  24.558  0.00  0.00    +0.138 C 
ATOM      7  N   UNL     1      -0.713   0.243  24.410  0.00  0.00    -0.265 NA
ATOM      8  C   UNL     1      -0.262   0.509  23.772  0.00  0.00    +0.094 C 
ATOM      9  C   UNL     1      -1.285   0.612  24.874  0.00  0.00    +0.080 C 
ATOM     23  C   UNL     1      -1.650   0.198  25.488  0.00  0.00    +0.131 C 
ATOM     24  N   UNL     1      -1.442  -0.587  25.636  0.00  0.00    -0.203 NA
ATOM     25  C   UNL     1      -0.869  -0.957  25.171  0.00  0.00    +0.256 C 
ATOM     26  O   UNL     1      -0.661  -1.741  25.319  0.00  0.00    -0.272 OA
ENDROOT
BRANCH   4   3
ATOM      1  O   UNL     1       1.803   0.263  23.822  0.00  0.00    -0.249 OA
ATOM      2  C   UNL     1       1.555   0.102  23.052  0.00  0.00    +0.344 C 
ATOM      3  N   UNL     1       0.766  -0.085  22.904  0.00  0.00    -0.187 NA
ATOM     27  N   UNL     1       2.097   0.127  22.431  0.00  0.00    -0.160 NA
BRANCH  27  28
ATOM     28  C   UNL     1       2.887   0.314  22.579  0.00  0.00    +0.082 A 
ATOM     29  C   UNL     1       3.491  -0.225  22.734  0.00  0.00    +0.052 A 
ATOM     30  S   UNL     1       4.189   0.200  22.849  0.00  0.00    -0.085 S 
ATOM     31  C   UNL     1       4.015   1.002  22.766  0.00  0.00    +0.037 A 
ATOM     32  C   UNL     1       3.211   1.073  22.599  0.00  0.00    +0.024 A 
ENDBRANCH  27  28
ENDBRANCH   4   3
BRANCH   9  10
ATOM     10  C   UNL     1      -1.493   1.396  24.726  0.00  0.00    +0.027 C 
BRANCH  10  11
ATOM     11  C   UNL     1      -2.258   1.659  24.890  0.00  0.00    +0.087 C 
BRANCH  11  12
ATOM     12  C   UNL     1      -2.412   2.466  24.955  0.00  0.00    +0.229 C 
ATOM     13  O   UNL     1      -1.788   3.003  25.015  0.00  0.00    -0.275 OA
ATOM     14  N   UNL     1      -3.191   2.739  24.959  0.00  0.00    -0.259 N 
ATOM     15  C   UNL     1      -3.429   3.526  25.020  0.00  0.00    +0.103 C 
ATOM     16  C   UNL     1      -4.254   3.546  25.002  0.00  0.00    +0.049 C 
ATOM     17  C   UNL     1      -4.525   2.770  24.930  0.00  0.00    -0.007 A 
ATOM     18  C   UNL     1      -5.285   2.453  24.885  0.00  0.00    -0.003 A 
ATOM     19  C   UNL     1      -5.389   1.638  24.814  0.00  0.00    -0.000 A 
ATOM     20  C   UNL     1      -4.732   1.140  24.787  0.00  0.00    +0.001 A 
ATOM     21  C   UNL     1      -3.972   1.456  24.832  0.00  0.00    +0.015 A 
ATOM     22  C   UNL     1      -3.868   2.272  24.903  0.00  0.00    +0.050 A 
ENDBRANCH  11  12
ENDBRANCH  10  11
ENDBRANCH   9  10
TORSDOF 5
ENDMDL
MODEL 8
REMARK VINA RESULT:     -10.5      2.000      3.972
REMARK  Name = 
REMARK  5 active torsions:
REMARK  status: ('A' for Active; 'I' for Inactive)
REMARK    1  A    between atoms: N_3  and  C_4
REMARK    2  A    between atoms: C_9  and  C_10
REMARK    3  A    between atoms: C_10  and  C_11
REMARK    4  A    between atoms: C_11  and  C_12
REMARK    5  A    between atoms: N_27  and  C_28
REMARK                            x       y       z     vdW  Elec       q    Type
REMARK                         _______ _______ _______ _____ _____    ______ ____
ROOT
ATOM      4  C   UNL     1      -3.970  -0.383  24.433  0.00  0.00    +0.115 C 
ATOM      5  C   UNL     1      -3.986  -1.104  24.835  0.00  0.00    +0.049 C 
ATOM      6  C   UNL     1      -3.222  -1.415  24.831  0.00  0.00    +0.138 C 
ATOM      7  N   UNL     1      -2.733  -0.886  24.426  0.00  0.00    -0.265 NA
ATOM      8  C   UNL     1      -3.197  -0.249  24.181  0.00  0.00    +0.094 C 
ATOM      9  C   UNL     1      -1.931  -1.054  24.334  0.00  0.00    +0.080 C 
ATOM     23  C   UNL     1      -1.616  -1.749  24.646  0.00  0.00    +0.131 C 
ATOM     24  N   UNL     1      -2.104  -2.278  25.050  0.00  0.00    -0.203 NA
ATOM     25  C   UNL     1      -2.906  -2.111  25.142  0.00  0.00    +0.256 C 
ATOM     26  O   UNL     1      -3.394  -2.639  25.547  0.00  0.00    -0.272 OA
ENDROOT
BRANCH   4   3
ATOM      1  O   UNL     1      -4.151   0.979  25.345  0.00  0.00    -0.249 OA
ATOM      2  C   UNL     1      -4.706   0.796  24.763  0.00  0.00    +0.344 C 
ATOM      3  N   UNL     1      -4.616   0.115  24.306  0.00  0.00    -0.187 NA
ATOM     27  N   UNL     1      -5.351   1.294  24.637  0.00  0.00    -0.160 NA
BRANCH  27  28
ATOM     28  C   UNL     1      -5.442   1.976  25.094  0.00  0.00    +0.082 A 
ATOM     29  C   UNL     1      -5.126   2.718  24.924  0.00  0.00    +0.052 A 
ATOM     30  S   UNL     1      -5.353   3.236  25.526  0.00  0.00    -0.085 S 
ATOM     31  C   UNL     1      -5.809   2.812  26.067  0.00  0.00    +0.037 A 
ATOM     32  C   UNL     1      -5.864   2.033  25.800  0.00  0.00    +0.024 A 
ENDBRANCH  27  28
ENDBRANCH   4   3
BRANCH   9  10
ATOM     10  C   UNL     1      -1.444  -0.525  23.930  0.00  0.00    +0.027 C 
BRANCH  10  11
ATOM     11  C   UNL     1      -0.894  -0.070  24.345  0.00  0.00    +0.087 C 
BRANCH  11  12
ATOM     12  C   UNL     1      -0.271   0.292  23.943  0.00  0.00    +0.229 C 
ATOM     13  O   UNL     1       0.034  -0.051  23.258  0.00  0.00    -0.275 OA
ATOM     14  N   UNL     1       0.047   0.999  24.227  0.00  0.00    -0.259 N 
ATOM     15  C   UNL     1       0.667   1.422  23.886  0.00  0.00    +0.103 C 
ATOM     16  C   UNL     1       0.804   2.091  24.350  0.00  0.00    +0.049 C 
ATOM     17  C   UNL     1       0.269   2.080  24.977  0.00  0.00    -0.007 A 
ATOM     18  C   UNL     1       0.146   2.598  25.608  0.00  0.00    -0.003 A 
ATOM     19  C   UNL     1      -0.443   2.441  26.162  0.00  0.00    -0.000 A 
ATOM     20  C   UNL     1      -0.911   1.766  26.086  0.00  0.00    +0.001 A 
ATOM     21  C   UNL     1      -0.790   1.248  25.456  0.00  0.00    +0.015 A 
ATOM     22  C   UNL     1      -0.199   1.405  24.901  0.00  0.00    +0.050 A 
ENDBRANCH  11  12
ENDBRANCH  10  11
ENDBRANCH   9  10
TORSDOF 5
ENDMDL
MODEL 9
REMARK VINA RESULT:     -10.1      3.604      6.231
REMARK  Name = 
REMARK  5 active torsions:
REMARK  status: ('A' for Active; 'I' for Inactive)
REMARK    1  A    between atoms: N_3  and  C_4
REMARK    2  A    between atoms: C_9  and  C_10
REMARK    3  A    between atoms: C_10  and  C_11
REMARK    4  A    between atoms: C_11  and  C_12
REMARK    5  A    between atoms: N_27  and  C_28
REMARK                            x       y       z     vdW  Elec       q    Type
REMARK                         _______ _______ _______ _____ _____    ______ ____
ROOT
ATOM      4  C   UNL     1       0.704   0.589  23.453  0.00  0.00    +0.115 C 
ATOM      5  C   UNL     1       0.477   1.348  23.682  0.00  0.00    +0.049 C 
ATOM      6  C   UNL     1      -0.106   1.277  24.262  0.00  0.00    +0.138 C 
ATOM      7  N   UNL     1      -0.238   0.472  24.392  0.00  0.00    -0.265 NA
ATOM      8  C   UNL     1       0.263   0.048  23.892  0.00  0.00    +0.094 C 
ATOM      9  C   UNL     1      -0.797   0.231  24.948  0.00  0.00    +0.080 C 
ATOM     23  C   UNL     1      -1.224   0.793  25.376  0.00  0.00    +0.131 C 
ATOM     24  N   UNL     1      -1.092   1.597  25.246  0.00  0.00    -0.203 NA
ATOM     25  C   UNL     1      -0.533   1.839  24.689  0.00  0.00    +0.256 C 
ATOM     26  O   UNL     1      -0.401   2.643  24.559  0.00  0.00    -0.272 OA
ENDROOT
BRANCH   4   3
ATOM      1  O   UNL     1       2.306   0.745  23.812  0.00  0.00    -0.249 OA
ATOM      2  C   UNL     1       2.074   0.483  23.065  0.00  0.00    +0.344 C 
ATOM      3  N   UNL     1       1.274   0.404  22.885  0.00  0.00    -0.187 NA
ATOM     27  N   UNL     1       2.644   0.298  22.497  0.00  0.00    -0.160 NA
BRANCH  27  28
ATOM     28  C   UNL     1       3.446   0.377  22.677  0.00  0.00    +0.082 A 
ATOM     29  C   UNL     1       3.933  -0.213  22.984  0.00  0.00    +0.052 A 
ATOM     30  S   UNL     1       4.690   0.104  23.078  0.00  0.00    -0.085 S 
ATOM     31  C   UNL     1       4.669   0.891  22.829  0.00  0.00    +0.037 A 
ATOM     32  C   UNL     1       3.900   1.059  22.581  0.00  0.00    +0.024 A 
ENDBRANCH  27  28
ENDBRANCH   4   3
BRANCH   9  10
ATOM     10  C   UNL     1      -0.929  -0.573  25.078  0.00  0.00    +0.027 C 
BRANCH  10  11
ATOM     11  C   UNL     1      -1.675  -0.896  24.938  0.00  0.00    +0.087 C 
BRANCH  11  12
ATOM     12  C   UNL     1      -1.789  -1.711  24.994  0.00  0.00    +0.229 C 
ATOM     13  O   UNL     1      -1.186  -2.193  25.286  0.00  0.00    -0.275 OA
ATOM     14  N   UNL     1      -2.505  -2.045  24.758  0.00  0.00    -0.259 N 
ATOM     15  C   UNL     1      -2.697  -2.847  24.781  0.00  0.00    +0.103 C 
ATOM     16  C   UNL     1      -3.466  -2.934  24.494  0.00  0.00    +0.049 C 
ATOM     17  C   UNL     1      -3.749  -2.186  24.293  0.00  0.00    -0.007 A 
ATOM     18  C   UNL     1      -4.470  -1.932  23.983  0.00  0.00    -0.003 A 
ATOM     19  C   UNL     1      -4.598  -1.131  23.836  0.00  0.00    -0.000 A 
ATOM     20  C   UNL     1      -4.004  -0.582  23.999  0.00  0.00    +0.001 A 
ATOM     21  C   UNL     1      -3.282  -0.834  24.309  0.00  0.00    +0.015 A 
ATOM     22  C   UNL     1      -3.155  -1.637  24.456  0.00  0.00    +0.050 A 
ENDBRANCH  11  12
ENDBRANCH  10  11
ENDBRANCH   9  10
TORSDOF 5
ENDMDL
MODEL 10
REMARK VINA RESULT:     -10.1      1.719      4.052
REMARK  Name = 
REMARK  5 active torsions:
REMARK  status: ('A' for Active; 'I' for Inactive)
REMARK    1  A    between atoms: N_3  and  C_4
REMARK    2  A    between atoms: C_9  and  C_10
REMARK    3  A    between atoms: C_10  and  C_11
REMARK    4  A    between atoms: C_11  and  C_12
REMARK    5  A    between atoms: N_27  and  C_28
REMARK                            x       y       z     vdW  Elec       q    Type
REMARK                         _______ _______ _______ _____ _____    ______ ____
ROOT
ATOM      4  C   UNL     1      -0.764   2.538  25.640  0.00  0.00    +0.115 C 
ATOM      5  C   UNL     1      -0.410   3.167  25.240  0.00  0.00    +0.049 C 
ATOM      6  C   UNL     1      -0.950   3.791  25.218  0.00  0.00    +0.138 C 
ATOM      7  N   UNL     1      -1.637   3.547  25.605  0.00  0.00    -0.265 NA
ATOM      8  C   UNL     1      -1.522   2.773  25.865  0.00  0.00    +0.094 C 
ATOM      9  C   UNL     1      -2.279   4.062  25.669  0.00  0.00    +0.080 C 
ATOM     23  C   UNL     1      -2.234   4.820  25.347  0.00  0.00    +0.131 C 
ATOM     24  N   UNL     1      -1.547   5.064  24.961  0.00  0.00    -0.203 NA
ATOM     25  C   UNL     1      -0.905   4.549  24.896  0.00  0.00    +0.256 C 
ATOM     26  O   UNL     1      -0.218   4.793  24.510  0.00  0.00    -0.272 OA
ENDROOT
BRANCH   4   3
ATOM      1  O   UNL     1      -1.258   1.210  24.795  0.00  0.00    -0.249 OA
ATOM      2  C   UNL     1      -0.666   1.140  25.366  0.00  0.00    +0.344 C 
ATOM      3  N   UNL     1      -0.419   1.803  25.789  0.00  0.00    -0.187 NA
ATOM     27  N   UNL     1      -0.322   0.405  25.514  0.00  0.00    -0.160 NA
BRANCH  27  28
ATOM     28  C   UNL     1      -0.569  -0.260  25.091  0.00  0.00    +0.082 A 
ATOM     29  C   UNL     1      -1.126  -0.813  25.341  0.00  0.00    +0.052 A 
ATOM     30  S   UNL     1      -1.204  -1.383  24.748  0.00  0.00    -0.085 S 
ATOM     31  C   UNL     1      -0.695  -1.180  24.132  0.00  0.00    +0.037 A 
ATOM     32  C   UNL     1      -0.302  -0.486  24.343  0.00  0.00    +0.024 A 
ENDBRANCH  27  28
ENDBRANCH   4   3
BRANCH   9  10
ATOM     10  C   UNL     1      -2.966   3.818  26.055  0.00  0.00    +0.027 C 
BRANCH  10  11
ATOM     11  C   UNL     1      -3.621   3.573  25.617  0.00  0.00    +0.087 C 
BRANCH  11  12
ATOM     12  C   UNL     1      -4.381   3.669  25.923  0.00  0.00    +0.229 C 
ATOM     13  O   UNL     1      -4.551   4.312  26.410  0.00  0.00    -0.275 OA
ATOM     14  N   UNL     1      -4.971   3.122  25.741  0.00  0.00    -0.259 N 
ATOM     15  C   UNL     1      -5.752   3.146  26.005  0.00  0.00    +0.103 C 
ATOM     16  C   UNL     1      -6.148   2.493  25.690  0.00  0.00    +0.049 C 
ATOM     17  C   UNL     1      -5.611   2.066  25.233  0.00  0.00    -0.007 A 
ATOM     18  C   UNL     1      -5.689   1.374  24.791  0.00  0.00    -0.003 A 
ATOM     19  C   UNL     1      -5.042   1.070  24.381  0.00  0.00    -0.000 A 
ATOM     20  C   UNL     1      -4.314   1.459  24.412  0.00  0.00    +0.001 A 
ATOM     21  C   UNL     1      -4.235   2.151  24.853  0.00  0.00    +0.015 A 
ATOM     22  C   UNL     1      -4.884   2.455  25.264  0.00  0.00    +0.050 A 
ENDBRANCH  11  12
ENDBRANCH  10  11
ENDBRANCH   9  10
TORSDOF 5
ENDMDL
