MODEL 1
REMARK VINA RESULT:     -11.7      0.000      0.000
REMARK  Name = 
REMARK  9 active torsions:
REMARK  status: ('A' for Active; 'I' for Inactive)
REMARK    1  A    between atoms: N_2  and  C_3
REMARK    2  A    between atoms: C_3  and  C_4
REMARK    3  A    between atoms: C_10  and  C_12
REMARK    4  A    between atoms: C_12  and  C_13
REMARK    5  A    between atoms: C_18  and  C_19
REMARK    6  A    between atoms: C_19  and  C_20
REMARK    7  A    between atoms: C_23  and  C_24
REMARK    8  A    between atoms: C_24  and  S_25
REMARK    9  A    between atoms: S_25  and  C_26
REMARK                            x       y       z     vdW  Elec       q    Type
REMARK                         _______ _______ _______ _____ _____    ______ ____
ROOT
ATOM     13  C   UNL     1      -1.331   2.971  25.054  0.00  0.00    +0.012 C 
ATOM     14  C   UNL     1      -1.063   3.575  24.560  0.00  0.00    +0.019 C 
ATOM     15  C   UNL     1      -0.322   3.519  24.205  0.00  0.00    +0.089 C 
ATOM     16  N   UNL     1       0.154   2.858  24.343  0.00  0.00    -0.218 NA
ATOM     17  C   UNL     1      -0.113   2.254  24.837  0.00  0.00    +0.089 C 
ATOM     18  C   UNL     1      -0.856   2.310  25.193  0.00  0.00    +0.024 C 
ENDROOT
BRANCH  13  12
ATOM     12  C   UNL     1      -2.073   3.027  25.410  0.00  0.00    +0.085 C 
BRANCH  12  10
ATOM      1  C   UNL     1      -3.914   4.139  25.044  0.00  0.00    +0.115 C 
ATOM      2  N   UNL     1      -3.402   3.528  25.254  0.00  0.00    -0.274 N 
ATOM     10  C   UNL     1      -2.586   3.637  25.200  0.00  0.00    +0.226 C 
ATOM     11  O   UNL     1      -2.284   4.358  24.936  0.00  0.00    -0.275 OA
BRANCH   2   3
ATOM      3  C   UNL     1      -3.705   2.807  25.518  0.00  0.00    +0.120 C 
BRANCH   3   4
ATOM      4  C   UNL     1      -4.498   2.622  25.390  0.00  0.00    -0.002 A 
ATOM      5  C   UNL     1      -5.075   2.895  25.910  0.00  0.00    -0.003 A 
ATOM      6  C   UNL     1      -5.869   2.709  25.781  0.00  0.00    -0.000 A 
ATOM      7  C   UNL     1      -6.084   2.250  25.131  0.00  0.00    -0.000 A 
ATOM      8  C   UNL     1      -5.507   1.977  24.610  0.00  0.00    -0.000 A 
ATOM      9  C   UNL     1      -4.714   2.162  24.738  0.00  0.00    -0.003 A 
ENDBRANCH   3   4
ENDBRANCH   2   3
ENDBRANCH  12  10
ENDBRANCH  13  12
BRANCH  18  19
ATOM     19  C   UNL     1      -1.123   1.706  25.687  0.00  0.00    +0.051 C 
BRANCH  19  20
ATOM     20  C   UNL     1      -1.088   0.921  25.434  0.00  0.00    +0.100 A 
ATOM     21  N   UNL     1      -0.407   0.459  25.380  0.00  0.00    -0.082 NA
ATOM     22  O   UNL     1      -0.627  -0.286  25.104  0.00  0.00    -0.357 OA
ATOM     23  C   UNL     1      -1.443  -0.285  24.988  0.00  0.00    +0.165 A 
ATOM     32  C   UNL     1      -1.729   0.461  25.192  0.00  0.00    +0.054 A 
BRANCH  23  24
ATOM     24  C   UNL     1      -1.895  -0.920  24.716  0.00  0.00    +0.129 C 
BRANCH  24  25
ATOM     25  S   UNL     1      -2.625  -1.086  25.064  0.00  0.00    -0.105 S 
BRANCH  25  26
ATOM     26  C   UNL     1      -3.147  -1.608  24.696  0.00  0.00    +0.026 A 
ATOM     27  C   UNL     1      -3.060  -2.422  24.804  0.00  0.00    +0.006 A 
ATOM     28  C   UNL     1      -3.582  -2.944  24.436  0.00  0.00    +0.001 A 
ATOM     29  C   UNL     1      -4.191  -2.654  23.961  0.00  0.00    +0.000 A 
ATOM     30  C   UNL     1      -4.278  -1.840  23.854  0.00  0.00    +0.001 A 
ATOM     31  C   UNL     1      -3.756  -1.318  24.222  0.00  0.00    +0.006 A 
ENDBRANCH  25  26
ENDBRANCH  24  25
ENDBRANCH  23  24
ENDBRANCH  19  20
ENDBRANCH  18  19
TORSDOF 9
ENDMDL
MODEL 2
REMARK VINA RESULT:     -11.5      1.219      4.220
REMARK  Name = 
REMARK  9 active torsions:
REMARK  status: ('A' for Active; 'I' for Inactive)
REMARK    1  A    between atoms: N_2  and  C_3
REMARK    2  A    between atoms: C_3  and  C_4
REMARK    3  A    between atoms: C_10  and  C_12
REMARK    4  A    between atoms: C_12  and  C_13
REMARK    5  A    between atoms: C_18  and  C_19
REMARK    6  A    between atoms: C_19  and  C_20
REMARK    7  A    between atoms: C_23  and  C_24
REMARK    8  A    between atoms: C_24  and  S_25
REMARK    9  A    between atoms: S_25  and  C_26
REMARK                            x       y       z     vdW  Elec       q    Type
REMARK                         _______ _______ _______ _____ _____    ______ ____
ROOT
ATOM     13  C   UNL     1      -0.384   0.538  24.515  0.00  0.00    +0.012 C 
ATOM     14  C   UNL     1       0.051   0.336  23.844  0.00  0.00    +0.019 C 
ATOM     15  C   UNL     1       0.555   0.888  23.497  0.00  0.00    +0.089 C 
ATOM     16  N   UNL     1       0.626   1.644  23.821  0.00  0.00    -0.218 NA
ATOM     17  C   UNL     1       0.192   1.846  24.492  0.00  0.00    +0.089 C 
ATOM     18  C   UNL     1      -0.313   1.294  24.840  0.00  0.00    +0.024 C 
ENDROOT
BRANCH  13  12
ATOM     12  C   UNL     1      -0.888  -0.014  24.862  0.00  0.00    +0.085 C 
BRANCH  12  10
ATOM      1  C   UNL     1      -1.334  -2.133  24.587  0.00  0.00    +0.115 C 
ATOM      2  N   UNL     1      -1.434  -1.329  24.740  0.00  0.00    -0.274 N 
ATOM     10  C   UNL     1      -0.787  -0.819  24.709  0.00  0.00    +0.226 C 
ATOM     11  O   UNL     1      -0.039  -1.113  24.524  0.00  0.00    -0.275 OA
BRANCH   2   3
ATOM      3  C   UNL     1      -2.183  -1.035  24.925  0.00  0.00    +0.120 C 
BRANCH   3   4
ATOM      4  C   UNL     1      -2.858  -1.433  24.666  0.00  0.00    -0.002 A 
ATOM      5  C   UNL     1      -3.027  -2.187  24.953  0.00  0.00    -0.003 A 
ATOM      6  C   UNL     1      -3.702  -2.586  24.694  0.00  0.00    -0.000 A 
ATOM      7  C   UNL     1      -4.207  -2.229  24.148  0.00  0.00    -0.000 A 
ATOM      8  C   UNL     1      -4.038  -1.475  23.861  0.00  0.00    -0.000 A 
ATOM      9  C   UNL     1      -3.363  -1.076  24.120  0.00  0.00    -0.003 A 
ENDBRANCH   3   4
ENDBRANCH   2   3
ENDBRANCH  12  10
ENDBRANCH  13  12
BRANCH  18  19
ATOM     19  C   UNL     1      -0.747   1.496  25.511  0.00  0.00    +0.051 C 
BRANCH  19  20
ATOM     20  C   UNL     1      -1.233   2.163  25.502  0.00  0.00    +0.100 A 
ATOM     21  N   UNL     1      -0.980   2.947  25.533  0.00  0.00    -0.082 NA
ATOM     22  O   UNL     1      -1.648   3.431  25.511  0.00  0.00    -0.357 OA
ATOM     23  C   UNL     1      -2.313   2.945  25.467  0.00  0.00    +0.165 A 
ATOM     32  C   UNL     1      -2.057   2.162  25.461  0.00  0.00    +0.054 A 
BRANCH  23  24
ATOM     24  C   UNL     1      -3.098   3.200  25.434  0.00  0.00    +0.129 C 
BRANCH  24  25
ATOM     25  S   UNL     1      -3.608   2.893  24.861  0.00  0.00    -0.105 S 
BRANCH  25  26
ATOM     26  C   UNL     1      -4.410   2.804  25.029  0.00  0.00    +0.026 A 
ATOM     27  C   UNL     1      -4.817   3.404  25.424  0.00  0.00    +0.006 A 
ATOM     28  C   UNL     1      -5.620   3.316  25.592  0.00  0.00    +0.001 A 
ATOM     29  C   UNL     1      -6.016   2.627  25.366  0.00  0.00    +0.000 A 
ATOM     30  C   UNL     1      -5.608   2.028  24.972  0.00  0.00    +0.001 A 
ATOM     31  C   UNL     1      -4.806   2.117  24.804  0.00  0.00    +0.006 A 
ENDBRANCH  25  26
ENDBRANCH  24  25
ENDBRANCH  23  24
ENDBRANCH  19  20
ENDBRANCH  18  19
TORSDOF 9
ENDMDL
MODEL 3
REMARK VINA RESULT:     -11.4      1.397      3.571
REMARK  Name = 
REMARK  9 active torsions:
REMARK  status: ('A' for Active; 'I' for Inactive)
REMARK    1  A    between atoms: N_2  and  C_3
REMARK    2  A    between atoms: C_3  and  C_4
REMARK    3  A    between atoms: C_10  and  C_12
REMARK    4  A    between atoms: C_12  and  C_13
REMARK    5  A    between atoms: C_18  and  C_19
REMARK    6  A    between atoms: C_19  and  C_20
REMARK    7  A    between atoms: C_23  and  C_24
REMARK    8  A    between atoms: C_24  and  S_25
REMARK    9  A    between atoms: S_25  and  C_26
REMARK                            x       y       z     vdW  Elec       q    Type
REMARK                         _______ _______ _______ _____ _____    ______ ____
ROOT
ATOM     13  C   UNL     1      -2.362   3.290  25.040  0.00  0.00    +0.012 C 
ATOM     14  C   UNL     1      -2.049   3.733  25.662  0.00  0.00    +0.019 C 
ATOM     15  C   UNL     1      -2.553   4.128  26.181  0.00  0.00    +0.089 C 
ATOM     16  N   UNL     1      -3.371   4.081  26.079  0.00  0.00    -0.218 NA
ATOM     17  C   UNL     1      -3.684   3.638  25.458  0.00  0.00    +0.089 C 
ATOM     18  C   UNL     1      -3.180   3.242  24.938  0.00  0.00    +0.024 C 
ENDROOT
BRANCH  13  12
ATOM     12  C   UNL     1      -1.858   2.894  24.521  0.00  0.00    +0.085 C 
BRANCH  12  10
ATOM      1  C   UNL     1       0.243   2.305  24.508  0.00  0.00    +0.115 C 
ATOM      2  N   UNL     1      -0.572   2.287  24.386  0.00  0.00    -0.274 N 
ATOM     10  C   UNL     1      -1.043   2.913  24.643  0.00  0.00    +0.226 C 
ATOM     11  O   UNL     1      -0.697   3.559  25.023  0.00  0.00    -0.275 OA
BRANCH   2   3
ATOM      3  C   UNL     1      -0.918   1.640  24.006  0.00  0.00    +0.120 C 
BRANCH   3   4
ATOM      4  C   UNL     1      -0.530   0.912  23.997  0.00  0.00    -0.002 A 
ATOM      5  C   UNL     1      -0.066   0.699  23.351  0.00  0.00    -0.003 A 
ATOM      6  C   UNL     1       0.322  -0.030  23.342  0.00  0.00    -0.000 A 
ATOM      7  C   UNL     1       0.244  -0.545  23.982  0.00  0.00    -0.000 A 
ATOM      8  C   UNL     1      -0.221  -0.332  24.629  0.00  0.00    -0.000 A 
ATOM      9  C   UNL     1      -0.608   0.396  24.637  0.00  0.00    -0.003 A 
ENDBRANCH   3   4
ENDBRANCH   2   3
ENDBRANCH  12  10
ENDBRANCH  13  12
BRANCH  18  19
ATOM     19  C   UNL     1      -3.493   2.799  24.317  0.00  0.00    +0.051 C 
BRANCH  19  20
ATOM     20  C   UNL     1      -3.997   2.166  24.475  0.00  0.00    +0.100 A 
ATOM     21  N   UNL     1      -4.752   2.217  24.805  0.00  0.00    -0.082 NA
ATOM     22  O   UNL     1      -5.056   1.453  24.865  0.00  0.00    -0.357 OA
ATOM     23  C   UNL     1      -4.490   0.929  24.573  0.00  0.00    +0.165 A 
ATOM     32  C   UNL     1      -3.836   1.369  24.332  0.00  0.00    +0.054 A 
BRANCH  23  24
ATOM     24  C   UNL     1      -4.566   0.109  24.529  0.00  0.00    +0.129 C 
BRANCH  24  25
ATOM     25  S   UNL     1      -4.093  -0.375  25.002  0.00  0.00    -0.105 S 
BRANCH  25  26
ATOM     26  C   UNL     1      -3.965  -1.162  24.788  0.00  0.00    +0.026 A 
ATOM     27  C   UNL     1      -3.548  -1.663  25.294  0.00  0.00    +0.006 A 
ATOM     28  C   UNL     1      -3.420  -2.450  25.080  0.00  0.00    +0.001 A 
ATOM     29  C   UNL     1      -3.709  -2.735  24.361  0.00  0.00    +0.000 A 
ATOM     30  C   UNL     1      -4.125  -2.233  23.857  0.00  0.00    +0.001 A 
ATOM     31  C   UNL     1      -4.253  -1.446  24.070  0.00  0.00    +0.006 A 
ENDBRANCH  25  26
ENDBRANCH  24  25
ENDBRANCH  23  24
ENDBRANCH  19  20
ENDBRANCH  18  19
TORSDOF 9
ENDMDL
MODEL 4
REMARK VINA RESULT:     -11.2      1.644      4.387
REMARK  Name = 
REMARK  9 active torsions:
REMARK  status: ('A' for Active; 'I' for Inactive)
REMARK    1  A    between atoms: N_2  and  C_3
REMARK    2  A    between atoms: C_3  and  C_4
REMARK    3  A    between atoms: C_10  and  C_12
REMARK    4  A    between atoms: C_12  and  C_13
REMARK    5  A    between atoms: C_18  and  C_19
REMARK    6  A    between atoms: C_19  and  C_20
REMARK    7  A    between atoms: C_23  and  C_24
REMARK    8  A    between atoms: C_24  and  S_25
REMARK    9  A    between atoms: S_25  and  C_26
REMARK                            x       y       z     vdW  Elec       q    Type
REMARK                         _______ _______ _______ _____ _____    ______ ____
ROOT
ATOM     13  C   UNL     1      -2.403  -1.237  25.012  0.00  0.00    +0.012 C 
ATOM     14  C   UNL     1      -2.494  -1.912  24.547  0.00  0.00    +0.019 C 
ATOM     15  C   UNL     1      -1.838  -2.374  24.357  0.00  0.00    +0.089 C 
ATOM     16  N   UNL     1      -1.089  -2.160  24.631  0.00  0.00    -0.218 NA
ATOM     17  C   UNL     1      -0.998  -1.485  25.096  0.00  0.00    +0.089 C 
ATOM     18  C   UNL     1      -1.654  -1.023  25.287  0.00  0.00    +0.024 C 
ENDROOT
BRANCH  13  12
ATOM     12  C   UNL     1      -3.059  -0.775  25.202  0.00  0.00    +0.085 C 
BRANCH  12  10
ATOM      1  C   UNL     1      -5.047  -0.382  24.392  0.00  0.00    +0.115 C 
ATOM      2  N   UNL     1      -4.339  -0.281  24.803  0.00  0.00    -0.274 N 
ATOM     10  C   UNL     1      -3.767  -0.875  24.791  0.00  0.00    +0.226 C 
ATOM     11  O   UNL     1      -3.904  -1.570  24.369  0.00  0.00    -0.275 OA
BRANCH   2   3
ATOM      3  C   UNL     1      -4.202   0.415  25.226  0.00  0.00    +0.120 C 
BRANCH   3   4
ATOM      4  C   UNL     1      -4.684   1.073  25.103  0.00  0.00    -0.002 A 
ATOM      5  C   UNL     1      -5.354   1.186  25.569  0.00  0.00    -0.003 A 
ATOM      6  C   UNL     1      -5.837   1.845  25.445  0.00  0.00    -0.000 A 
ATOM      7  C   UNL     1      -5.647   2.389  24.856  0.00  0.00    -0.000 A 
ATOM      8  C   UNL     1      -4.976   2.276  24.390  0.00  0.00    -0.000 A 
ATOM      9  C   UNL     1      -4.494   1.618  24.513  0.00  0.00    -0.003 A 
ENDBRANCH   3   4
ENDBRANCH   2   3
ENDBRANCH  12  10
ENDBRANCH  13  12
BRANCH  18  19
ATOM     19  C   UNL     1      -1.563  -0.348  25.751  0.00  0.00    +0.051 C 
BRANCH  19  20
ATOM     20  C   UNL     1      -1.091   0.275  25.485  0.00  0.00    +0.100 A 
ATOM     21  N   UNL     1      -0.396   0.204  25.047  0.00  0.00    -0.082 NA
ATOM     22  O   UNL     1      -0.108   0.963  24.902  0.00  0.00    -0.357 OA
ATOM     23  C   UNL     1      -0.625   1.503  25.251  0.00  0.00    +0.165 A 
ATOM     32  C   UNL     1      -1.233   1.078  25.612  0.00  0.00    +0.054 A 
BRANCH  23  24
ATOM     24  C   UNL     1      -0.548   2.325  25.241  0.00  0.00    +0.129 C 
BRANCH  24  25
ATOM     25  S   UNL     1      -1.008   2.777  24.726  0.00  0.00    -0.105 S 
BRANCH  25  26
ATOM     26  C   UNL     1      -1.105   3.584  24.861  0.00  0.00    +0.026 A 
ATOM     27  C   UNL     1      -1.783   3.859  25.245  0.00  0.00    +0.006 A 
ATOM     28  C   UNL     1      -1.880   4.667  25.380  0.00  0.00    +0.001 A 
ATOM     29  C   UNL     1      -1.301   5.200  25.133  0.00  0.00    +0.000 A 
ATOM     30  C   UNL     1      -0.624   4.925  24.750  0.00  0.00    +0.001 A 
ATOM     31  C   UNL     1      -0.527   4.117  24.614  0.00  0.00    +0.006 A 
ENDBRANCH  25  26
ENDBRANCH  24  25
ENDBRANCH  23  24
ENDBRANCH  19  20
ENDBRANCH  18  19
TORSDOF 9
ENDMDL
MODEL 5
REMARK VINA RESULT:     -11.1      1.488      3.618
REMARK  Name = 
REMARK  9 active torsions:
REMARK  status: ('A' for Active; 'I' for Inactive)
REMARK    1  A    between atoms: N_2  and  C_3
REMARK    2  A    between atoms: C_3  and  C_4
REMARK    3  A    between atoms: C_10  and  C_12
REMARK    4  A    between atoms: C_12  and  C_13
REMARK    5  A    between atoms: C_18  and  C_19
REMARK    6  A    between atoms: C_19  and  C_20
REMARK    7  A    between atoms: C_23  and  C_24
REMARK    8  A    between atoms: C_24  and  S_25
REMARK    9  A    between atoms: S_25  and  C_26
REMARK                            x       y       z     vdW  Elec       q    Type
REMARK                         _______ _______ _______ _____ _____    ______ ____
ROOT
ATOM     13  C   UNL     1      -3.374   3.715  25.405  0.00  0.00    +0.012 C 
ATOM     14  C   UNL     1      -3.292   4.191  26.074  0.00  0.00    +0.019 C 
ATOM     15  C   UNL     1      -3.930   4.303  26.583  0.00  0.00    +0.089 C 
ATOM     16  N   UNL     1      -4.654   3.938  26.424  0.00  0.00    -0.218 NA
ATOM     17  C   UNL     1      -4.737   3.462  25.756  0.00  0.00    +0.089 C 
ATOM     18  C   UNL     1      -4.098   3.350  25.246  0.00  0.00    +0.024 C 
ENDROOT
BRANCH  13  12
ATOM     12  C   UNL     1      -2.736   3.603  24.896  0.00  0.00    +0.085 C 
BRANCH  12  10
ATOM      1  C   UNL     1      -0.593   4.013  24.941  0.00  0.00    +0.115 C 
ATOM      2  N   UNL     1      -1.311   3.639  24.789  0.00  0.00    -0.274 N 
ATOM     10  C   UNL     1      -2.016   3.978  25.049  0.00  0.00    +0.226 C 
ATOM     11  O   UNL     1      -2.002   4.692  25.461  0.00  0.00    -0.275 OA
BRANCH   2   3
ATOM      3  C   UNL     1      -1.325   2.924  24.375  0.00  0.00    +0.120 C 
BRANCH   3   4
ATOM      4  C   UNL     1      -0.686   2.404  24.429  0.00  0.00    -0.002 A 
ATOM      5  C   UNL     1      -0.690   1.803  24.993  0.00  0.00    -0.003 A 
ATOM      6  C   UNL     1      -0.051   1.283  25.046  0.00  0.00    -0.000 A 
ATOM      7  C   UNL     1       0.591   1.367  24.536  0.00  0.00    -0.000 A 
ATOM      8  C   UNL     1       0.595   1.968  23.973  0.00  0.00    -0.000 A 
ATOM      9  C   UNL     1      -0.043   2.488  23.919  0.00  0.00    -0.003 A 
ENDBRANCH   3   4
ENDBRANCH   2   3
ENDBRANCH  12  10
ENDBRANCH  13  12
BRANCH  18  19
ATOM     19  C   UNL     1      -4.181   2.874  24.578  0.00  0.00    +0.051 C 
BRANCH  19  20
ATOM     20  C   UNL     1      -4.560   2.143  24.637  0.00  0.00    +0.100 A 
ATOM     21  N   UNL     1      -5.375   2.021  24.671  0.00  0.00    -0.082 NA
ATOM     22  O   UNL     1      -5.508   1.209  24.727  0.00  0.00    -0.357 OA
ATOM     23  C   UNL     1      -4.776   0.830  24.728  0.00  0.00    +0.165 A 
ATOM     32  C   UNL     1      -4.190   1.407  24.672  0.00  0.00    +0.054 A 
BRANCH  23  24
ATOM     24  C   UNL     1      -4.652   0.015  24.776  0.00  0.00    +0.129 C 
BRANCH  24  25
ATOM     25  S   UNL     1      -3.960  -0.316  24.472  0.00  0.00    -0.105 S 
BRANCH  25  26
ATOM     26  C   UNL     1      -3.851  -1.133  24.491  0.00  0.00    +0.026 A 
ATOM     27  C   UNL     1      -4.183  -1.607  23.903  0.00  0.00    +0.006 A 
ATOM     28  C   UNL     1      -4.074  -2.424  23.922  0.00  0.00    +0.001 A 
ATOM     29  C   UNL     1      -3.634  -2.769  24.529  0.00  0.00    +0.000 A 
ATOM     30  C   UNL     1      -3.302  -2.294  25.117  0.00  0.00    +0.001 A 
ATOM     31  C   UNL     1      -3.411  -1.477  25.098  0.00  0.00    +0.006 A 
ENDBRANCH  25  26
ENDBRANCH  24  25
ENDBRANCH  23  24
ENDBRANCH  19  20
ENDBRANCH  18  19
TORSDOF 9
ENDMDL
MODEL 6
REMARK VINA RESULT:     -10.9      1.712      3.731
REMARK  Name = 
REMARK  9 active torsions:
REMARK  status: ('A' for Active; 'I' for Inactive)
REMARK    1  A    between atoms: N_2  and  C_3
REMARK    2  A    between atoms: C_3  and  C_4
REMARK    3  A    between atoms: C_10  and  C_12
REMARK    4  A    between atoms: C_12  and  C_13
REMARK    5  A    between atoms: C_18  and  C_19
REMARK    6  A    between atoms: C_19  and  C_20
REMARK    7  A    between atoms: C_23  and  C_24
REMARK    8  A    between atoms: C_24  and  S_25
REMARK    9  A    between atoms: S_25  and  C_26
REMARK                            x       y       z     vdW  Elec       q    Type
REMARK                         _______ _______ _______ _____ _____    ______ ____
ROOT
ATOM     13  C   UNL     1      -4.914   2.749  25.270  0.00  0.00    +0.012 C 
ATOM     14  C   UNL     1      -5.493   3.054  25.771  0.00  0.00    +0.019 C 
ATOM     15  C   UNL     1      -6.220   2.672  25.843  0.00  0.00    +0.089 C 
ATOM     16  N   UNL     1      -6.369   1.983  25.412  0.00  0.00    -0.218 NA
ATOM     17  C   UNL     1      -5.790   1.678  24.911  0.00  0.00    +0.089 C 
ATOM     18  C   UNL     1      -5.062   2.060  24.839  0.00  0.00    +0.024 C 
ENDROOT
BRANCH  13  12
ATOM     12  C   UNL     1      -4.187   3.131  25.198  0.00  0.00    +0.085 C 
BRANCH  12  10
ATOM      1  C   UNL     1      -2.898   4.454  26.360  0.00  0.00    +0.115 C 
ATOM      2  N   UNL     1      -3.187   3.997  25.738  0.00  0.00    -0.274 N 
ATOM     10  C   UNL     1      -3.898   3.588  25.821  0.00  0.00    +0.226 C 
ATOM     11  O   UNL     1      -4.320   3.636  26.528  0.00  0.00    -0.275 OA
BRANCH   2   3
ATOM      3  C   UNL     1      -2.764   3.949  25.030  0.00  0.00    +0.120 C 
BRANCH   3   4
ATOM      4  C   UNL     1      -1.965   4.155  25.013  0.00  0.00    -0.002 A 
ATOM      5  C   UNL     1      -1.387   3.572  25.079  0.00  0.00    -0.003 A 
ATOM      6  C   UNL     1      -0.588   3.778  25.061  0.00  0.00    -0.000 A 
ATOM      7  C   UNL     1      -0.369   4.569  24.979  0.00  0.00    -0.000 A 
ATOM      8  C   UNL     1      -0.947   5.153  24.913  0.00  0.00    -0.000 A 
ATOM      9  C   UNL     1      -1.746   4.947  24.930  0.00  0.00    -0.003 A 
ENDBRANCH   3   4
ENDBRANCH   2   3
ENDBRANCH  12  10
ENDBRANCH  13  12
BRANCH  18  19
ATOM     19  C   UNL     1      -4.483   1.754  24.338  0.00  0.00    +0.051 C 
BRANCH  19  20
ATOM     20  C   UNL     1      -4.302   0.950  24.360  0.00  0.00    +0.100 A 
ATOM     21  N   UNL     1      -4.845   0.331  24.410  0.00  0.00    -0.082 NA
ATOM     22  O   UNL     1      -4.424  -0.378  24.416  0.00  0.00    -0.357 OA
ATOM     23  C   UNL     1      -3.621  -0.198  24.369  0.00  0.00    +0.165 A 
ATOM     32  C   UNL     1      -3.545   0.622  24.334  0.00  0.00    +0.054 A 
BRANCH  23  24
ATOM     24  C   UNL     1      -3.001  -0.743  24.359  0.00  0.00    +0.129 C 
BRANCH  24  25
ATOM     25  S   UNL     1      -2.665  -0.999  25.068  0.00  0.00    -0.105 S 
BRANCH  25  26
ATOM     26  C   UNL     1      -1.935  -1.383  25.063  0.00  0.00    +0.026 A 
ATOM     27  C   UNL     1      -1.867  -2.136  24.732  0.00  0.00    +0.006 A 
ATOM     28  C   UNL     1      -1.137  -2.520  24.727  0.00  0.00    +0.001 A 
ATOM     29  C   UNL     1      -0.474  -2.151  25.052  0.00  0.00    +0.000 A 
ATOM     30  C   UNL     1      -0.543  -1.398  25.383  0.00  0.00    +0.001 A 
ATOM     31  C   UNL     1      -1.273  -1.014  25.388  0.00  0.00    +0.006 A 
ENDBRANCH  25  26
ENDBRANCH  24  25
ENDBRANCH  23  24
ENDBRANCH  19  20
ENDBRANCH  18  19
TORSDOF 9
ENDMDL
