REMARK  Name = 
REMARK  6 active torsions:
REMARK  status: ('A' for Active; 'I' for Inactive)
REMARK    1  A    between atoms: C_2  and  C_4
REMARK    2  A    between atoms: C_4  and  S_5
REMARK    3  A    between atoms: S_5  and  C_6
REMARK    4  A    between atoms: C_6  and  C_7
REMARK    5  A    between atoms: C_18  and  C_23
REMARK    6  A    between atoms: C_25  and  C_29
REMARK                            x       y       z     vdW  Elec       q    Type
REMARK                         _______ _______ _______ _____ _____    ______ ____
ROOT
ATOM      7  C   UNL     1       0.125  -2.547   0.000  0.00  0.00    +0.237 C 
ATOM      8  O   UNL     1      -0.614  -2.179   0.000  0.00  0.00    -0.274 OA
ATOM      9  N   UNL     1       0.813  -2.091   0.000  0.00  0.00    -0.278 N 
ATOM     10  C   UNL     1       1.629  -1.912   0.000  0.00  0.00    +0.095 C 
ATOM     11  C   UNL     1       1.582  -0.925   0.000  0.00  0.00    +0.043 C 
ATOM     12  C   UNL     1       1.713  -0.121   0.000  0.00  0.00    +0.011 C 
ATOM     13  C   UNL     1       1.163  -0.557   0.000  0.00  0.00    +0.058 C 
ATOM     14  C   UNL     1       1.225  -1.510   0.000  0.00  0.00    +0.099 C 
ATOM     15  C   UNL     1       0.244  -0.558   0.000  0.00  0.00    +0.041 A 
ATOM     16  C   UNL     1      -0.397  -0.039   0.000  0.00  0.00    +0.013 A 
ATOM     17  C   UNL     1      -1.167  -0.335   0.000  0.00  0.00    +0.006 A 
ATOM     18  C   UNL     1      -1.296  -1.150   0.000  0.00  0.00    +0.056 A 
ATOM     19  C   UNL     1      -0.655  -1.669   0.000  0.00  0.00    +0.261 A 
ATOM     20  O   UNL     1      -1.029  -2.404   0.000  0.00  0.00    -0.267 OA
ATOM     21  N   UNL     1       0.115  -1.373   0.000  0.00  0.00    -0.299 N 
ATOM     22  C   UNL     1       0.622  -0.936   0.000  0.00  0.00    +0.110 C 
ENDROOT
BRANCH  18  23
ATOM     23  C   UNL     1      -2.066  -1.445   0.000  0.00  0.00    +0.005 A 
ATOM     24  C   UNL     1      -2.195  -2.260   0.000  0.00  0.00    +0.010 A 
ATOM     25  C   UNL     1      -2.965  -2.556   0.000  0.00  0.00    +0.068 A 
ATOM     26  C   UNL     1      -3.606  -2.037   0.000  0.00  0.00    +0.010 A 
ATOM     27  C   UNL     1      -3.478  -1.222   0.000  0.00  0.00    +0.001 A 
ATOM     28  C   UNL     1      -2.707  -0.926   0.000  0.00  0.00    +0.000 A 
BRANCH  25  29
ATOM     29  C   UNL     1      -3.094  -3.371   0.000  0.00  0.00    +0.100 C 
ATOM     30  N   UNL     1      -3.223  -4.186   0.000  0.00  0.00    -0.191 NA
ENDBRANCH  25  29
ENDBRANCH  18  23
BRANCH   7   6
ATOM      6  C   UNL     1       0.176  -3.370   0.000  0.00  0.00    +0.143 C 
BRANCH   6   5
ATOM      5  S   UNL     1      -0.512  -3.826   0.000  0.00  0.00    -0.119 S 
BRANCH   5   4
ATOM      4  C   UNL     1      -0.461  -4.650   0.000  0.00  0.00    +0.172 C 
BRANCH   4   2
ATOM      1  O   UNL     1      -1.098  -5.929   0.000  0.00  0.00    -0.245 OA
ATOM      2  C   UNL     1      -1.149  -5.105   0.000  0.00  0.00    +0.376 C 
ATOM      3  O   UNL     1      -1.888  -4.737   0.000  0.00  0.00    -0.245 OA
ENDBRANCH   4   2
ENDBRANCH   5   4
ENDBRANCH   6   5
ENDBRANCH   7   6
TORSDOF 6
