MODEL 1
REMARK VINA RESULT:      -9.8      0.000      0.000
REMARK  Name = 
REMARK  5 active torsions:
REMARK  status: ('A' for Active; 'I' for Inactive)
REMARK    1  A    between atoms: C_2  and  C_3
REMARK    2  A    between atoms: N_5  and  S_13
REMARK    3  A    between atoms: C_8  and  C_9
REMARK    4  A    between atoms: C_9  and  C_10
REMARK    5  A    between atoms: S_13  and  C_16
REMARK                            x       y       z     vdW  Elec       q    Type
REMARK                         _______ _______ _______ _____ _____    ______ ____
ROOT
ATOM      3  C   UNL     1      -4.766   1.592  24.933  0.00  0.00    +0.018 C 
ATOM      4  C   UNL     1      -4.611   0.785  25.005  0.00  0.00    +0.096 C 
ATOM      5  N   UNL     1      -3.900   0.476  24.724  0.00  0.00    -0.155 NA
ATOM      6  C   UNL     1      -3.343   0.972  24.372  0.00  0.00    +0.096 C 
ATOM      7  C   UNL     1      -3.498   1.779  24.300  0.00  0.00    +0.020 C 
ATOM      8  C   UNL     1      -4.209   2.090  24.581  0.00  0.00    +0.014 C 
ENDROOT
BRANCH   5  13
ATOM     13  S   UNL     1      -3.745  -0.332  24.796  0.00  0.00    +0.067 S 
ATOM     14  O   UNL     1      -4.217  -0.362  25.471  0.00  0.00    -0.153 OA
ATOM     15  O   UNL     1      -3.273  -0.301  24.120  0.00  0.00    -0.153 OA
BRANCH  13  16
ATOM     16  C   UNL     1      -3.590  -1.139  24.867  0.00  0.00    +0.171 A 
ATOM     17  C   UNL     1      -3.090  -1.489  25.422  0.00  0.00    +0.173 A 
ATOM     18  C   UNL     1      -2.657  -1.094  26.002  0.00  0.00    +0.077 C 
ATOM     19  O   UNL     1      -3.099  -2.305  25.295  0.00  0.00    -0.357 OA
ATOM     20  N   UNL     1      -3.605  -2.458  24.661  0.00  0.00    -0.080 NA
ATOM     21  C   UNL     1      -3.908  -1.737  24.397  0.00  0.00    +0.119 A 
ATOM     22  C   UNL     1      -4.437  -1.633  23.772  0.00  0.00    +0.057 C 
ENDBRANCH  13  16
ENDBRANCH   5  13
BRANCH   3   2
ATOM      1  C   UNL     1      -6.188   1.518  25.052  0.00  0.00    +0.000 C 
ATOM      2  C   UNL     1      -5.477   1.903  25.213  0.00  0.00    +0.001 C 
ENDBRANCH   3   2
BRANCH   8   9
ATOM      9  C   UNL     1      -4.364   2.897  24.509  0.00  0.00    +0.114 C 
BRANCH   9  10
ATOM     10  C   UNL     1      -3.796   3.398  24.182  0.00  0.00    +0.365 C 
ATOM     11  O   UNL     1      -3.255   3.783  24.672  0.00  0.00    -0.246 OA
ATOM     12  O   UNL     1      -3.768   3.515  23.366  0.00  0.00    -0.246 OA
ENDBRANCH   9  10
ENDBRANCH   8   9
TORSDOF 5
ENDMDL
MODEL 2
REMARK VINA RESULT:      -9.6      1.106      1.662
REMARK  Name = 
REMARK  5 active torsions:
REMARK  status: ('A' for Active; 'I' for Inactive)
REMARK    1  A    between atoms: C_2  and  C_3
REMARK    2  A    between atoms: N_5  and  S_13
REMARK    3  A    between atoms: C_8  and  C_9
REMARK    4  A    between atoms: C_9  and  C_10
REMARK    5  A    between atoms: S_13  and  C_16
REMARK                            x       y       z     vdW  Elec       q    Type
REMARK                         _______ _______ _______ _____ _____    ______ ____
ROOT
ATOM      3  C   UNL     1      -3.926   1.626  24.319  0.00  0.00    +0.018 C 
ATOM      4  C   UNL     1      -3.576   0.879  24.284  0.00  0.00    +0.096 C 
ATOM      5  N   UNL     1      -3.888   0.257  24.727  0.00  0.00    -0.155 NA
ATOM      6  C   UNL     1      -4.548   0.380  25.205  0.00  0.00    +0.096 C 
ATOM      7  C   UNL     1      -4.898   1.127  25.241  0.00  0.00    +0.020 C 
ATOM      8  C   UNL     1      -4.587   1.750  24.798  0.00  0.00    +0.014 C 
ENDROOT
BRANCH   5  13
ATOM     13  S   UNL     1      -3.538  -0.490  24.691  0.00  0.00    +0.067 S 
ATOM     14  O   UNL     1      -3.347  -0.362  23.899  0.00  0.00    -0.153 OA
ATOM     15  O   UNL     1      -3.729  -0.617  25.484  0.00  0.00    -0.153 OA
BRANCH  13  16
ATOM     16  C   UNL     1      -3.189  -1.236  24.656  0.00  0.00    +0.171 A 
ATOM     17  C   UNL     1      -2.455  -1.443  24.971  0.00  0.00    +0.173 A 
ATOM     18  C   UNL     1      -1.942  -0.941  25.377  0.00  0.00    +0.077 C 
ATOM     19  O   UNL     1      -2.324  -2.242  24.809  0.00  0.00    -0.357 OA
ATOM     20  N   UNL     1      -2.976  -2.528  24.394  0.00  0.00    -0.080 NA
ATOM     21  C   UNL     1      -3.511  -1.906  24.299  0.00  0.00    +0.119 A 
ATOM     22  C   UNL     1      -4.240  -1.947  23.915  0.00  0.00    +0.057 C 
ENDBRANCH  13  16
ENDBRANCH   5  13
BRANCH   3   2
ATOM      1  C   UNL     1      -2.800   2.313  23.770  0.00  0.00    +0.000 C 
ATOM      2  C   UNL     1      -3.616   2.249  23.877  0.00  0.00    +0.001 C 
ENDBRANCH   3   2
BRANCH   8   9
ATOM      9  C   UNL     1      -4.937   2.496  24.834  0.00  0.00    +0.114 C 
BRANCH   9  10
ATOM     10  C   UNL     1      -5.573   2.629  25.341  0.00  0.00    +0.365 C 
ATOM     11  O   UNL     1      -5.447   2.984  26.075  0.00  0.00    -0.246 OA
ATOM     12  O   UNL     1      -6.335   2.408  25.116  0.00  0.00    -0.246 OA
ENDBRANCH   9  10
ENDBRANCH   8   9
TORSDOF 5
ENDMDL
MODEL 3
REMARK VINA RESULT:      -9.3      1.250      4.220
REMARK  Name = 
REMARK  5 active torsions:
REMARK  status: ('A' for Active; 'I' for Inactive)
REMARK    1  A    between atoms: C_2  and  C_3
REMARK    2  A    between atoms: N_5  and  S_13
REMARK    3  A    between atoms: C_8  and  C_9
REMARK    4  A    between atoms: C_9  and  C_10
REMARK    5  A    between atoms: S_13  and  C_16
REMARK                            x       y       z     vdW  Elec       q    Type
REMARK                         _______ _______ _______ _____ _____    ______ ____
ROOT
ATOM      3  C   UNL     1      -2.493  -0.561  25.064  0.00  0.00    +0.018 C 
ATOM      4  C   UNL     1      -2.746   0.216  24.946  0.00  0.00    +0.096 C 
ATOM      5  N   UNL     1      -3.464   0.362  24.566  0.00  0.00    -0.155 NA
ATOM      6  C   UNL     1      -3.928  -0.267  24.305  0.00  0.00    +0.096 C 
ATOM      7  C   UNL     1      -3.676  -1.043  24.424  0.00  0.00    +0.020 C 
ATOM      8  C   UNL     1      -2.959  -1.191  24.803  0.00  0.00    +0.014 C 
ENDROOT
BRANCH   5  13
ATOM     13  S   UNL     1      -3.716   1.138  24.447  0.00  0.00    +0.067 S 
ATOM     14  O   UNL     1      -3.884   0.963  23.659  0.00  0.00    -0.153 OA
ATOM     15  O   UNL     1      -3.548   1.313  25.236  0.00  0.00    -0.153 OA
BRANCH  13  16
ATOM     16  C   UNL     1      -3.968   1.915  24.329  0.00  0.00    +0.171 A 
ATOM     17  C   UNL     1      -4.662   2.250  24.625  0.00  0.00    +0.173 A 
ATOM     18  C   UNL     1      -5.224   1.867  25.091  0.00  0.00    +0.077 C 
ATOM     19  O   UNL     1      -4.694   3.035  24.373  0.00  0.00    -0.357 OA
ATOM     20  N   UNL     1      -4.021   3.185  23.921  0.00  0.00    -0.080 NA
ATOM     21  C   UNL     1      -3.572   2.492  23.894  0.00  0.00    +0.119 A 
ATOM     22  C   UNL     1      -2.853   2.395  23.500  0.00  0.00    +0.057 C 
ENDBRANCH  13  16
ENDBRANCH   5  13
BRANCH   3   2
ATOM      1  C   UNL     1      -1.133  -0.206  25.323  0.00  0.00    +0.000 C 
ATOM      2  C   UNL     1      -1.776  -0.709  25.444  0.00  0.00    +0.001 C 
ENDBRANCH   3   2
BRANCH   8   9
ATOM      9  C   UNL     1      -2.706  -1.967  24.922  0.00  0.00    +0.114 C 
BRANCH   9  10
ATOM     10  C   UNL     1      -3.230  -2.593  24.805  0.00  0.00    +0.365 C 
ATOM     11  O   UNL     1      -3.662  -2.893  25.441  0.00  0.00    -0.246 OA
ATOM     12  O   UNL     1      -3.322  -2.920  24.053  0.00  0.00    -0.246 OA
ENDBRANCH   9  10
ENDBRANCH   8   9
TORSDOF 5
ENDMDL
MODEL 4
REMARK VINA RESULT:      -9.3      1.945      4.132
REMARK  Name = 
REMARK  5 active torsions:
REMARK  status: ('A' for Active; 'I' for Inactive)
REMARK    1  A    between atoms: C_2  and  C_3
REMARK    2  A    between atoms: N_5  and  S_13
REMARK    3  A    between atoms: C_8  and  C_9
REMARK    4  A    between atoms: C_9  and  C_10
REMARK    5  A    between atoms: S_13  and  C_16
REMARK                            x       y       z     vdW  Elec       q    Type
REMARK                         _______ _______ _______ _____ _____    ______ ____
ROOT
ATOM      3  C   UNL     1      -4.211   1.507  24.756  0.00  0.00    +0.018 C 
ATOM      4  C   UNL     1      -3.715   2.162  24.834  0.00  0.00    +0.096 C 
ATOM      5  N   UNL     1      -2.898   2.055  24.886  0.00  0.00    -0.155 NA
ATOM      6  C   UNL     1      -2.578   1.296  24.860  0.00  0.00    +0.096 C 
ATOM      7  C   UNL     1      -3.074   0.642  24.782  0.00  0.00    +0.020 C 
ATOM      8  C   UNL     1      -3.891   0.747  24.730  0.00  0.00    +0.014 C 
ENDROOT
BRANCH   5  13
ATOM     13  S   UNL     1      -2.401   2.710  24.963  0.00  0.00    +0.067 S 
ATOM     14  O   UNL     1      -2.718   3.032  24.273  0.00  0.00    -0.153 OA
ATOM     15  O   UNL     1      -2.085   2.387  25.654  0.00  0.00    -0.153 OA
BRANCH  13  16
ATOM     16  C   UNL     1      -1.905   3.364  25.041  0.00  0.00    +0.171 A 
ATOM     17  C   UNL     1      -2.040   4.021  25.522  0.00  0.00    +0.173 A 
ATOM     18  C   UNL     1      -2.694   4.138  26.010  0.00  0.00    +0.077 C 
ATOM     19  O   UNL     1      -1.404   4.539  25.430  0.00  0.00    -0.357 OA
ATOM     20  N   UNL     1      -0.877   4.203  24.892  0.00  0.00    -0.080 NA
ATOM     21  C   UNL     1      -1.187   3.477  24.651  0.00  0.00    +0.119 A 
ATOM     22  C   UNL     1      -0.839   2.955  24.115  0.00  0.00    +0.057 C 
ENDBRANCH  13  16
ENDBRANCH   5  13
BRANCH   3   2
ATOM      1  C   UNL     1      -5.404   2.165  25.187  0.00  0.00    +0.000 C 
ATOM      2  C   UNL     1      -5.028   1.612  24.704  0.00  0.00    +0.001 C 
ENDBRANCH   3   2
BRANCH   8   9
ATOM      9  C   UNL     1      -4.387   0.093  24.653  0.00  0.00    +0.114 C 
BRANCH   9  10
ATOM     10  C   UNL     1      -4.065  -0.662  24.574  0.00  0.00    +0.365 C 
ATOM     11  O   UNL     1      -3.925  -0.975  23.824  0.00  0.00    -0.246 OA
ATOM     12  O   UNL     1      -3.883  -1.106  25.246  0.00  0.00    -0.246 OA
ENDBRANCH   9  10
ENDBRANCH   8   9
TORSDOF 5
ENDMDL
MODEL 5
REMARK VINA RESULT:      -9.2      2.329      4.211
REMARK  Name = 
REMARK  5 active torsions:
REMARK  status: ('A' for Active; 'I' for Inactive)
REMARK    1  A    between atoms: C_2  and  C_3
REMARK    2  A    between atoms: N_5  and  S_13
REMARK    3  A    between atoms: C_8  and  C_9
REMARK    4  A    between atoms: C_9  and  C_10
REMARK    5  A    between atoms: S_13  and  C_16
REMARK                            x       y       z     vdW  Elec       q    Type
REMARK                         _______ _______ _______ _____ _____    ______ ____
ROOT
ATOM      3  C   UNL     1      -3.268  -0.320  24.558  0.00  0.00    +0.018 C 
ATOM      4  C   UNL     1      -2.645   0.221  24.531  0.00  0.00    +0.096 C 
ATOM      5  N   UNL     1      -1.870  -0.037  24.653  0.00  0.00    -0.155 NA
ATOM      6  C   UNL     1      -1.719  -0.834  24.802  0.00  0.00    +0.096 C 
ATOM      7  C   UNL     1      -2.342  -1.374  24.828  0.00  0.00    +0.020 C 
ATOM      8  C   UNL     1      -3.116  -1.118  24.706  0.00  0.00    +0.014 C 
ENDROOT
BRANCH   5  13
ATOM     13  S   UNL     1      -1.247   0.503  24.627  0.00  0.00    +0.067 S 
ATOM     14  O   UNL     1      -1.564   0.834  23.941  0.00  0.00    -0.153 OA
ATOM     15  O   UNL     1      -0.931   0.171  25.313  0.00  0.00    -0.153 OA
BRANCH  13  16
ATOM     16  C   UNL     1      -0.624   1.043  24.601  0.00  0.00    +0.171 A 
ATOM     17  C   UNL     1       0.022   1.013  24.088  0.00  0.00    +0.173 A 
ATOM     18  C   UNL     1       0.158   0.439  23.512  0.00  0.00    +0.077 C 
ATOM     19  O   UNL     1       0.508   1.660  24.253  0.00  0.00    -0.357 OA
ATOM     20  N   UNL     1       0.162   2.088  24.867  0.00  0.00    -0.080 NA
ATOM     21  C   UNL     1      -0.537   1.707  25.082  0.00  0.00    +0.119 A 
ATOM     22  C   UNL     1      -1.059   1.948  25.674  0.00  0.00    +0.057 C 
ENDBRANCH  13  16
ENDBRANCH   5  13
BRANCH   3   2
ATOM      1  C   UNL     1      -4.314   0.622  24.807  0.00  0.00    +0.000 C 
ATOM      2  C   UNL     1      -4.042  -0.063  24.436  0.00  0.00    +0.001 C 
ENDBRANCH   3   2
BRANCH   8   9
ATOM      9  C   UNL     1      -3.739  -1.658  24.733  0.00  0.00    +0.114 C 
BRANCH   9  10
ATOM     10  C   UNL     1      -3.583  -2.466  24.781  0.00  0.00    +0.365 C 
ATOM     11  O   UNL     1      -3.532  -2.917  24.092  0.00  0.00    -0.246 OA
ATOM     12  O   UNL     1      -3.476  -2.823  25.517  0.00  0.00    -0.246 OA
ENDBRANCH   9  10
ENDBRANCH   8   9
TORSDOF 5
ENDMDL
MODEL 6
REMARK VINA RESULT:      -9.0      2.329      3.376
REMARK  Name = 
REMARK  5 active torsions:
REMARK  status: ('A' for Active; 'I' for Inactive)
REMARK    1  A    between atoms: C_2  and  C_3
REMARK    2  A    between atoms: N_5  and  S_13
REMARK    3  A    between atoms: C_8  and  C_9
REMARK    4  A    between atoms: C_9  and  C_10
REMARK    5  A    between atoms: S_13  and  C_16
REMARK                            x       y       z     vdW  Elec       q    Type
REMARK                         _______ _______ _______ _____ _____    ______ ____
ROOT
ATOM      3  C   UNL     1      -3.742   0.585  24.855  0.00  0.00    +0.018 C 
ATOM      4  C   UNL     1      -2.924   0.690  24.823  0.00  0.00    +0.096 C 
ATOM      5  N   UNL     1      -2.606   1.451  24.833  0.00  0.00    -0.155 NA
ATOM      6  C   UNL     1      -3.104   2.106  24.875  0.00  0.00    +0.096 C 
ATOM      7  C   UNL     1      -3.921   2.002  24.908  0.00  0.00    +0.020 C 
ATOM      8  C   UNL     1      -4.241   1.241  24.898  0.00  0.00    +0.014 C 
ENDROOT
BRANCH   5  13
ATOM     13  S   UNL     1      -1.788   1.556  24.800  0.00  0.00    +0.067 S 
ATOM     14  O   UNL     1      -1.693   1.001  25.403  0.00  0.00    -0.153 OA
ATOM     15  O   UNL     1      -1.883   2.110  24.197  0.00  0.00    -0.153 OA
BRANCH  13  16
ATOM     16  C   UNL     1      -0.970   1.660  24.768  0.00  0.00    +0.171 A 
ATOM     17  C   UNL     1      -0.462   1.336  24.204  0.00  0.00    +0.173 A 
ATOM     18  C   UNL     1      -0.682   0.851  23.575  0.00  0.00    +0.077 C 
ATOM     19  O   UNL     1       0.306   1.583  24.381  0.00  0.00    -0.357 OA
ATOM     20  N   UNL     1       0.271   2.060  25.054  0.00  0.00    -0.080 NA
ATOM     21  C   UNL     1      -0.517   2.107  25.292  0.00  0.00    +0.119 A 
ATOM     22  C   UNL     1      -0.803   2.528  25.942  0.00  0.00    +0.057 C 
ENDBRANCH  13  16
ENDBRANCH   5  13
BRANCH   3   2
ATOM      1  C   UNL     1      -3.807  -0.723  24.284  0.00  0.00    +0.000 C 
ATOM      2  C   UNL     1      -4.061  -0.176  24.846  0.00  0.00    +0.001 C 
ENDBRANCH   3   2
BRANCH   8   9
ATOM      9  C   UNL     1      -5.059   1.136  24.931  0.00  0.00    +0.114 C 
BRANCH   9  10
ATOM     10  C   UNL     1      -5.547   1.770  25.130  0.00  0.00    +0.365 C 
ATOM     11  O   UNL     1      -5.737   1.911  25.920  0.00  0.00    -0.246 OA
ATOM     12  O   UNL     1      -5.848   2.262  24.540  0.00  0.00    -0.246 OA
ENDBRANCH   9  10
ENDBRANCH   8   9
TORSDOF 5
ENDMDL
