MODEL 1
REMARK VINA RESULT:      -9.9      0.000      0.000
REMARK  Name = 
REMARK  7 active torsions:
REMARK  status: ('A' for Active; 'I' for Inactive)
REMARK    1  A    between atoms: C_2  and  C_3
REMARK    2  A    between atoms: C_3  and  S_4
REMARK    3  A    between atoms: S_4  and  N_7
REMARK    4  A    between atoms: N_7  and  C_8
REMARK    5  A    between atoms: C_8  and  C_9
REMARK    6  A    between atoms: C_16  and  C_17
REMARK    7  A    between atoms: C_19  and  C_23
REMARK                            x       y       z     vdW  Elec       q    Type
REMARK                         _______ _______ _______ _____ _____    ______ ____
ROOT
ATOM      9  C   UNL     1      -3.847   0.510  24.163  0.00  0.00    +0.077 C 
ATOM     10  C   UNL     1      -3.612   1.101  23.714  0.00  0.00    +0.018 C 
ATOM     11  C   UNL     1      -3.391   1.834  23.977  0.00  0.00    +0.010 C 
ATOM     12  C   UNL     1      -3.154   2.373  23.301  0.00  0.00    +0.018 C 
ATOM     13  C   UNL     1      -3.362   1.817  23.574  0.00  0.00    +0.072 C 
ATOM     14  N   UNL     1      -3.621   1.260  24.423  0.00  0.00    -0.272 NA
ATOM     15  C   UNL     1      -3.571   1.628  25.257  0.00  0.00    +0.078 C 
ATOM     16  C   UNL     1      -3.345   2.181  24.782  0.00  0.00    +0.056 C 
ENDROOT
BRANCH  16  17
ATOM     17  C   UNL     1      -3.109   2.946  24.982  0.00  0.00    +0.058 A 
ATOM     18  C   UNL     1      -2.381   3.291  24.803  0.00  0.00    +0.031 A 
ATOM     19  C   UNL     1      -2.381   4.057  25.107  0.00  0.00    +0.079 A 
ATOM     20  N   UNL     1      -3.108   4.187  25.475  0.00  0.00    -0.174 NA
ATOM     21  N   UNL     1      -3.558   3.499  25.398  0.00  0.00    -0.253 N 
ATOM     22  C   UNL     1      -4.323   3.385  25.685  0.00  0.00    +0.153 C 
BRANCH  19  23
ATOM     23  C   UNL     1      -1.762   4.600  25.054  0.00  0.00    +0.042 C 
ATOM     24  C   UNL     1      -1.836   5.422  25.070  0.00  0.00    +0.006 C 
ATOM     25  C   UNL     1      -1.080   5.747  25.001  0.00  0.00    +0.000 C 
ATOM     26  C   UNL     1      -0.540   5.126  24.942  0.00  0.00    +0.000 C 
ATOM     27  C   UNL     1      -0.960   4.418  24.975  0.00  0.00    +0.006 C 
ENDBRANCH  19  23
ENDBRANCH  16  17
BRANCH   9   8
ATOM      8  C   UNL     1      -4.114  -0.260  24.285  0.00  0.00    +0.131 C 
BRANCH   8   7
ATOM      7  N   UNL     1      -3.843  -0.872  23.803  0.00  0.00    -0.081 NA
BRANCH   7   4
ATOM      4  S   UNL     1      -3.919  -1.656  24.049  0.00  0.00    +0.057 S 
ATOM      5  O   UNL     1      -3.111  -1.684  24.213  0.00  0.00    -0.156 OA
ATOM      6  O   UNL     1      -4.727  -1.627  23.886  0.00  0.00    -0.156 OA
BRANCH   4   3
ATOM      3  C   UNL     1      -3.997  -2.439  24.295  0.00  0.00    +0.171 C 
BRANCH   3   2
ATOM      1  C   UNL     1      -3.407  -3.642  24.792  0.00  0.00    +0.002 C 
ATOM      2  C   UNL     1      -3.326  -2.879  24.489  0.00  0.00    +0.027 C 
ENDBRANCH   3   2
ENDBRANCH   4   3
ENDBRANCH   7   4
ENDBRANCH   8   7
ENDBRANCH   9   8
TORSDOF 7
ENDMDL
MODEL 2
REMARK VINA RESULT:      -9.2      2.536      5.794
REMARK  Name = 
REMARK  7 active torsions:
REMARK  status: ('A' for Active; 'I' for Inactive)
REMARK    1  A    between atoms: C_2  and  C_3
REMARK    2  A    between atoms: C_3  and  S_4
REMARK    3  A    between atoms: S_4  and  N_7
REMARK    4  A    between atoms: N_7  and  C_8
REMARK    5  A    between atoms: C_8  and  C_9
REMARK    6  A    between atoms: C_16  and  C_17
REMARK    7  A    between atoms: C_19  and  C_23
REMARK                            x       y       z     vdW  Elec       q    Type
REMARK                         _______ _______ _______ _____ _____    ______ ____
ROOT
ATOM      9  C   UNL     1      -1.401   1.968  24.725  0.00  0.00    +0.077 C 
ATOM     10  C   UNL     1      -1.334   1.265  25.053  0.00  0.00    +0.018 C 
ATOM     11  C   UNL     1      -1.889   0.676  25.024  0.00  0.00    +0.010 C 
ATOM     12  C   UNL     1      -1.621  -0.058  25.464  0.00  0.00    +0.018 C 
ATOM     13  C   UNL     1      -1.568   0.552  25.235  0.00  0.00    +0.072 C 
ATOM     14  N   UNL     1      -1.962   1.363  24.701  0.00  0.00    -0.272 NA
ATOM     15  C   UNL     1      -2.787   1.312  24.314  0.00  0.00    +0.078 C 
ATOM     16  C   UNL     1      -2.682   0.634  24.649  0.00  0.00    +0.056 C 
ENDROOT
BRANCH  16  17
ATOM     17  C   UNL     1      -3.204  -0.005  24.658  0.00  0.00    +0.058 A 
ATOM     18  C   UNL     1      -3.027  -0.779  24.437  0.00  0.00    +0.031 A 
ATOM     19  C   UNL     1      -3.708  -1.234  24.532  0.00  0.00    +0.079 A 
ATOM     20  N   UNL     1      -4.307  -0.741  24.811  0.00  0.00    -0.174 NA
ATOM     21  N   UNL     1      -3.996   0.019  24.889  0.00  0.00    -0.253 N 
ATOM     22  C   UNL     1      -4.404   0.687  25.152  0.00  0.00    +0.153 C 
BRANCH  19  23
ATOM     23  C   UNL     1      -3.778  -2.041  24.375  0.00  0.00    +0.042 C 
ATOM     24  C   UNL     1      -3.452  -2.652  24.823  0.00  0.00    +0.006 C 
ATOM     25  C   UNL     1      -3.660  -3.368  24.468  0.00  0.00    +0.000 C 
ATOM     26  C   UNL     1      -4.114  -3.198  23.800  0.00  0.00    +0.000 C 
ATOM     27  C   UNL     1      -4.188  -2.379  23.743  0.00  0.00    +0.006 C 
ENDBRANCH  19  23
ENDBRANCH  16  17
BRANCH   9   8
ATOM      8  C   UNL     1      -1.126   2.724  24.545  0.00  0.00    +0.131 C 
BRANCH   8   7
ATOM      7  N   UNL     1      -0.877   3.228  25.148  0.00  0.00    -0.081 NA
BRANCH   7   4
ATOM      4  S   UNL     1      -0.871   4.044  25.027  0.00  0.00    +0.057 S 
ATOM      5  O   UNL     1      -0.422   3.940  24.343  0.00  0.00    -0.156 OA
ATOM      6  O   UNL     1      -1.319   4.148  25.712  0.00  0.00    -0.156 OA
BRANCH   4   3
ATOM      3  C   UNL     1      -0.864   4.860  24.907  0.00  0.00    +0.171 C 
BRANCH   3   2
ATOM      1  C   UNL     1      -1.548   6.114  24.911  0.00  0.00    +0.002 C 
ATOM      2  C   UNL     1      -1.531   5.309  25.091  0.00  0.00    +0.027 C 
ENDBRANCH   3   2
ENDBRANCH   4   3
ENDBRANCH   7   4
ENDBRANCH   8   7
ENDBRANCH   9   8
TORSDOF 7
ENDMDL
MODEL 3
REMARK VINA RESULT:      -9.1      2.155      2.434
REMARK  Name = 
REMARK  7 active torsions:
REMARK  status: ('A' for Active; 'I' for Inactive)
REMARK    1  A    between atoms: C_2  and  C_3
REMARK    2  A    between atoms: C_3  and  S_4
REMARK    3  A    between atoms: S_4  and  N_7
REMARK    4  A    between atoms: N_7  and  C_8
REMARK    5  A    between atoms: C_8  and  C_9
REMARK    6  A    between atoms: C_16  and  C_17
REMARK    7  A    between atoms: C_19  and  C_23
REMARK                            x       y       z     vdW  Elec       q    Type
REMARK                         _______ _______ _______ _____ _____    ______ ____
ROOT
ATOM      9  C   UNL     1      -0.951  -0.287  24.799  0.00  0.00    +0.077 C 
ATOM     10  C   UNL     1      -0.572   0.269  24.407  0.00  0.00    +0.018 C 
ATOM     11  C   UNL     1      -0.516   1.046  24.628  0.00  0.00    +0.010 C 
ATOM     12  C   UNL     1      -0.036   1.526  24.042  0.00  0.00    +0.018 C 
ATOM     13  C   UNL     1      -0.317   0.987  24.281  0.00  0.00    +0.072 C 
ATOM     14  N   UNL     1      -0.889   0.507  25.017  0.00  0.00    -0.272 NA
ATOM     15  C   UNL     1      -1.214   0.970  25.733  0.00  0.00    +0.078 C 
ATOM     16  C   UNL     1      -0.832   1.485  25.319  0.00  0.00    +0.056 C 
ENDROOT
BRANCH  16  17
ATOM     17  C   UNL     1      -0.736   2.288  25.487  0.00  0.00    +0.058 A 
ATOM     18  C   UNL     1      -1.090   2.913  25.081  0.00  0.00    +0.031 A 
ATOM     19  C   UNL     1      -0.842   3.617  25.433  0.00  0.00    +0.079 A 
ATOM     20  N   UNL     1      -0.336   3.427  26.055  0.00  0.00    -0.174 NA
ATOM     21  N   UNL     1      -0.270   2.605  26.089  0.00  0.00    -0.253 N 
ATOM     22  C   UNL     1       0.183   2.176  26.629  0.00  0.00    +0.153 C 
BRANCH  19  23
ATOM     23  C   UNL     1      -1.062   4.378  25.202  0.00  0.00    +0.042 C 
ATOM     24  C   UNL     1      -0.596   4.909  24.777  0.00  0.00    +0.006 C 
ATOM     25  C   UNL     1      -1.033   5.601  24.669  0.00  0.00    +0.000 C 
ATOM     26  C   UNL     1      -1.768   5.497  25.027  0.00  0.00    +0.000 C 
ATOM     27  C   UNL     1      -1.787   4.742  25.357  0.00  0.00    +0.006 C 
ENDBRANCH  19  23
ENDBRANCH  16  17
BRANCH   9   8
ATOM      8  C   UNL     1      -1.211  -1.062  24.909  0.00  0.00    +0.131 C 
BRANCH   8   7
ATOM      7  N   UNL     1      -1.635  -1.444  24.314  0.00  0.00    -0.081 NA
BRANCH   7   4
ATOM      4  S   UNL     1      -2.160  -2.050  24.506  0.00  0.00    +0.057 S 
ATOM      5  O   UNL     1      -1.526  -2.535  24.714  0.00  0.00    -0.156 OA
ATOM      6  O   UNL     1      -2.794  -1.566  24.298  0.00  0.00    -0.156 OA
BRANCH   4   3
ATOM      3  C   UNL     1      -2.686  -2.656  24.698  0.00  0.00    +0.171 C 
BRANCH   3   2
ATOM      1  C   UNL     1      -3.885  -3.374  24.403  0.00  0.00    +0.002 C 
ATOM      2  C   UNL     1      -3.424  -2.694  24.332  0.00  0.00    +0.027 C 
ENDBRANCH   3   2
ENDBRANCH   4   3
ENDBRANCH   7   4
ENDBRANCH   8   7
ENDBRANCH   9   8
TORSDOF 7
ENDMDL
MODEL 4
REMARK VINA RESULT:      -9.0      3.171      4.433
REMARK  Name = 
REMARK  7 active torsions:
REMARK  status: ('A' for Active; 'I' for Inactive)
REMARK    1  A    between atoms: C_2  and  C_3
REMARK    2  A    between atoms: C_3  and  S_4
REMARK    3  A    between atoms: S_4  and  N_7
REMARK    4  A    between atoms: N_7  and  C_8
REMARK    5  A    between atoms: C_8  and  C_9
REMARK    6  A    between atoms: C_16  and  C_17
REMARK    7  A    between atoms: C_19  and  C_23
REMARK                            x       y       z     vdW  Elec       q    Type
REMARK                         _______ _______ _______ _____ _____    ______ ____
ROOT
ATOM      9  C   UNL     1      -0.762   0.768  23.712  0.00  0.00    +0.077 C 
ATOM     10  C   UNL     1      -1.335   1.217  23.437  0.00  0.00    +0.018 C 
ATOM     11  C   UNL     1      -2.097   1.230  23.712  0.00  0.00    +0.010 C 
ATOM     12  C   UNL     1      -2.604   1.817  23.262  0.00  0.00    +0.018 C 
ATOM     13  C   UNL     1      -2.056   1.493  23.408  0.00  0.00    +0.072 C 
ATOM     14  N   UNL     1      -1.540   0.787  23.986  0.00  0.00    -0.272 NA
ATOM     15  C   UNL     1      -1.964   0.327  24.651  0.00  0.00    +0.078 C 
ATOM     16  C   UNL     1      -2.498   0.784  24.353  0.00  0.00    +0.056 C 
ENDROOT
BRANCH  16  17
ATOM     17  C   UNL     1      -3.288   0.846  24.585  0.00  0.00    +0.058 A 
ATOM     18  C   UNL     1      -3.683   1.544  24.777  0.00  0.00    +0.031 A 
ATOM     19  C   UNL     1      -4.460   1.351  24.976  0.00  0.00    +0.079 A 
ATOM     20  N   UNL     1      -4.545   0.533  24.907  0.00  0.00    -0.174 NA
ATOM     21  N   UNL     1      -3.820   0.221  24.665  0.00  0.00    -0.253 N 
ATOM     22  C   UNL     1      -3.656  -0.576  24.527  0.00  0.00    +0.153 C 
BRANCH  19  23
ATOM     23  C   UNL     1      -5.049   1.881  25.204  0.00  0.00    +0.042 C 
ATOM     24  C   UNL     1      -5.853   1.816  25.030  0.00  0.00    +0.006 C 
ATOM     25  C   UNL     1      -6.239   2.465  25.365  0.00  0.00    +0.000 C 
ATOM     26  C   UNL     1      -5.673   2.929  25.745  0.00  0.00    +0.000 C 
ATOM     27  C   UNL     1      -4.938   2.570  25.646  0.00  0.00    +0.006 C 
ENDBRANCH  19  23
ENDBRANCH  16  17
BRANCH   9   8
ATOM      8  C   UNL     1       0.014   0.490  23.721  0.00  0.00    +0.131 C 
BRANCH   8   7
ATOM      7  N   UNL     1       0.507   0.621  23.073  0.00  0.00    -0.081 NA
BRANCH   7   4
ATOM      4  S   UNL     1       1.281   0.334  23.079  0.00  0.00    +0.057 S 
ATOM      5  O   UNL     1       1.534   1.023  23.455  0.00  0.00    -0.156 OA
ATOM      6  O   UNL     1       1.028  -0.354  22.702  0.00  0.00    -0.156 OA
BRANCH   4   3
ATOM      3  C   UNL     1       2.054   0.047  23.085  0.00  0.00    +0.171 C 
BRANCH   3   2
ATOM      1  C   UNL     1       3.415   0.155  22.661  0.00  0.00    +0.002 C 
ATOM      2  C   UNL     1       2.627   0.394  22.603  0.00  0.00    +0.027 C 
ENDBRANCH   3   2
ENDBRANCH   4   3
ENDBRANCH   7   4
ENDBRANCH   8   7
ENDBRANCH   9   8
TORSDOF 7
ENDMDL
MODEL 5
REMARK VINA RESULT:      -8.9      4.425      5.919
REMARK  Name = 
REMARK  7 active torsions:
REMARK  status: ('A' for Active; 'I' for Inactive)
REMARK    1  A    between atoms: C_2  and  C_3
REMARK    2  A    between atoms: C_3  and  S_4
REMARK    3  A    between atoms: S_4  and  N_7
REMARK    4  A    between atoms: N_7  and  C_8
REMARK    5  A    between atoms: C_8  and  C_9
REMARK    6  A    between atoms: C_16  and  C_17
REMARK    7  A    between atoms: C_19  and  C_23
REMARK                            x       y       z     vdW  Elec       q    Type
REMARK                         _______ _______ _______ _____ _____    ______ ____
ROOT
ATOM      9  C   UNL     1       1.070   0.279  23.298  0.00  0.00    +0.077 C 
ATOM     10  C   UNL     1       0.491   0.748  23.524  0.00  0.00    +0.018 C 
ATOM     11  C   UNL     1      -0.197   0.511  23.878  0.00  0.00    +0.010 C 
ATOM     12  C   UNL     1      -0.735   1.205  24.060  0.00  0.00    +0.018 C 
ATOM     13  C   UNL     1      -0.196   0.913  23.834  0.00  0.00    +0.072 C 
ATOM     14  N   UNL     1       0.366   0.045  23.660  0.00  0.00    -0.272 NA
ATOM     15  C   UNL     1       0.047  -0.775  23.902  0.00  0.00    +0.078 C 
ATOM     16  C   UNL     1      -0.497  -0.281  24.108  0.00  0.00    +0.056 C 
ENDROOT
BRANCH  16  17
ATOM     17  C   UNL     1      -1.218  -0.455  24.472  0.00  0.00    +0.058 A 
ATOM     18  C   UNL     1      -1.963  -0.227  24.203  0.00  0.00    +0.031 A 
ATOM     19  C   UNL     1      -2.525  -0.519  24.732  0.00  0.00    +0.079 A 
ATOM     20  N   UNL     1      -2.126  -0.928  25.327  0.00  0.00    -0.174 NA
ATOM     21  N   UNL     1      -1.318  -0.889  25.166  0.00  0.00    -0.253 N 
ATOM     22  C   UNL     1      -0.715  -1.224  25.620  0.00  0.00    +0.153 C 
BRANCH  19  23
ATOM     23  C   UNL     1      -3.342  -0.420  24.676  0.00  0.00    +0.042 C 
ATOM     24  C   UNL     1      -3.791   0.140  25.084  0.00  0.00    +0.006 C 
ATOM     25  C   UNL     1      -4.581   0.043  24.863  0.00  0.00    +0.000 C 
ATOM     26  C   UNL     1      -4.619  -0.576  24.319  0.00  0.00    +0.000 C 
ATOM     27  C   UNL     1      -3.854  -0.862  24.203  0.00  0.00    +0.006 C 
ENDBRANCH  19  23
ENDBRANCH  16  17
BRANCH   9   8
ATOM      8  C   UNL     1       1.808   0.131  22.962  0.00  0.00    +0.131 C 
BRANCH   8   7
ATOM      7  N   UNL     1       2.361   0.740  22.894  0.00  0.00    -0.081 NA
BRANCH   7   4
ATOM      4  S   UNL     1       3.155   0.562  22.759  0.00  0.00    +0.057 S 
ATOM      5  O   UNL     1       2.933  -0.098  22.317  0.00  0.00    -0.156 OA
ATOM      6  O   UNL     1       3.377   1.223  23.200  0.00  0.00    -0.156 OA
BRANCH   4   3
ATOM      3  C   UNL     1       3.949   0.386  22.624  0.00  0.00    +0.171 C 
BRANCH   3   2
ATOM      1  C   UNL     1       5.252   0.215  23.185  0.00  0.00    +0.002 C 
ATOM      2  C   UNL     1       4.519   0.594  23.182  0.00  0.00    +0.027 C 
ENDBRANCH   3   2
ENDBRANCH   4   3
ENDBRANCH   7   4
ENDBRANCH   8   7
ENDBRANCH   9   8
TORSDOF 7
ENDMDL
