MODEL 1
REMARK VINA RESULT:     -11.5      0.000      0.000
REMARK  Name = 
REMARK  8 active torsions:
REMARK  status: ('A' for Active; 'I' for Inactive)
REMARK    1  A    between atoms: O_2  and  C_3
REMARK    2  A    between atoms: C_3  and  C_4
REMARK    3  A    between atoms: C_4  and  O_5
REMARK    4  A    between atoms: O_5  and  C_6
REMARK    5  A    between atoms: C_8  and  C_12
REMARK    6  A    between atoms: C_15  and  C_17
REMARK    7  A    between atoms: N_21  and  C_22
REMARK    8  A    between atoms: C_22  and  C_23
REMARK                            x       y       z     vdW  Elec       q    Type
REMARK                         _______ _______ _______ _____ _____    ______ ____
ROOT
ATOM     12  C   UNL     1      -1.000   2.618  25.364  0.00  0.00    +0.204 A 
ATOM     13  N   UNL     1      -0.511   2.317  25.956  0.00  0.00    -0.056 NA
ATOM     14  O   UNL     1      -0.166   1.622  25.673  0.00  0.00    -0.336 OA
ATOM     15  C   UNL     1      -0.443   1.496  24.906  0.00  0.00    +0.251 A 
ATOM     16  N   UNL     1      -0.958   2.111  24.715  0.00  0.00    -0.190 NA
ENDROOT
BRANCH  12   8
ATOM      6  C   UNL     1      -2.689   3.957  25.709  0.00  0.00    +0.225 A 
ATOM      7  C   UNL     1      -2.238   3.268  25.660  0.00  0.00    +0.061 A 
ATOM      8  C   UNL     1      -1.452   3.307  25.414  0.00  0.00    +0.045 A 
ATOM      9  C   UNL     1      -1.116   4.035  25.217  0.00  0.00    +0.024 A 
ATOM     10  C   UNL     1      -1.568   4.723  25.266  0.00  0.00    +0.102 A 
ATOM     11  N   UNL     1      -2.354   4.685  25.512  0.00  0.00    -0.210 NA
BRANCH   6   5
ATOM      5  O   UNL     1      -3.475   3.919  25.955  0.00  0.00    -0.457 OA
BRANCH   5   4
ATOM      4  C   UNL     1      -4.049   3.600  25.455  0.00  0.00    +0.239 C 
BRANCH   4   3
ATOM      3  C   UNL     1      -4.798   3.418  25.749  0.00  0.00    +0.189 C 
BRANCH   3   2
ATOM      1  C   UNL     1      -5.815   2.470  25.419  0.00  0.00    +0.174 C 
ATOM      2  O   UNL     1      -5.389   3.153  25.238  0.00  0.00    -0.347 OA
ENDBRANCH   3   2
ENDBRANCH   4   3
ENDBRANCH   5   4
ENDBRANCH   6   5
ENDBRANCH  12   8
BRANCH  15  17
ATOM     17  C   UNL     1      -0.240   0.864  24.416  0.00  0.00    +0.138 C 
ATOM     18  C   UNL     1       0.352   0.867  23.840  0.00  0.00    +0.027 C 
ATOM     19  C   UNL     1       0.365   0.124  23.483  0.00  0.00    +0.019 C 
ATOM     20  C   UNL     1      -0.219  -0.339  23.838  0.00  0.00    +0.073 C 
ATOM     21  N   UNL     1      -0.593   0.118  24.414  0.00  0.00    -0.263 NA
BRANCH  21  22
ATOM     22  C   UNL     1      -1.211  -0.127  24.902  0.00  0.00    +0.101 C 
BRANCH  22  23
ATOM     23  C   UNL     1      -1.495  -0.900  24.851  0.00  0.00    +0.014 A 
ATOM     24  C   UNL     1      -1.035  -1.583  24.790  0.00  0.00    +0.096 A 
ATOM     25  N   UNL     1      -1.544  -2.230  24.754  0.00  0.00    -0.244 NA
ATOM     26  C   UNL     1      -2.318  -1.948  24.792  0.00  0.00    +0.081 A 
ATOM     27  C   UNL     1      -2.287  -1.126  24.853  0.00  0.00    +0.016 A 
ATOM     28  C   UNL     1      -2.986  -0.690  24.901  0.00  0.00    +0.001 A 
ATOM     29  C   UNL     1      -3.715  -1.075  24.889  0.00  0.00    +0.000 A 
ATOM     30  C   UNL     1      -3.746  -1.897  24.828  0.00  0.00    +0.002 A 
ATOM     31  C   UNL     1      -3.048  -2.334  24.780  0.00  0.00    +0.019 A 
ENDBRANCH  22  23
ENDBRANCH  21  22
ENDBRANCH  15  17
TORSDOF 8
ENDMDL
MODEL 2
REMARK VINA RESULT:     -11.3      1.348      4.582
REMARK  Name = 
REMARK  8 active torsions:
REMARK  status: ('A' for Active; 'I' for Inactive)
REMARK    1  A    between atoms: O_2  and  C_3
REMARK    2  A    between atoms: C_3  and  C_4
REMARK    3  A    between atoms: C_4  and  O_5
REMARK    4  A    between atoms: O_5  and  C_6
REMARK    5  A    between atoms: C_8  and  C_12
REMARK    6  A    between atoms: C_15  and  C_17
REMARK    7  A    between atoms: N_21  and  C_22
REMARK    8  A    between atoms: C_22  and  C_23
REMARK                            x       y       z     vdW  Elec       q    Type
REMARK                         _______ _______ _______ _____ _____    ______ ____
ROOT
ATOM     12  C   UNL     1      -0.584   1.481  25.030  0.00  0.00    +0.204 A 
ATOM     13  N   UNL     1      -0.359   1.673  25.800  0.00  0.00    -0.056 NA
ATOM     14  O   UNL     1      -0.661   2.421  25.975  0.00  0.00    -0.336 OA
ATOM     15  C   UNL     1      -1.072   2.690  25.313  0.00  0.00    +0.251 A 
ATOM     16  N   UNL     1      -1.025   2.110  24.728  0.00  0.00    -0.190 NA
ENDROOT
BRANCH  12   8
ATOM      6  C   UNL     1      -0.549  -0.629  24.473  0.00  0.00    +0.225 A 
ATOM      7  C   UNL     1      -0.734   0.069  24.873  0.00  0.00    +0.061 A 
ATOM      8  C   UNL     1      -0.399   0.783  24.631  0.00  0.00    +0.045 A 
ATOM      9  C   UNL     1       0.121   0.799  23.991  0.00  0.00    +0.024 A 
ATOM     10  C   UNL     1       0.306   0.101  23.592  0.00  0.00    +0.102 A 
ATOM     11  N   UNL     1      -0.029  -0.613  23.834  0.00  0.00    -0.210 NA
BRANCH   6   5
ATOM      5  O   UNL     1      -0.885  -1.343  24.715  0.00  0.00    -0.457 OA
BRANCH   5   4
ATOM      4  C   UNL     1      -1.606  -1.588  24.399  0.00  0.00    +0.239 C 
BRANCH   4   3
ATOM      3  C   UNL     1      -1.995  -2.242  24.717  0.00  0.00    +0.189 C 
BRANCH   3   2
ATOM      1  C   UNL     1      -3.349  -2.700  24.723  0.00  0.00    +0.174 C 
ATOM      2  O   UNL     1      -2.640  -2.571  24.321  0.00  0.00    -0.347 OA
ENDBRANCH   3   2
ENDBRANCH   4   3
ENDBRANCH   5   4
ENDBRANCH   6   5
ENDBRANCH  12   8
BRANCH  15  17
ATOM     17  C   UNL     1      -1.463   3.414  25.246  0.00  0.00    +0.138 C 
ATOM     18  C   UNL     1      -1.105   4.156  25.189  0.00  0.00    +0.027 C 
ATOM     19  C   UNL     1      -1.701   4.723  25.132  0.00  0.00    +0.019 C 
ATOM     20  C   UNL     1      -2.428   4.332  25.154  0.00  0.00    +0.073 C 
ATOM     21  N   UNL     1      -2.281   3.524  25.224  0.00  0.00    -0.263 NA
BRANCH  21  22
ATOM     22  C   UNL     1      -2.851   2.930  25.266  0.00  0.00    +0.101 C 
BRANCH  22  23
ATOM     23  C   UNL     1      -3.641   3.125  25.399  0.00  0.00    +0.014 A 
ATOM     24  C   UNL     1      -3.918   3.833  25.721  0.00  0.00    +0.096 A 
ATOM     25  N   UNL     1      -4.741   3.792  25.755  0.00  0.00    -0.244 NA
ATOM     26  C   UNL     1      -4.973   3.060  25.455  0.00  0.00    +0.081 A 
ATOM     27  C   UNL     1      -4.293   2.647  25.235  0.00  0.00    +0.016 A 
ATOM     28  C   UNL     1      -4.356   1.890  24.914  0.00  0.00    +0.001 A 
ATOM     29  C   UNL     1      -5.098   1.545  24.812  0.00  0.00    +0.000 A 
ATOM     30  C   UNL     1      -5.778   1.958  25.032  0.00  0.00    +0.002 A 
ATOM     31  C   UNL     1      -5.716   2.715  25.353  0.00  0.00    +0.019 A 
ENDBRANCH  22  23
ENDBRANCH  21  22
ENDBRANCH  15  17
TORSDOF 8
ENDMDL
MODEL 3
REMARK VINA RESULT:     -11.0      1.619      5.654
REMARK  Name = 
REMARK  8 active torsions:
REMARK  status: ('A' for Active; 'I' for Inactive)
REMARK    1  A    between atoms: O_2  and  C_3
REMARK    2  A    between atoms: C_3  and  C_4
REMARK    3  A    between atoms: C_4  and  O_5
REMARK    4  A    between atoms: O_5  and  C_6
REMARK    5  A    between atoms: C_8  and  C_12
REMARK    6  A    between atoms: C_15  and  C_17
REMARK    7  A    between atoms: N_21  and  C_22
REMARK    8  A    between atoms: C_22  and  C_23
REMARK                            x       y       z     vdW  Elec       q    Type
REMARK                         _______ _______ _______ _____ _____    ______ ____
ROOT
ATOM     12  C   UNL     1      -3.910  -0.109  24.692  0.00  0.00    +0.204 A 
ATOM     13  N   UNL     1      -4.266   0.102  23.978  0.00  0.00    -0.056 NA
ATOM     14  O   UNL     1      -4.678   0.807  24.097  0.00  0.00    -0.336 OA
ATOM     15  C   UNL     1      -4.576   1.031  24.885  0.00  0.00    +0.251 A 
ATOM     16  N   UNL     1      -4.101   0.465  25.252  0.00  0.00    -0.190 NA
ENDROOT
BRANCH  12   8
ATOM      6  C   UNL     1      -2.156  -1.380  24.964  0.00  0.00    +0.225 A 
ATOM      7  C   UNL     1      -2.622  -0.711  24.834  0.00  0.00    +0.061 A 
ATOM      8  C   UNL     1      -3.444  -0.777  24.821  0.00  0.00    +0.045 A 
ATOM      9  C   UNL     1      -3.801  -1.512  24.938  0.00  0.00    +0.024 A 
ATOM     10  C   UNL     1      -3.335  -2.180  25.067  0.00  0.00    +0.102 A 
ATOM     11  N   UNL     1      -2.513  -2.114  25.080  0.00  0.00    -0.210 NA
BRANCH   6   5
ATOM      5  O   UNL     1      -1.334  -1.314  24.976  0.00  0.00    -0.457 OA
BRANCH   5   4
ATOM      4  C   UNL     1      -0.924  -1.126  24.285  0.00  0.00    +0.239 C 
BRANCH   4   3
ATOM      3  C   UNL     1      -0.170  -0.795  24.330  0.00  0.00    +0.189 C 
BRANCH   3   2
ATOM      1  C   UNL     1       0.638  -0.054  23.414  0.00  0.00    +0.174 C 
ATOM      2  O   UNL     1       0.309  -0.770  23.659  0.00  0.00    -0.347 OA
ENDBRANCH   3   2
ENDBRANCH   4   3
ENDBRANCH   5   4
ENDBRANCH   6   5
ENDBRANCH  12   8
BRANCH  15  17
ATOM     17  C   UNL     1      -4.893   1.704  25.243  0.00  0.00    +0.138 C 
ATOM     18  C   UNL     1      -5.632   1.757  25.607  0.00  0.00    +0.027 C 
ATOM     19  C   UNL     1      -5.723   2.527  25.889  0.00  0.00    +0.019 C 
ATOM     20  C   UNL     1      -5.040   2.950  25.698  0.00  0.00    +0.073 C 
ATOM     21  N   UNL     1      -4.528   2.442  25.299  0.00  0.00    -0.263 NA
BRANCH  21  22
ATOM     22  C   UNL     1      -3.781   2.636  25.008  0.00  0.00    +0.101 C 
BRANCH  22  23
ATOM     23  C   UNL     1      -3.374   3.284  25.316  0.00  0.00    +0.014 A 
ATOM     24  C   UNL     1      -3.684   3.851  25.830  0.00  0.00    +0.096 A 
ATOM     25  N   UNL     1      -3.087   4.396  25.996  0.00  0.00    -0.244 NA
ATOM     26  C   UNL     1      -2.410   4.166  25.586  0.00  0.00    +0.081 A 
ATOM     27  C   UNL     1      -2.588   3.479  25.166  0.00  0.00    +0.016 A 
ATOM     28  C   UNL     1      -2.009   3.120  24.700  0.00  0.00    +0.001 A 
ATOM     29  C   UNL     1      -1.253   3.447  24.655  0.00  0.00    +0.000 A 
ATOM     30  C   UNL     1      -1.076   4.134  25.075  0.00  0.00    +0.002 A 
ATOM     31  C   UNL     1      -1.654   4.494  25.541  0.00  0.00    +0.019 A 
ENDBRANCH  22  23
ENDBRANCH  21  22
ENDBRANCH  15  17
TORSDOF 8
ENDMDL
MODEL 4
REMARK VINA RESULT:     -10.9      1.723      5.173
REMARK  Name = 
REMARK  8 active torsions:
REMARK  status: ('A' for Active; 'I' for Inactive)
REMARK    1  A    between atoms: O_2  and  C_3
REMARK    2  A    between atoms: C_3  and  C_4
REMARK    3  A    between atoms: C_4  and  O_5
REMARK    4  A    between atoms: O_5  and  C_6
REMARK    5  A    between atoms: C_8  and  C_12
REMARK    6  A    between atoms: C_15  and  C_17
REMARK    7  A    between atoms: N_21  and  C_22
REMARK    8  A    between atoms: C_22  and  C_23
REMARK                            x       y       z     vdW  Elec       q    Type
REMARK                         _______ _______ _______ _____ _____    ______ ____
ROOT
ATOM     12  C   UNL     1      -0.652   1.333  25.005  0.00  0.00    +0.204 A 
ATOM     13  N   UNL     1      -0.567   1.448  25.818  0.00  0.00    -0.056 NA
ATOM     14  O   UNL     1      -0.876   2.190  26.005  0.00  0.00    -0.336 OA
ATOM     15  C   UNL     1      -1.152   2.533  25.307  0.00  0.00    +0.251 A 
ATOM     16  N   UNL     1      -1.014   2.004  24.690  0.00  0.00    -0.190 NA
ENDROOT
BRANCH  12   8
ATOM      6  C   UNL     1       0.369   0.065  23.552  0.00  0.00    +0.225 A 
ATOM      7  C   UNL     1       0.134   0.734  23.973  0.00  0.00    +0.061 A 
ATOM      8  C   UNL     1      -0.417   0.665  24.583  0.00  0.00    +0.045 A 
ATOM      9  C   UNL     1      -0.733  -0.074  24.771  0.00  0.00    +0.024 A 
ATOM     10  C   UNL     1      -0.498  -0.742  24.349  0.00  0.00    +0.102 A 
ATOM     11  N   UNL     1       0.053  -0.673  23.739  0.00  0.00    -0.210 NA
BRANCH   6   5
ATOM      5  O   UNL     1       0.920   0.135  22.942  0.00  0.00    -0.457 OA
BRANCH   5   4
ATOM      4  C   UNL     1       1.724   0.034  23.098  0.00  0.00    +0.239 C 
BRANCH   4   3
ATOM      3  C   UNL     1       2.282   0.191  22.511  0.00  0.00    +0.189 C 
BRANCH   3   2
ATOM      1  C   UNL     1       3.640   0.633  22.480  0.00  0.00    +0.174 C 
ATOM      2  O   UNL     1       3.082   0.051  22.655  0.00  0.00    -0.347 OA
ENDBRANCH   3   2
ENDBRANCH   4   3
ENDBRANCH   5   4
ENDBRANCH   6   5
ENDBRANCH  12   8
BRANCH  15  17
ATOM     17  C   UNL     1      -1.505   3.276  25.239  0.00  0.00    +0.138 C 
ATOM     18  C   UNL     1      -1.110   4.001  25.230  0.00  0.00    +0.027 C 
ATOM     19  C   UNL     1      -1.675   4.598  25.153  0.00  0.00    +0.019 C 
ATOM     20  C   UNL     1      -2.419   4.241  25.115  0.00  0.00    +0.073 C 
ATOM     21  N   UNL     1      -2.313   3.425  25.168  0.00  0.00    -0.263 NA
BRANCH  21  22
ATOM     22  C   UNL     1      -2.911   2.857  25.154  0.00  0.00    +0.101 C 
BRANCH  22  23
ATOM     23  C   UNL     1      -3.689   3.073  25.319  0.00  0.00    +0.014 A 
ATOM     24  C   UNL     1      -3.935   3.794  25.637  0.00  0.00    +0.096 A 
ATOM     25  N   UNL     1      -4.757   3.774  25.710  0.00  0.00    -0.244 NA
ATOM     26  C   UNL     1      -5.018   3.041  25.437  0.00  0.00    +0.081 A 
ATOM     27  C   UNL     1      -4.359   2.608  25.195  0.00  0.00    +0.016 A 
ATOM     28  C   UNL     1      -4.454   1.846  24.894  0.00  0.00    +0.001 A 
ATOM     29  C   UNL     1      -5.207   1.517  24.834  0.00  0.00    +0.000 A 
ATOM     30  C   UNL     1      -5.867   1.950  25.076  0.00  0.00    +0.002 A 
ATOM     31  C   UNL     1      -5.773   2.712  25.377  0.00  0.00    +0.019 A 
ENDBRANCH  22  23
ENDBRANCH  21  22
ENDBRANCH  15  17
TORSDOF 8
ENDMDL
MODEL 5
REMARK VINA RESULT:     -10.5      1.497      3.764
REMARK  Name = 
REMARK  8 active torsions:
REMARK  status: ('A' for Active; 'I' for Inactive)
REMARK    1  A    between atoms: O_2  and  C_3
REMARK    2  A    between atoms: C_3  and  C_4
REMARK    3  A    between atoms: C_4  and  O_5
REMARK    4  A    between atoms: O_5  and  C_6
REMARK    5  A    between atoms: C_8  and  C_12
REMARK    6  A    between atoms: C_15  and  C_17
REMARK    7  A    between atoms: N_21  and  C_22
REMARK    8  A    between atoms: C_22  and  C_23
REMARK                            x       y       z     vdW  Elec       q    Type
REMARK                         _______ _______ _______ _____ _____    ______ ____
ROOT
ATOM     12  C   UNL     1      -3.053   3.386  24.730  0.00  0.00    +0.204 A 
ATOM     13  N   UNL     1      -3.501   3.584  24.065  0.00  0.00    -0.056 NA
ATOM     14  O   UNL     1      -4.207   3.158  24.097  0.00  0.00    -0.336 OA
ATOM     15  C   UNL     1      -4.195   2.697  24.782  0.00  0.00    +0.251 A 
ATOM     16  N   UNL     1      -3.483   2.838  25.172  0.00  0.00    -0.190 NA
ENDROOT
BRANCH  12   8
ATOM      6  C   UNL     1      -0.907   3.482  25.112  0.00  0.00    +0.225 A 
ATOM      7  C   UNL     1      -1.652   3.183  24.924  0.00  0.00    +0.061 A 
ATOM      8  C   UNL     1      -2.308   3.684  24.918  0.00  0.00    +0.045 A 
ATOM      9  C   UNL     1      -2.217   4.484  25.100  0.00  0.00    +0.024 A 
ATOM     10  C   UNL     1      -1.472   4.782  25.288  0.00  0.00    +0.102 A 
ATOM     11  N   UNL     1      -0.816   4.281  25.294  0.00  0.00    -0.210 NA
BRANCH   6   5
ATOM      5  O   UNL     1      -0.251   2.981  25.118  0.00  0.00    -0.457 OA
BRANCH   5   4
ATOM      4  C   UNL     1      -0.075   2.524  24.455  0.00  0.00    +0.239 C 
BRANCH   4   3
ATOM      3  C   UNL     1       0.438   1.881  24.520  0.00  0.00    +0.189 C 
BRANCH   3   2
ATOM      1  C   UNL     1       0.663   0.764  23.659  0.00  0.00    +0.174 C 
ATOM      2  O   UNL     1       0.783   1.558  23.844  0.00  0.00    -0.347 OA
ENDBRANCH   3   2
ENDBRANCH   4   3
ENDBRANCH   5   4
ENDBRANCH   6   5
ENDBRANCH  12   8
BRANCH  15  17
ATOM     17  C   UNL     1      -4.792   2.185  25.032  0.00  0.00    +0.138 C 
ATOM     18  C   UNL     1      -5.539   2.407  25.305  0.00  0.00    +0.027 C 
ATOM     19  C   UNL     1      -5.955   1.720  25.494  0.00  0.00    +0.019 C 
ATOM     20  C   UNL     1      -5.466   1.074  25.338  0.00  0.00    +0.073 C 
ATOM     21  N   UNL     1      -4.748   1.361  25.053  0.00  0.00    -0.263 NA
BRANCH  21  22
ATOM     22  C   UNL     1      -4.098   0.905  24.828  0.00  0.00    +0.101 C 
BRANCH  22  23
ATOM     23  C   UNL     1      -4.197   0.106  24.653  0.00  0.00    +0.014 A 
ATOM     24  C   UNL     1      -4.841  -0.229  24.258  0.00  0.00    +0.096 A 
ATOM     25  N   UNL     1      -4.711  -1.041  24.203  0.00  0.00    -0.244 NA
ATOM     26  C   UNL     1      -3.989  -1.210  24.563  0.00  0.00    +0.081 A 
ATOM     27  C   UNL     1      -3.671  -0.501  24.840  0.00  0.00    +0.016 A 
ATOM     28  C   UNL     1      -2.943  -0.500  25.229  0.00  0.00    +0.001 A 
ATOM     29  C   UNL     1      -2.533  -1.207  25.339  0.00  0.00    +0.000 A 
ATOM     30  C   UNL     1      -2.851  -1.915  25.062  0.00  0.00    +0.002 A 
ATOM     31  C   UNL     1      -3.579  -1.918  24.673  0.00  0.00    +0.019 A 
ENDBRANCH  22  23
ENDBRANCH  21  22
ENDBRANCH  15  17
TORSDOF 8
ENDMDL
MODEL 6
REMARK VINA RESULT:     -10.2      1.226      4.120
REMARK  Name = 
REMARK  8 active torsions:
REMARK  status: ('A' for Active; 'I' for Inactive)
REMARK    1  A    between atoms: O_2  and  C_3
REMARK    2  A    between atoms: C_3  and  C_4
REMARK    3  A    between atoms: C_4  and  O_5
REMARK    4  A    between atoms: O_5  and  C_6
REMARK    5  A    between atoms: C_8  and  C_12
REMARK    6  A    between atoms: C_15  and  C_17
REMARK    7  A    between atoms: N_21  and  C_22
REMARK    8  A    between atoms: C_22  and  C_23
REMARK                            x       y       z     vdW  Elec       q    Type
REMARK                         _______ _______ _______ _____ _____    ______ ____
ROOT
ATOM     12  C   UNL     1      -2.171  -0.165  24.880  0.00  0.00    +0.204 A 
ATOM     13  N   UNL     1      -1.701  -0.402  25.515  0.00  0.00    -0.056 NA
ATOM     14  O   UNL     1      -0.960  -0.050  25.430  0.00  0.00    -0.336 OA
ATOM     15  C   UNL     1      -0.972   0.404  24.741  0.00  0.00    +0.251 A 
ATOM     16  N   UNL     1      -1.720   0.333  24.401  0.00  0.00    -0.190 NA
ENDROOT
BRANCH  12   8
ATOM      6  C   UNL     1      -4.327  -0.039  24.568  0.00  0.00    +0.225 A 
ATOM      7  C   UNL     1      -3.545   0.185  24.701  0.00  0.00    +0.061 A 
ATOM      8  C   UNL     1      -2.954  -0.388  24.747  0.00  0.00    +0.045 A 
ATOM      9  C   UNL     1      -3.146  -1.186  24.660  0.00  0.00    +0.024 A 
ATOM     10  C   UNL     1      -3.929  -1.410  24.527  0.00  0.00    +0.102 A 
ATOM     11  N   UNL     1      -4.520  -0.836  24.481  0.00  0.00    -0.210 NA
BRANCH   6   5
ATOM      5  O   UNL     1      -4.918   0.535  24.522  0.00  0.00    -0.457 OA
BRANCH   5   4
ATOM      4  C   UNL     1      -5.036   1.058  25.149  0.00  0.00    +0.239 C 
BRANCH   4   3
ATOM      3  C   UNL     1      -5.496   1.734  25.042  0.00  0.00    +0.189 C 
BRANCH   3   2
ATOM      1  C   UNL     1      -5.766   2.975  25.697  0.00  0.00    +0.174 C 
ATOM      2  O   UNL     1      -5.776   2.150  25.698  0.00  0.00    -0.347 OA
ENDBRANCH   3   2
ENDBRANCH   4   3
ENDBRANCH   5   4
ENDBRANCH   6   5
ENDBRANCH  12   8
BRANCH  15  17
ATOM     17  C   UNL     1      -0.345   0.852  24.444  0.00  0.00    +0.138 C 
ATOM     18  C   UNL     1       0.246   0.580  23.935  0.00  0.00    +0.027 C 
ATOM     19  C   UNL     1       0.757   1.209  23.780  0.00  0.00    +0.019 C 
ATOM     20  C   UNL     1       0.481   1.869  24.192  0.00  0.00    +0.073 C 
ATOM     21  N   UNL     1      -0.199   1.648  24.602  0.00  0.00    -0.263 NA
BRANCH  21  22
ATOM     22  C   UNL     1      -0.655   2.137  25.085  0.00  0.00    +0.101 C 
BRANCH  22  23
ATOM     23  C   UNL     1      -0.667   2.951  24.954  0.00  0.00    +0.014 A 
ATOM     24  C   UNL     1      -0.114   3.380  24.515  0.00  0.00    +0.096 A 
ATOM     25  N   UNL     1      -0.339   4.173  24.528  0.00  0.00    -0.244 NA
ATOM     26  C   UNL     1      -1.029   4.235  24.974  0.00  0.00    +0.081 A 
ATOM     27  C   UNL     1      -1.232   3.480  25.238  0.00  0.00    +0.016 A 
ATOM     28  C   UNL     1      -1.905   3.372  25.702  0.00  0.00    +0.001 A 
ATOM     29  C   UNL     1      -2.376   4.019  25.903  0.00  0.00    +0.000 A 
ATOM     30  C   UNL     1      -2.174   4.774  25.639  0.00  0.00    +0.002 A 
ATOM     31  C   UNL     1      -1.501   4.883  25.175  0.00  0.00    +0.019 A 
ENDBRANCH  22  23
ENDBRANCH  21  22
ENDBRANCH  15  17
TORSDOF 8
ENDMDL
MODEL 7
REMARK VINA RESULT:     -10.1      1.721      4.066
REMARK  Name = 
REMARK  8 active torsions:
REMARK  status: ('A' for Active; 'I' for Inactive)
REMARK    1  A    between atoms: O_2  and  C_3
REMARK    2  A    between atoms: C_3  and  C_4
REMARK    3  A    between atoms: C_4  and  O_5
REMARK    4  A    between atoms: O_5  and  C_6
REMARK    5  A    between atoms: C_8  and  C_12
REMARK    6  A    between atoms: C_15  and  C_17
REMARK    7  A    between atoms: N_21  and  C_22
REMARK    8  A    between atoms: C_22  and  C_23
REMARK                            x       y       z     vdW  Elec       q    Type
REMARK                         _______ _______ _______ _____ _____    ______ ____
ROOT
ATOM     12  C   UNL     1      -1.292   0.301  24.813  0.00  0.00    +0.204 A 
ATOM     13  N   UNL     1      -1.324  -0.210  25.460  0.00  0.00    -0.056 NA
ATOM     14  O   UNL     1      -2.058  -0.587  25.450  0.00  0.00    -0.336 OA
ATOM     15  C   UNL     1      -2.479  -0.307  24.798  0.00  0.00    +0.251 A 
ATOM     16  N   UNL     1      -2.005   0.242  24.404  0.00  0.00    -0.190 NA
ENDROOT
BRANCH  12   8
ATOM      6  C   UNL     1       0.020   2.043  24.704  0.00  0.00    +0.225 A 
ATOM      7  C   UNL     1      -0.616   1.557  24.906  0.00  0.00    +0.061 A 
ATOM      8  C   UNL     1      -0.656   0.787  24.612  0.00  0.00    +0.045 A 
ATOM      9  C   UNL     1      -0.061   0.503  24.116  0.00  0.00    +0.024 A 
ATOM     10  C   UNL     1       0.575   0.989  23.915  0.00  0.00    +0.102 A 
ATOM     11  N   UNL     1       0.615   1.759  24.209  0.00  0.00    -0.210 NA
BRANCH   6   5
ATOM      5  O   UNL     1       0.060   2.812  24.998  0.00  0.00    -0.457 OA
BRANCH   5   4
ATOM      4  C   UNL     1      -0.463   3.388  24.722  0.00  0.00    +0.239 C 
BRANCH   4   3
ATOM      3  C   UNL     1      -0.589   4.075  25.161  0.00  0.00    +0.189 C 
BRANCH   3   2
ATOM      1  C   UNL     1      -1.389   5.257  25.100  0.00  0.00    +0.174 C 
ATOM      2  O   UNL     1      -0.802   4.774  24.779  0.00  0.00    -0.347 OA
ENDBRANCH   3   2
ENDBRANCH   4   3
ENDBRANCH   5   4
ENDBRANCH   6   5
ENDBRANCH  12   8
BRANCH  15  17
ATOM     17  C   UNL     1      -3.241  -0.536  24.577  0.00  0.00    +0.138 C 
ATOM     18  C   UNL     1      -3.476  -1.299  24.366  0.00  0.00    +0.027 C 
ATOM     19  C   UNL     1      -4.281  -1.278  24.188  0.00  0.00    +0.019 C 
ATOM     20  C   UNL     1      -4.543  -0.502  24.288  0.00  0.00    +0.073 C 
ATOM     21  N   UNL     1      -3.901  -0.044  24.529  0.00  0.00    -0.263 NA
BRANCH  21  22
ATOM     22  C   UNL     1      -3.916   0.764  24.692  0.00  0.00    +0.101 C 
BRANCH  22  23
ATOM     23  C   UNL     1      -4.608   1.116  24.968  0.00  0.00    +0.014 A 
ATOM     24  C   UNL     1      -5.306   0.723  25.169  0.00  0.00    +0.096 A 
ATOM     25  N   UNL     1      -5.854   1.287  25.417  0.00  0.00    -0.244 NA
ATOM     26  C   UNL     1      -5.496   2.029  25.369  0.00  0.00    +0.081 A 
ATOM     27  C   UNL     1      -4.726   1.923  25.091  0.00  0.00    +0.016 A 
ATOM     28  C   UNL     1      -4.233   2.576  24.987  0.00  0.00    +0.001 A 
ATOM     29  C   UNL     1      -4.508   3.333  25.160  0.00  0.00    +0.000 A 
ATOM     30  C   UNL     1      -5.278   3.439  25.437  0.00  0.00    +0.002 A 
ATOM     31  C   UNL     1      -5.772   2.787  25.542  0.00  0.00    +0.019 A 
ENDBRANCH  22  23
ENDBRANCH  21  22
ENDBRANCH  15  17
TORSDOF 8
ENDMDL
MODEL 8
REMARK VINA RESULT:     -10.0      1.548      3.474
REMARK  Name = 
REMARK  8 active torsions:
REMARK  status: ('A' for Active; 'I' for Inactive)
REMARK    1  A    between atoms: O_2  and  C_3
REMARK    2  A    between atoms: C_3  and  C_4
REMARK    3  A    between atoms: C_4  and  O_5
REMARK    4  A    between atoms: O_5  and  C_6
REMARK    5  A    between atoms: C_8  and  C_12
REMARK    6  A    between atoms: C_15  and  C_17
REMARK    7  A    between atoms: N_21  and  C_22
REMARK    8  A    between atoms: C_22  and  C_23
REMARK                            x       y       z     vdW  Elec       q    Type
REMARK                         _______ _______ _______ _____ _____    ______ ____
ROOT
ATOM     12  C   UNL     1      -4.493   1.002  24.801  0.00  0.00    +0.204 A 
ATOM     13  N   UNL     1      -4.594   0.762  24.018  0.00  0.00    -0.056 NA
ATOM     14  O   UNL     1      -4.273   0.005  23.941  0.00  0.00    -0.336 OA
ATOM     15  C   UNL     1      -3.974  -0.221  24.676  0.00  0.00    +0.251 A 
ATOM     16  N   UNL     1      -4.110   0.395  25.207  0.00  0.00    -0.190 NA
ENDROOT
BRANCH  12   8
ATOM      6  C   UNL     1      -4.497   3.113  25.357  0.00  0.00    +0.225 A 
ATOM      7  C   UNL     1      -4.256   2.392  25.037  0.00  0.00    +0.061 A 
ATOM      8  C   UNL     1      -4.733   1.724  25.120  0.00  0.00    +0.045 A 
ATOM      9  C   UNL     1      -5.451   1.778  25.523  0.00  0.00    +0.024 A 
ATOM     10  C   UNL     1      -5.692   2.500  25.842  0.00  0.00    +0.102 A 
ATOM     11  N   UNL     1      -5.214   3.167  25.759  0.00  0.00    -0.210 NA
BRANCH   6   5
ATOM      5  O   UNL     1      -4.019   3.781  25.274  0.00  0.00    -0.457 OA
BRANCH   5   4
ATOM      4  C   UNL     1      -3.245   3.773  25.559  0.00  0.00    +0.239 C 
BRANCH   4   3
ATOM      3  C   UNL     1      -2.733   4.394  25.379  0.00  0.00    +0.189 C 
BRANCH   3   2
ATOM      1  C   UNL     1      -1.374   4.798  25.203  0.00  0.00    +0.174 C 
ATOM      2  O   UNL     1      -1.940   4.352  25.604  0.00  0.00    -0.347 OA
ENDBRANCH   3   2
ENDBRANCH   4   3
ENDBRANCH   5   4
ENDBRANCH   6   5
ENDBRANCH  12   8
BRANCH  15  17
ATOM     17  C   UNL     1      -3.604  -0.938  24.849  0.00  0.00    +0.138 C 
ATOM     18  C   UNL     1      -3.981  -1.665  24.956  0.00  0.00    +0.027 C 
ATOM     19  C   UNL     1      -3.403  -2.230  25.119  0.00  0.00    +0.019 C 
ATOM     20  C   UNL     1      -2.669  -1.852  25.113  0.00  0.00    +0.073 C 
ATOM     21  N   UNL     1      -2.793  -1.055  24.946  0.00  0.00    -0.263 NA
BRANCH  21  22
ATOM     22  C   UNL     1      -2.210  -0.475  24.887  0.00  0.00    +0.101 C 
BRANCH  22  23
ATOM     23  C   UNL     1      -1.451  -0.677  24.635  0.00  0.00    +0.014 A 
ATOM     24  C   UNL     1      -1.117  -1.432  24.660  0.00  0.00    +0.096 A 
ATOM     25  N   UNL     1      -0.353  -1.383  24.355  0.00  0.00    -0.244 NA
ATOM     26  C   UNL     1      -0.214  -0.598  24.142  0.00  0.00    +0.081 A 
ATOM     27  C   UNL     1      -0.893  -0.163  24.315  0.00  0.00    +0.016 A 
ATOM     28  C   UNL     1      -0.913   0.647  24.158  0.00  0.00    +0.001 A 
ATOM     29  C   UNL     1      -0.257   1.021  23.829  0.00  0.00    +0.000 A 
ATOM     30  C   UNL     1       0.422   0.585  23.655  0.00  0.00    +0.002 A 
ATOM     31  C   UNL     1       0.444  -0.224  23.812  0.00  0.00    +0.019 A 
ENDBRANCH  22  23
ENDBRANCH  21  22
ENDBRANCH  15  17
TORSDOF 8
ENDMDL
MODEL 9
REMARK VINA RESULT:      -9.9      2.068      5.067
REMARK  Name = 
REMARK  8 active torsions:
REMARK  status: ('A' for Active; 'I' for Inactive)
REMARK    1  A    between atoms: O_2  and  C_3
REMARK    2  A    between atoms: C_3  and  C_4
REMARK    3  A    between atoms: C_4  and  O_5
REMARK    4  A    between atoms: O_5  and  C_6
REMARK    5  A    between atoms: C_8  and  C_12
REMARK    6  A    between atoms: C_15  and  C_17
REMARK    7  A    between atoms: N_21  and  C_22
REMARK    8  A    between atoms: C_22  and  C_23
REMARK                            x       y       z     vdW  Elec       q    Type
REMARK                         _______ _______ _______ _____ _____    ______ ____
ROOT
ATOM     12  C   UNL     1      -1.188   0.391  24.736  0.00  0.00    +0.204 A 
ATOM     13  N   UNL     1      -1.280   0.030  25.472  0.00  0.00    -0.056 NA
ATOM     14  O   UNL     1      -2.044  -0.280  25.510  0.00  0.00    -0.336 OA
ATOM     15  C   UNL     1      -2.423  -0.110  24.797  0.00  0.00    +0.251 A 
ATOM     16  N   UNL     1      -1.894   0.305  24.318  0.00  0.00    -0.190 NA
ENDROOT
BRANCH  12   8
ATOM      6  C   UNL     1       0.677   0.770  23.667  0.00  0.00    +0.225 A 
ATOM      7  C   UNL     1      -0.003   0.389  23.938  0.00  0.00    +0.061 A 
ATOM      8  C   UNL     1      -0.508   0.772  24.465  0.00  0.00    +0.045 A 
ATOM      9  C   UNL     1      -0.334   1.536  24.722  0.00  0.00    +0.024 A 
ATOM     10  C   UNL     1       0.346   1.917  24.451  0.00  0.00    +0.102 A 
ATOM     11  N   UNL     1       0.852   1.534  23.924  0.00  0.00    -0.210 NA
BRANCH   6   5
ATOM      5  O   UNL     1       1.183   0.387  23.140  0.00  0.00    -0.457 OA
BRANCH   5   4
ATOM      4  C   UNL     1       1.974   0.614  23.088  0.00  0.00    +0.239 C 
BRANCH   4   3
ATOM      3  C   UNL     1       2.508   0.154  22.660  0.00  0.00    +0.189 C 
BRANCH   3   2
ATOM      1  C   UNL     1       3.912   0.418  22.633  0.00  0.00    +0.174 C 
ATOM      2  O   UNL     1       3.162   0.507  22.301  0.00  0.00    -0.347 OA
ENDBRANCH   3   2
ENDBRANCH   4   3
ENDBRANCH   5   4
ENDBRANCH   6   5
ENDBRANCH  12   8
BRANCH  15  17
ATOM     17  C   UNL     1      -3.196  -0.318  24.597  0.00  0.00    +0.138 C 
ATOM     18  C   UNL     1      -3.457  -1.074  24.390  0.00  0.00    +0.027 C 
ATOM     19  C   UNL     1      -4.266  -1.031  24.234  0.00  0.00    +0.019 C 
ATOM     20  C   UNL     1      -4.505  -0.249  24.345  0.00  0.00    +0.073 C 
ATOM     21  N   UNL     1      -3.845   0.191  24.569  0.00  0.00    -0.263 NA
BRANCH  21  22
ATOM     22  C   UNL     1      -3.834   0.999  24.736  0.00  0.00    +0.101 C 
BRANCH  22  23
ATOM     23  C   UNL     1      -4.526   1.382  24.967  0.00  0.00    +0.014 A 
ATOM     24  C   UNL     1      -5.260   1.024  25.092  0.00  0.00    +0.096 A 
ATOM     25  N   UNL     1      -5.795   1.610  25.316  0.00  0.00    -0.244 NA
ATOM     26  C   UNL     1      -5.393   2.330  25.329  0.00  0.00    +0.081 A 
ATOM     27  C   UNL     1      -4.609   2.189  25.113  0.00  0.00    +0.016 A 
ATOM     28  C   UNL     1      -4.072   2.814  25.079  0.00  0.00    +0.001 A 
ATOM     29  C   UNL     1      -4.318   3.580  25.259  0.00  0.00    +0.000 A 
ATOM     30  C   UNL     1      -5.102   3.721  25.475  0.00  0.00    +0.002 A 
ATOM     31  C   UNL     1      -5.640   3.097  25.510  0.00  0.00    +0.019 A 
ENDBRANCH  22  23
ENDBRANCH  21  22
ENDBRANCH  15  17
TORSDOF 8
ENDMDL
