MODEL 1
REMARK VINA RESULT:     -12.6      0.000      0.000
REMARK  Name = 
REMARK  6 active torsions:
REMARK  status: ('A' for Active; 'I' for Inactive)
REMARK    1  A    between atoms: C_2  and  C_7
REMARK    2  A    between atoms: N_9  and  C_10
REMARK    3  A    between atoms: C_10  and  C_11
REMARK    4  A    between atoms: C_18  and  C_19
REMARK    5  A    between atoms: N_21  and  C_22
REMARK    6  A    between atoms: C_22  and  C_23
REMARK                            x       y       z     vdW  Elec       q    Type
REMARK                         _______ _______ _______ _____ _____    ______ ____
ROOT
ATOM     11  C   UNL     1      -0.442   1.962  25.309  0.00  0.00    +0.082 C 
ATOM     12  C   UNL     1      -0.234   1.542  24.688  0.00  0.00    +0.019 C 
ATOM     13  C   UNL     1      -0.392   0.756  24.575  0.00  0.00    +0.013 C 
ATOM     14  C   UNL     1      -0.066   0.459  23.794  0.00  0.00    +0.018 C 
ATOM     15  C   UNL     1      -0.186   0.902  24.258  0.00  0.00    +0.072 C 
ATOM     16  N   UNL     1      -0.600   1.161  25.186  0.00  0.00    -0.272 NA
ATOM     17  C   UNL     1      -1.037   0.540  25.693  0.00  0.00    +0.081 C 
ATOM     18  C   UNL     1      -0.813   0.164  25.067  0.00  0.00    +0.094 C 
ENDROOT
BRANCH  18  19
ATOM     19  C   UNL     1      -0.941  -0.632  24.890  0.00  0.00    +0.243 C 
ATOM     20  O   UNL     1      -0.302  -1.151  24.844  0.00  0.00    -0.273 OA
ATOM     21  N   UNL     1      -1.707  -0.907  24.760  0.00  0.00    -0.201 NA
BRANCH  21  22
ATOM     22  C   UNL     1      -1.835  -1.703  24.584  0.00  0.00    +0.141 C 
BRANCH  22  23
ATOM     23  C   UNL     1      -2.598  -1.970  24.416  0.00  0.00    -0.000 A 
ATOM     24  C   UNL     1      -2.809  -2.748  24.588  0.00  0.00    -0.000 A 
ATOM     25  C   UNL     1      -3.571  -3.017  24.421  0.00  0.00    +0.029 A 
ATOM     26  C   UNL     1      -4.122  -2.506  24.080  0.00  0.00    +0.140 A 
ATOM     27  F   UNL     1      -4.884  -2.774  23.912  0.00  0.00    -0.204 F 
ATOM     28  C   UNL     1      -3.911  -1.727  23.907  0.00  0.00    +0.029 A 
ATOM     29  C   UNL     1      -3.149  -1.460  24.075  0.00  0.00    -0.000 A 
ENDBRANCH  22  23
ENDBRANCH  21  22
ENDBRANCH  18  19
BRANCH  11  10
ATOM     10  C   UNL     1      -0.478   2.659  25.748  0.00  0.00    +0.145 C 
BRANCH  10   9
ATOM      7  C   UNL     1      -2.278   3.794  25.582  0.00  0.00    +0.128 A 
ATOM      8  C   UNL     1      -1.870   3.122  25.833  0.00  0.00    +0.116 A 
ATOM      9  N   UNL     1      -1.081   3.204  25.607  0.00  0.00    -0.229 N 
ATOM     30  N   UNL     1      -1.001   3.927  25.217  0.00  0.00    -0.064 NA
ATOM     31  N   UNL     1      -1.741   4.291  25.202  0.00  0.00    -0.131 NA
BRANCH   7   2
ATOM      1  O   UNL     1      -2.842   4.208  26.436  0.00  0.00    -0.220 OA
ATOM      2  C   UNL     1      -3.082   3.943  25.692  0.00  0.00    +0.165 C 
ATOM      3  C   UNL     1      -3.153   3.647  24.925  0.00  0.00    +0.036 C 
ATOM      4  C   UNL     1      -3.951   3.668  24.717  0.00  0.00    +0.003 C 
ATOM      5  C   UNL     1      -4.373   3.977  25.355  0.00  0.00    +0.003 C 
ATOM      6  C   UNL     1      -3.836   4.147  25.958  0.00  0.00    +0.036 C 
ENDBRANCH   7   2
ENDBRANCH  10   9
ENDBRANCH  11  10
TORSDOF 6
ENDMDL
MODEL 2
REMARK VINA RESULT:     -12.5      2.076      3.368
REMARK  Name = 
REMARK  6 active torsions:
REMARK  status: ('A' for Active; 'I' for Inactive)
REMARK    1  A    between atoms: C_2  and  C_7
REMARK    2  A    between atoms: N_9  and  C_10
REMARK    3  A    between atoms: C_10  and  C_11
REMARK    4  A    between atoms: C_18  and  C_19
REMARK    5  A    between atoms: N_21  and  C_22
REMARK    6  A    between atoms: C_22  and  C_23
REMARK                            x       y       z     vdW  Elec       q    Type
REMARK                         _______ _______ _______ _____ _____    ______ ____
ROOT
ATOM     11  C   UNL     1      -4.608   3.059  25.025  0.00  0.00    +0.082 C 
ATOM     12  C   UNL     1      -5.085   2.572  25.400  0.00  0.00    +0.019 C 
ATOM     13  C   UNL     1      -5.154   1.777  25.259  0.00  0.00    +0.013 C 
ATOM     14  C   UNL     1      -5.758   1.394  25.799  0.00  0.00    +0.018 C 
ATOM     15  C   UNL     1      -5.405   1.887  25.556  0.00  0.00    +0.072 C 
ATOM     16  N   UNL     1      -4.684   2.249  24.887  0.00  0.00    -0.272 NA
ATOM     17  C   UNL     1      -4.272   1.689  24.296  0.00  0.00    +0.081 C 
ATOM     18  C   UNL     1      -4.753   1.244  24.688  0.00  0.00    +0.094 C 
ENDROOT
BRANCH  18  19
ATOM     19  C   UNL     1      -4.872   0.433  24.595  0.00  0.00    +0.243 C 
ATOM     20  O   UNL     1      -5.627   0.143  24.430  0.00  0.00    -0.273 OA
ATOM     21  N   UNL     1      -4.237  -0.087  24.666  0.00  0.00    -0.201 NA
BRANCH  21  22
ATOM     22  C   UNL     1      -4.355  -0.899  24.573  0.00  0.00    +0.141 C 
BRANCH  22  23
ATOM     23  C   UNL     1      -3.713  -1.415  24.600  0.00  0.00    -0.000 A 
ATOM     24  C   UNL     1      -3.744  -2.133  24.196  0.00  0.00    -0.000 A 
ATOM     25  C   UNL     1      -3.101  -2.651  24.222  0.00  0.00    +0.029 A 
ATOM     26  C   UNL     1      -2.427  -2.449  24.652  0.00  0.00    +0.140 A 
ATOM     27  F   UNL     1      -1.784  -2.965  24.679  0.00  0.00    -0.204 F 
ATOM     28  C   UNL     1      -2.396  -1.730  25.057  0.00  0.00    +0.029 A 
ATOM     29  C   UNL     1      -3.039  -1.213  25.030  0.00  0.00    -0.000 A 
ENDBRANCH  22  23
ENDBRANCH  21  22
ENDBRANCH  18  19
BRANCH  11  10
ATOM     10  C   UNL     1      -4.282   3.802  24.879  0.00  0.00    +0.145 C 
BRANCH  10   9
ATOM      7  C   UNL     1      -2.268   4.313  25.369  0.00  0.00    +0.128 A 
ATOM      8  C   UNL     1      -2.846   4.105  24.817  0.00  0.00    +0.116 A 
ATOM      9  N   UNL     1      -3.559   4.009  25.218  0.00  0.00    -0.229 N 
ATOM     30  N   UNL     1      -3.424   4.158  26.018  0.00  0.00    -0.064 NA
ATOM     31  N   UNL     1      -2.626   4.345  26.112  0.00  0.00    -0.131 NA
BRANCH   7   2
ATOM      1  O   UNL     1      -1.729   5.240  25.108  0.00  0.00    -0.220 OA
ATOM      2  C   UNL     1      -1.473   4.462  25.207  0.00  0.00    +0.165 C 
ATOM      3  C   UNL     1      -1.384   3.652  25.341  0.00  0.00    +0.036 C 
ATOM      4  C   UNL     1      -0.587   3.464  25.240  0.00  0.00    +0.003 C 
ATOM      5  C   UNL     1      -0.184   4.157  25.045  0.00  0.00    +0.003 C 
ATOM      6  C   UNL     1      -0.731   4.773  25.025  0.00  0.00    +0.036 C 
ENDBRANCH   7   2
ENDBRANCH  10   9
ENDBRANCH  11  10
TORSDOF 6
ENDMDL
MODEL 3
REMARK VINA RESULT:     -12.5      1.659      5.085
REMARK  Name = 
REMARK  6 active torsions:
REMARK  status: ('A' for Active; 'I' for Inactive)
REMARK    1  A    between atoms: C_2  and  C_7
REMARK    2  A    between atoms: N_9  and  C_10
REMARK    3  A    between atoms: C_10  and  C_11
REMARK    4  A    between atoms: C_18  and  C_19
REMARK    5  A    between atoms: N_21  and  C_22
REMARK    6  A    between atoms: C_22  and  C_23
REMARK                            x       y       z     vdW  Elec       q    Type
REMARK                         _______ _______ _______ _____ _____    ______ ____
ROOT
ATOM     11  C   UNL     1      -0.370   0.404  24.525  0.00  0.00    +0.082 C 
ATOM     12  C   UNL     1      -0.240   0.975  25.037  0.00  0.00    +0.019 C 
ATOM     13  C   UNL     1      -0.606   1.698  25.040  0.00  0.00    +0.013 C 
ATOM     14  C   UNL     1      -0.318   2.215  25.713  0.00  0.00    +0.018 C 
ATOM     15  C   UNL     1      -0.343   1.675  25.346  0.00  0.00    +0.072 C 
ATOM     16  N   UNL     1      -0.738   1.142  24.534  0.00  0.00    -0.272 NA
ATOM     17  C   UNL     1      -1.372   1.515  23.994  0.00  0.00    +0.081 C 
ATOM     18  C   UNL     1      -1.216   2.050  24.516  0.00  0.00    +0.094 C 
ENDROOT
BRANCH  18  19
ATOM     19  C   UNL     1      -1.550   2.802  24.575  0.00  0.00    +0.243 C 
ATOM     20  O   UNL     1      -1.089   3.471  24.430  0.00  0.00    -0.273 OA
ATOM     21  N   UNL     1      -2.345   2.885  24.779  0.00  0.00    -0.201 NA
BRANCH  21  22
ATOM     22  C   UNL     1      -2.679   3.637  24.838  0.00  0.00    +0.141 C 
BRANCH  22  23
ATOM     23  C   UNL     1      -3.474   3.720  25.044  0.00  0.00    -0.000 A 
ATOM     24  C   UNL     1      -3.689   3.795  25.836  0.00  0.00    -0.000 A 
ATOM     25  C   UNL     1      -4.484   3.877  26.043  0.00  0.00    +0.029 A 
ATOM     26  C   UNL     1      -5.063   3.885  25.457  0.00  0.00    +0.140 A 
ATOM     27  F   UNL     1      -5.858   3.967  25.662  0.00  0.00    -0.204 F 
ATOM     28  C   UNL     1      -4.848   3.810  24.663  0.00  0.00    +0.029 A 
ATOM     29  C   UNL     1      -4.054   3.727  24.457  0.00  0.00    -0.000 A 
ENDBRANCH  22  23
ENDBRANCH  21  22
ENDBRANCH  18  19
BRANCH  11  10
ATOM     10  C   UNL     1      -0.240  -0.349  24.215  0.00  0.00    +0.145 C 
BRANCH  10   9
ATOM      7  C   UNL     1      -1.609  -1.928  24.652  0.00  0.00    +0.128 A 
ATOM      8  C   UNL     1      -1.377  -1.280  24.196  0.00  0.00    +0.116 A 
ATOM      9  N   UNL     1      -0.668  -0.993  24.503  0.00  0.00    -0.229 N 
ATOM     30  N   UNL     1      -0.461  -1.463  25.149  0.00  0.00    -0.064 NA
ATOM     31  N   UNL     1      -1.042  -2.041  25.241  0.00  0.00    -0.131 NA
BRANCH   7   2
ATOM      1  O   UNL     1      -1.802  -2.826  24.040  0.00  0.00    -0.220 OA
ATOM      2  C   UNL     1      -2.288  -2.383  24.539  0.00  0.00    +0.165 C 
ATOM      3  C   UNL     1      -2.631  -1.844  25.062  0.00  0.00    +0.036 C 
ATOM      4  C   UNL     1      -3.420  -2.059  25.167  0.00  0.00    +0.003 C 
ATOM      5  C   UNL     1      -3.565  -2.730  24.710  0.00  0.00    +0.003 C 
ATOM      6  C   UNL     1      -2.865  -2.930  24.322  0.00  0.00    +0.036 C 
ENDBRANCH   7   2
ENDBRANCH  10   9
ENDBRANCH  11  10
TORSDOF 6
ENDMDL
MODEL 4
REMARK VINA RESULT:     -12.4      2.235      5.381
REMARK  Name = 
REMARK  6 active torsions:
REMARK  status: ('A' for Active; 'I' for Inactive)
REMARK    1  A    between atoms: C_2  and  C_7
REMARK    2  A    between atoms: N_9  and  C_10
REMARK    3  A    between atoms: C_10  and  C_11
REMARK    4  A    between atoms: C_18  and  C_19
REMARK    5  A    between atoms: N_21  and  C_22
REMARK    6  A    between atoms: C_22  and  C_23
REMARK                            x       y       z     vdW  Elec       q    Type
REMARK                         _______ _______ _______ _____ _____    ______ ____
ROOT
ATOM     11  C   UNL     1      -0.787  -0.533  25.037  0.00  0.00    +0.082 C 
ATOM     12  C   UNL     1      -0.527  -0.198  24.384  0.00  0.00    +0.019 C 
ATOM     13  C   UNL     1      -0.292   0.573  24.311  0.00  0.00    +0.013 C 
ATOM     14  C   UNL     1      -0.026   0.763  23.476  0.00  0.00    +0.018 C 
ATOM     15  C   UNL     1      -0.255   0.383  23.955  0.00  0.00    +0.072 C 
ATOM     16  N   UNL     1      -0.546   0.252  24.954  0.00  0.00    -0.272 NA
ATOM     17  C   UNL     1      -0.504   0.943  25.548  0.00  0.00    +0.081 C 
ATOM     18  C   UNL     1      -0.254   1.233  24.888  0.00  0.00    +0.094 C 
ENDROOT
BRANCH  18  19
ATOM     19  C   UNL     1      -0.001   2.006  24.746  0.00  0.00    +0.243 C 
ATOM     20  O   UNL     1       0.765   2.145  24.472  0.00  0.00    -0.273 OA
ATOM     21  N   UNL     1      -0.513   2.638  24.878  0.00  0.00    -0.201 NA
BRANCH  21  22
ATOM     22  C   UNL     1      -0.260   3.411  24.736  0.00  0.00    +0.141 C 
BRANCH  22  23
ATOM     23  C   UNL     1      -0.757   4.046  24.911  0.00  0.00    -0.000 A 
ATOM     24  C   UNL     1      -1.463   3.917  25.318  0.00  0.00    -0.000 A 
ATOM     25  C   UNL     1      -1.960   4.552  25.494  0.00  0.00    +0.029 A 
ATOM     26  C   UNL     1      -1.751   5.315  25.262  0.00  0.00    +0.140 A 
ATOM     27  F   UNL     1      -2.248   5.950  25.437  0.00  0.00    -0.204 F 
ATOM     28  C   UNL     1      -1.045   5.444  24.855  0.00  0.00    +0.029 A 
ATOM     29  C   UNL     1      -0.548   4.809  24.679  0.00  0.00    -0.000 A 
ENDBRANCH  22  23
ENDBRANCH  21  22
ENDBRANCH  18  19
BRANCH  11  10
ATOM     10  C   UNL     1      -1.077  -1.171  25.471  0.00  0.00    +0.145 C 
BRANCH  10   9
ATOM      7  C   UNL     1      -3.010  -1.928  24.974  0.00  0.00    +0.128 A 
ATOM      8  C   UNL     1      -2.202  -1.856  24.821  0.00  0.00    +0.116 A 
ATOM      9  N   UNL     1      -1.871  -1.385  25.410  0.00  0.00    -0.229 N 
ATOM     30  N   UNL     1      -2.474  -1.165  25.929  0.00  0.00    -0.064 NA
ATOM     31  N   UNL     1      -3.178  -1.501  25.660  0.00  0.00    -0.131 NA
BRANCH   7   2
ATOM      1  O   UNL     1      -3.199  -3.011  24.871  0.00  0.00    -0.220 OA
ATOM      2  C   UNL     1      -3.555  -2.352  24.522  0.00  0.00    +0.165 C 
ATOM      3  C   UNL     1      -3.796  -1.605  24.269  0.00  0.00    +0.036 C 
ATOM      4  C   UNL     1      -4.415  -1.705  23.734  0.00  0.00    +0.003 C 
ATOM      5  C   UNL     1      -4.556  -2.514  23.656  0.00  0.00    +0.003 C 
ATOM      6  C   UNL     1      -4.025  -2.914  24.143  0.00  0.00    +0.036 C 
ENDBRANCH   7   2
ENDBRANCH  10   9
ENDBRANCH  11  10
TORSDOF 6
ENDMDL
MODEL 5
REMARK VINA RESULT:     -12.3      2.448      5.997
REMARK  Name = 
REMARK  6 active torsions:
REMARK  status: ('A' for Active; 'I' for Inactive)
REMARK    1  A    between atoms: C_2  and  C_7
REMARK    2  A    between atoms: N_9  and  C_10
REMARK    3  A    between atoms: C_10  and  C_11
REMARK    4  A    between atoms: C_18  and  C_19
REMARK    5  A    between atoms: N_21  and  C_22
REMARK    6  A    between atoms: C_22  and  C_23
REMARK                            x       y       z     vdW  Elec       q    Type
REMARK                         _______ _______ _______ _____ _____    ______ ____
ROOT
ATOM     11  C   UNL     1      -4.423   0.153  24.414  0.00  0.00    +0.082 C 
ATOM     12  C   UNL     1      -4.774   0.633  24.916  0.00  0.00    +0.019 C 
ATOM     13  C   UNL     1      -4.638   1.428  24.983  0.00  0.00    +0.013 C 
ATOM     14  C   UNL     1      -5.145   1.801  25.622  0.00  0.00    +0.018 C 
ATOM     15  C   UNL     1      -4.918   1.314  25.251  0.00  0.00    +0.072 C 
ATOM     16  N   UNL     1      -4.289   0.965  24.488  0.00  0.00    -0.272 NA
ATOM     17  C   UNL     1      -3.731   1.535  24.045  0.00  0.00    +0.081 C 
ATOM     18  C   UNL     1      -4.099   1.971  24.553  0.00  0.00    +0.094 C 
ENDROOT
BRANCH  18  19
ATOM     19  C   UNL     1      -4.007   2.782  24.672  0.00  0.00    +0.243 C 
ATOM     20  O   UNL     1      -4.660   3.283  24.611  0.00  0.00    -0.273 OA
ATOM     21  N   UNL     1      -3.265   3.091  24.851  0.00  0.00    -0.201 NA
BRANCH  21  22
ATOM     22  C   UNL     1      -3.174   3.903  24.970  0.00  0.00    +0.141 C 
BRANCH  22  23
ATOM     23  C   UNL     1      -2.418   4.232  25.008  0.00  0.00    -0.000 A 
ATOM     24  C   UNL     1      -2.324   5.051  25.005  0.00  0.00    -0.000 A 
ATOM     25  C   UNL     1      -1.569   5.381  25.042  0.00  0.00    +0.029 A 
ATOM     26  C   UNL     1      -0.907   4.891  25.082  0.00  0.00    +0.140 A 
ATOM     27  F   UNL     1      -0.151   5.220  25.119  0.00  0.00    -0.204 F 
ATOM     28  C   UNL     1      -1.000   4.071  25.084  0.00  0.00    +0.029 A 
ATOM     29  C   UNL     1      -1.756   3.742  25.047  0.00  0.00    -0.000 A 
ENDBRANCH  22  23
ENDBRANCH  21  22
ENDBRANCH  18  19
BRANCH  11  10
ATOM     10  C   UNL     1      -4.288  -0.586  24.074  0.00  0.00    +0.145 C 
BRANCH  10   9
ATOM      7  C   UNL     1      -2.651  -1.785  24.735  0.00  0.00    +0.128 A 
ATOM      8  C   UNL     1      -2.963  -1.194  24.250  0.00  0.00    +0.116 A 
ATOM      9  N   UNL     1      -3.763  -1.114  24.429  0.00  0.00    -0.229 N 
ATOM     30  N   UNL     1      -3.948  -1.654  25.024  0.00  0.00    -0.064 NA
ATOM     31  N   UNL     1      -3.260  -2.069  25.214  0.00  0.00    -0.131 NA
BRANCH   7   2
ATOM      1  O   UNL     1      -2.164  -2.668  24.287  0.00  0.00    -0.220 OA
ATOM      2  C   UNL     1      -1.868  -2.045  24.741  0.00  0.00    +0.165 C 
ATOM      3  C   UNL     1      -1.738  -1.368  25.194  0.00  0.00    +0.036 C 
ATOM      4  C   UNL     1      -0.936  -1.341  25.385  0.00  0.00    +0.003 C 
ATOM      5  C   UNL     1      -0.571  -2.001  25.050  0.00  0.00    +0.003 C 
ATOM      6  C   UNL     1      -1.147  -2.436  24.652  0.00  0.00    +0.036 C 
ENDBRANCH   7   2
ENDBRANCH  10   9
ENDBRANCH  11  10
TORSDOF 6
ENDMDL
MODEL 6
REMARK VINA RESULT:     -11.6      2.926      5.212
REMARK  Name = 
REMARK  6 active torsions:
REMARK  status: ('A' for Active; 'I' for Inactive)
REMARK    1  A    between atoms: C_2  and  C_7
REMARK    2  A    between atoms: N_9  and  C_10
REMARK    3  A    between atoms: C_10  and  C_11
REMARK    4  A    between atoms: C_18  and  C_19
REMARK    5  A    between atoms: N_21  and  C_22
REMARK    6  A    between atoms: C_22  and  C_23
REMARK                            x       y       z     vdW  Elec       q    Type
REMARK                         _______ _______ _______ _____ _____    ______ ____
ROOT
ATOM     11  C   UNL     1       1.110   0.094  22.987  0.00  0.00    +0.082 C 
ATOM     12  C   UNL     1       0.664   0.604  23.370  0.00  0.00    +0.019 C 
ATOM     13  C   UNL     1       0.047   0.416  23.859  0.00  0.00    +0.013 C 
ATOM     14  C   UNL     1      -0.341   1.148  24.204  0.00  0.00    +0.018 C 
ATOM     15  C   UNL     1       0.091   0.818  23.841  0.00  0.00    +0.072 C 
ATOM     16  N   UNL     1       0.480  -0.089  23.488  0.00  0.00    -0.272 NA
ATOM     17  C   UNL     1       0.118  -0.886  23.747  0.00  0.00    +0.081 C 
ATOM     18  C   UNL     1      -0.297  -0.353  24.104  0.00  0.00    +0.094 C 
ENDROOT
BRANCH  18  19
ATOM     19  C   UNL     1      -0.934  -0.476  24.614  0.00  0.00    +0.243 C 
ATOM     20  O   UNL     1      -0.901  -0.199  25.390  0.00  0.00    -0.273 OA
ATOM     21  N   UNL     1      -1.604  -0.875  24.346  0.00  0.00    -0.201 NA
BRANCH  21  22
ATOM     22  C   UNL     1      -2.242  -0.998  24.856  0.00  0.00    +0.141 C 
BRANCH  22  23
ATOM     23  C   UNL     1      -2.912  -1.398  24.588  0.00  0.00    -0.000 A 
ATOM     24  C   UNL     1      -3.541  -0.976  24.263  0.00  0.00    -0.000 A 
ATOM     25  C   UNL     1      -4.212  -1.374  23.995  0.00  0.00    +0.029 A 
ATOM     26  C   UNL     1      -4.254  -2.196  24.053  0.00  0.00    +0.140 A 
ATOM     27  F   UNL     1      -4.924  -2.596  23.785  0.00  0.00    -0.204 F 
ATOM     28  C   UNL     1      -3.624  -2.619  24.379  0.00  0.00    +0.029 A 
ATOM     29  C   UNL     1      -2.954  -2.219  24.647  0.00  0.00    -0.000 A 
ENDBRANCH  22  23
ENDBRANCH  21  22
ENDBRANCH  18  19
BRANCH  11  10
ATOM     10  C   UNL     1       1.729  -0.107  22.480  0.00  0.00    +0.145 C 
BRANCH  10   9
ATOM      7  C   UNL     1       3.766   0.057  23.097  0.00  0.00    +0.128 A 
ATOM      8  C   UNL     1       3.073  -0.382  23.005  0.00  0.00    +0.116 A 
ATOM      9  N   UNL     1       2.503   0.108  22.667  0.00  0.00    -0.229 N 
ATOM     30  N   UNL     1       2.842   0.851  22.550  0.00  0.00    -0.064 NA
ATOM     31  N   UNL     1       3.622   0.819  22.815  0.00  0.00    -0.131 NA
BRANCH   7   2
ATOM      1  O   UNL     1       4.092  -0.948  23.415  0.00  0.00    -0.220 OA
ATOM      2  C   UNL     1       4.476  -0.217  23.414  0.00  0.00    +0.165 C 
ATOM      3  C   UNL     1       4.710   0.571  23.345  0.00  0.00    +0.036 C 
ATOM      4  C   UNL     1       5.485   0.631  23.620  0.00  0.00    +0.003 C 
ATOM      5  C   UNL     1       5.730  -0.120  23.859  0.00  0.00    +0.003 C 
ATOM      6  C   UNL     1       5.106  -0.644  23.731  0.00  0.00    +0.036 C 
ENDBRANCH   7   2
ENDBRANCH  10   9
ENDBRANCH  11  10
TORSDOF 6
ENDMDL
