MODEL 1
REMARK VINA RESULT:     -11.8      0.000      0.000
REMARK  Name = 
REMARK  9 active torsions:
REMARK  status: ('A' for Active; 'I' for Inactive)
REMARK    1  A    between atoms: O_2  and  C_3
REMARK    2  A    between atoms: C_6  and  C_7
REMARK    3  A    between atoms: C_7  and  N_8
REMARK    4  A    between atoms: C_9  and  C_11
REMARK    5  A    between atoms: C_11  and  C_12
REMARK    6  A    between atoms: C_12  and  C_13
REMARK    7  A    between atoms: C_20  and  N_23
REMARK    8  A    between atoms: N_23  and  C_24
REMARK    9  A    between atoms: C_24  and  C_25
REMARK                            x       y       z     vdW  Elec       q    Type
REMARK                         _______ _______ _______ _____ _____    ______ ____
ROOT
ATOM     13  C   UNL     1      -0.327   1.721  24.688  0.00  0.00    +0.080 C 
ATOM     14  C   UNL     1       0.369   2.004  24.348  0.00  0.00    +0.131 C 
ATOM     15  N   UNL     1       0.832   1.508  23.880  0.00  0.00    -0.203 NA
ATOM     16  C   UNL     1       0.599   0.726  23.753  0.00  0.00    +0.256 C 
ATOM     17  O   UNL     1       1.062   0.229  23.285  0.00  0.00    -0.272 OA
ATOM     18  C   UNL     1      -0.097   0.442  24.093  0.00  0.00    +0.138 C 
ATOM     19  C   UNL     1      -0.464  -0.296  24.065  0.00  0.00    +0.044 C 
ATOM     20  C   UNL     1      -1.154  -0.255  24.516  0.00  0.00    +0.091 C 
ATOM     21  C   UNL     1      -1.213   0.509  24.822  0.00  0.00    +0.090 C 
ATOM     22  N   UNL     1      -0.560   0.940  24.561  0.00  0.00    -0.265 NA
ENDROOT
BRANCH  13  12
ATOM     12  C   UNL     1      -0.790   2.219  25.156  0.00  0.00    +0.027 C 
BRANCH  12  11
ATOM     11  C   UNL     1      -0.970   2.980  24.896  0.00  0.00    +0.088 C 
BRANCH  11   9
ATOM      8  N   UNL     1      -2.376   3.229  24.949  0.00  0.00    -0.201 NA
ATOM      9  C   UNL     1      -1.612   3.385  25.218  0.00  0.00    +0.242 C 
ATOM     10  O   UNL     1      -1.490   3.947  25.810  0.00  0.00    -0.273 OA
BRANCH   8   7
ATOM      7  C   UNL     1      -3.019   3.634  25.271  0.00  0.00    +0.141 C 
BRANCH   7   6
ATOM      3  C   UNL     1      -5.301   2.699  25.067  0.00  0.00    +0.139 A 
ATOM      4  C   UNL     1      -4.755   2.592  24.457  0.00  0.00    +0.037 A 
ATOM      5  C   UNL     1      -3.994   2.903  24.526  0.00  0.00    +0.001 A 
ATOM      6  C   UNL     1      -3.779   3.322  25.203  0.00  0.00    -0.000 A 
ATOM     31  C   UNL     1      -4.325   3.430  25.812  0.00  0.00    +0.001 A 
ATOM     32  C   UNL     1      -5.086   3.119  25.744  0.00  0.00    +0.037 A 
BRANCH   3   2
ATOM      1  C   UNL     1      -6.184   1.576  25.085  0.00  0.00    +0.252 C 
ATOM      2  O   UNL     1      -6.062   2.388  24.998  0.00  0.00    -0.471 OA
ENDBRANCH   3   2
ENDBRANCH   7   6
ENDBRANCH   8   7
ENDBRANCH  11   9
ENDBRANCH  12  11
ENDBRANCH  13  12
BRANCH  20  23
ATOM     23  N   UNL     1      -1.690  -0.870  24.638  0.00  0.00    -0.213 NA
BRANCH  23  24
ATOM     24  C   UNL     1      -2.497  -0.710  24.693  0.00  0.00    +0.115 C 
BRANCH  24  25
ATOM     25  C   UNL     1      -3.047  -1.304  24.535  0.00  0.00    -0.005 A 
ATOM     26  C   UNL     1      -2.932  -2.063  24.838  0.00  0.00    -0.003 A 
ATOM     27  C   UNL     1      -3.481  -2.658  24.681  0.00  0.00    -0.000 A 
ATOM     28  C   UNL     1      -4.146  -2.494  24.219  0.00  0.00    -0.000 A 
ATOM     29  C   UNL     1      -4.261  -1.736  23.916  0.00  0.00    -0.000 A 
ATOM     30  C   UNL     1      -3.711  -1.141  24.074  0.00  0.00    -0.003 A 
ENDBRANCH  24  25
ENDBRANCH  23  24
ENDBRANCH  20  23
TORSDOF 9
ENDMDL
MODEL 2
REMARK VINA RESULT:     -11.7      1.182      4.252
REMARK  Name = 
REMARK  9 active torsions:
REMARK  status: ('A' for Active; 'I' for Inactive)
REMARK    1  A    between atoms: O_2  and  C_3
REMARK    2  A    between atoms: C_6  and  C_7
REMARK    3  A    between atoms: C_7  and  N_8
REMARK    4  A    between atoms: C_9  and  C_11
REMARK    5  A    between atoms: C_11  and  C_12
REMARK    6  A    between atoms: C_12  and  C_13
REMARK    7  A    between atoms: C_20  and  N_23
REMARK    8  A    between atoms: N_23  and  C_24
REMARK    9  A    between atoms: C_24  and  C_25
REMARK                            x       y       z     vdW  Elec       q    Type
REMARK                         _______ _______ _______ _____ _____    ______ ____
ROOT
ATOM     13  C   UNL     1      -4.230   3.167  25.174  0.00  0.00    +0.080 C 
ATOM     14  C   UNL     1      -4.658   3.774  25.533  0.00  0.00    +0.131 C 
ATOM     15  N   UNL     1      -5.386   3.613  25.887  0.00  0.00    -0.203 NA
ATOM     16  C   UNL     1      -5.685   2.844  25.882  0.00  0.00    +0.256 C 
ATOM     17  O   UNL     1      -6.412   2.683  26.236  0.00  0.00    -0.272 OA
ATOM     18  C   UNL     1      -5.257   2.237  25.522  0.00  0.00    +0.138 C 
ATOM     19  C   UNL     1      -5.412   1.432  25.432  0.00  0.00    +0.044 C 
ATOM     20  C   UNL     1      -4.779   1.096  25.021  0.00  0.00    +0.091 C 
ATOM     21  C   UNL     1      -4.235   1.694  24.859  0.00  0.00    +0.090 C 
ATOM     22  N   UNL     1      -4.530   2.399  25.168  0.00  0.00    -0.265 NA
ENDROOT
BRANCH  13  12
ATOM     12  C   UNL     1      -3.503   3.330  24.820  0.00  0.00    +0.027 C 
BRANCH  12  11
ATOM     11  C   UNL     1      -2.899   3.681  25.258  0.00  0.00    +0.088 C 
BRANCH  11   9
ATOM      8  N   UNL     1      -1.795   2.822  24.965  0.00  0.00    -0.201 NA
ATOM      9  C   UNL     1      -2.113   3.581  25.032  0.00  0.00    +0.242 C 
ATOM     10  O   UNL     1      -1.643   4.240  24.872  0.00  0.00    -0.273 OA
BRANCH   8   7
ATOM      7  C   UNL     1      -1.008   2.722  24.738  0.00  0.00    +0.141 C 
BRANCH   7   6
ATOM      3  C   UNL     1      -0.162   0.469  24.161  0.00  0.00    +0.139 A 
ATOM      4  C   UNL     1      -0.369   0.998  23.562  0.00  0.00    +0.037 A 
ATOM      5  C   UNL     1      -0.651   1.749  23.755  0.00  0.00    +0.001 A 
ATOM      6  C   UNL     1      -0.726   1.971  24.546  0.00  0.00    -0.000 A 
ATOM     31  C   UNL     1      -0.520   1.443  25.144  0.00  0.00    +0.001 A 
ATOM     32  C   UNL     1      -0.237   0.692  24.952  0.00  0.00    +0.037 A 
BRANCH   3   2
ATOM      1  C   UNL     1      -0.235  -0.952  24.295  0.00  0.00    +0.252 C 
ATOM      2  O   UNL     1       0.120  -0.281  23.968  0.00  0.00    -0.471 OA
ENDBRANCH   3   2
ENDBRANCH   7   6
ENDBRANCH   8   7
ENDBRANCH  11   9
ENDBRANCH  12  11
ENDBRANCH  13  12
BRANCH  20  23
ATOM     23  N   UNL     1      -4.706   0.301  24.811  0.00  0.00    -0.213 NA
BRANCH  23  24
ATOM     24  C   UNL     1      -3.976  -0.078  24.877  0.00  0.00    +0.115 C 
BRANCH  24  25
ATOM     25  C   UNL     1      -3.914  -0.884  24.711  0.00  0.00    -0.005 A 
ATOM     26  C   UNL     1      -4.170  -1.175  23.984  0.00  0.00    -0.003 A 
ATOM     27  C   UNL     1      -4.109  -1.981  23.816  0.00  0.00    -0.000 A 
ATOM     28  C   UNL     1      -3.790  -2.495  24.378  0.00  0.00    -0.000 A 
ATOM     29  C   UNL     1      -3.533  -2.203  25.106  0.00  0.00    -0.000 A 
ATOM     30  C   UNL     1      -3.595  -1.397  25.272  0.00  0.00    -0.003 A 
ENDBRANCH  24  25
ENDBRANCH  23  24
ENDBRANCH  20  23
TORSDOF 9
ENDMDL
MODEL 3
REMARK VINA RESULT:     -11.5      1.452      4.200
REMARK  Name = 
REMARK  9 active torsions:
REMARK  status: ('A' for Active; 'I' for Inactive)
REMARK    1  A    between atoms: O_2  and  C_3
REMARK    2  A    between atoms: C_6  and  C_7
REMARK    3  A    between atoms: C_7  and  N_8
REMARK    4  A    between atoms: C_9  and  C_11
REMARK    5  A    between atoms: C_11  and  C_12
REMARK    6  A    between atoms: C_12  and  C_13
REMARK    7  A    between atoms: C_20  and  N_23
REMARK    8  A    between atoms: N_23  and  C_24
REMARK    9  A    between atoms: C_24  and  C_25
REMARK                            x       y       z     vdW  Elec       q    Type
REMARK                         _______ _______ _______ _____ _____    ______ ____
ROOT
ATOM     13  C   UNL     1      -1.917  -1.307  24.699  0.00  0.00    +0.080 C 
ATOM     14  C   UNL     1      -1.756  -2.091  24.500  0.00  0.00    +0.131 C 
ATOM     15  N   UNL     1      -2.376  -2.625  24.390  0.00  0.00    -0.203 NA
ATOM     16  C   UNL     1      -3.157  -2.373  24.478  0.00  0.00    +0.256 C 
ATOM     17  O   UNL     1      -3.776  -2.906  24.367  0.00  0.00    -0.272 OA
ATOM     18  C   UNL     1      -3.318  -1.588  24.676  0.00  0.00    +0.138 C 
ATOM     19  C   UNL     1      -4.027  -1.185  24.799  0.00  0.00    +0.044 C 
ATOM     20  C   UNL     1      -3.845  -0.401  24.986  0.00  0.00    +0.091 C 
ATOM     21  C   UNL     1      -3.024  -0.322  24.978  0.00  0.00    +0.090 C 
ATOM     22  N   UNL     1      -2.698  -1.056  24.787  0.00  0.00    -0.265 NA
ENDROOT
BRANCH  13  12
ATOM     12  C   UNL     1      -1.297  -0.774  24.809  0.00  0.00    +0.027 C 
BRANCH  12  11
ATOM     11  C   UNL     1      -0.752  -0.643  24.204  0.00  0.00    +0.088 C 
BRANCH  11   9
ATOM      8  N   UNL     1      -0.535   0.746  24.459  0.00  0.00    -0.201 NA
ATOM      9  C   UNL     1      -0.245   0.005  24.239  0.00  0.00    +0.242 C 
ATOM     10  O   UNL     1       0.554  -0.086  24.053  0.00  0.00    -0.273 OA
BRANCH   8   7
ATOM      7  C   UNL     1      -0.027   1.396  24.494  0.00  0.00    +0.141 C 
BRANCH   7   6
ATOM      3  C   UNL     1      -0.893   3.609  25.183  0.00  0.00    +0.139 A 
ATOM      4  C   UNL     1      -0.958   3.367  24.396  0.00  0.00    +0.037 A 
ATOM      5  C   UNL     1      -0.670   2.629  24.167  0.00  0.00    +0.001 A 
ATOM      6  C   UNL     1      -0.316   2.133  24.723  0.00  0.00    -0.000 A 
ATOM     31  C   UNL     1      -0.250   2.375  25.509  0.00  0.00    +0.001 A 
ATOM     32  C   UNL     1      -0.538   3.113  25.739  0.00  0.00    +0.037 A 
BRANCH   3   2
ATOM      1  C   UNL     1      -1.012   5.015  24.957  0.00  0.00    +0.252 C 
ATOM      2  O   UNL     1      -1.181   4.347  25.412  0.00  0.00    -0.471 OA
ENDBRANCH   3   2
ENDBRANCH   7   6
ENDBRANCH   8   7
ENDBRANCH  11   9
ENDBRANCH  12  11
ENDBRANCH  13  12
BRANCH  20  23
ATOM     23  N   UNL     1      -4.389   0.196  25.151  0.00  0.00    -0.213 NA
BRANCH  23  24
ATOM     24  C   UNL     1      -4.412   0.875  24.683  0.00  0.00    +0.115 C 
BRANCH  24  25
ATOM     25  C   UNL     1      -4.789   1.554  24.961  0.00  0.00    -0.005 A 
ATOM     26  C   UNL     1      -4.370   2.263  25.020  0.00  0.00    -0.003 A 
ATOM     27  C   UNL     1      -4.746   2.943  25.298  0.00  0.00    -0.000 A 
ATOM     28  C   UNL     1      -5.541   2.914  25.517  0.00  0.00    -0.000 A 
ATOM     29  C   UNL     1      -5.960   2.205  25.458  0.00  0.00    -0.000 A 
ATOM     30  C   UNL     1      -5.583   1.526  25.180  0.00  0.00    -0.003 A 
ENDBRANCH  24  25
ENDBRANCH  23  24
ENDBRANCH  20  23
TORSDOF 9
ENDMDL
MODEL 4
REMARK VINA RESULT:     -11.4      1.355      3.846
REMARK  Name = 
REMARK  9 active torsions:
REMARK  status: ('A' for Active; 'I' for Inactive)
REMARK    1  A    between atoms: O_2  and  C_3
REMARK    2  A    between atoms: C_6  and  C_7
REMARK    3  A    between atoms: C_7  and  N_8
REMARK    4  A    between atoms: C_9  and  C_11
REMARK    5  A    between atoms: C_11  and  C_12
REMARK    6  A    between atoms: C_12  and  C_13
REMARK    7  A    between atoms: C_20  and  N_23
REMARK    8  A    between atoms: N_23  and  C_24
REMARK    9  A    between atoms: C_24  and  C_25
REMARK                            x       y       z     vdW  Elec       q    Type
REMARK                         _______ _______ _______ _____ _____    ______ ____
ROOT
ATOM     13  C   UNL     1      -1.262  -0.371  24.684  0.00  0.00    +0.080 C 
ATOM     14  C   UNL     1      -0.919  -1.056  24.377  0.00  0.00    +0.131 C 
ATOM     15  N   UNL     1      -0.207  -1.011  23.964  0.00  0.00    -0.203 NA
ATOM     16  C   UNL     1       0.164  -0.281  23.858  0.00  0.00    +0.256 C 
ATOM     17  O   UNL     1       0.876  -0.237  23.446  0.00  0.00    -0.272 OA
ATOM     18  C   UNL     1      -0.179   0.404  24.166  0.00  0.00    +0.138 C 
ATOM     19  C   UNL     1       0.056   1.194  24.149  0.00  0.00    +0.044 C 
ATOM     20  C   UNL     1      -0.512   1.638  24.552  0.00  0.00    +0.091 C 
ATOM     21  C   UNL     1      -1.097   1.121  24.817  0.00  0.00    +0.090 C 
ATOM     22  N   UNL     1      -0.892   0.358  24.579  0.00  0.00    -0.265 NA
ENDROOT
BRANCH  13  12
ATOM     12  C   UNL     1      -1.975  -0.417  25.097  0.00  0.00    +0.027 C 
BRANCH  12  11
ATOM     11  C   UNL     1      -2.621  -0.806  24.764  0.00  0.00    +0.088 C 
BRANCH  11   9
ATOM      8  N   UNL     1      -3.785   0.016  24.877  0.00  0.00    -0.201 NA
ATOM      9  C   UNL     1      -3.379  -0.678  25.062  0.00  0.00    +0.242 C 
ATOM     10  O   UNL     1      -3.732  -1.245  25.548  0.00  0.00    -0.273 OA
BRANCH   8   7
ATOM      7  C   UNL     1      -4.543   0.144  25.176  0.00  0.00    +0.141 C 
BRANCH   7   6
ATOM      3  C   UNL     1      -5.509   2.422  25.169  0.00  0.00    +0.139 A 
ATOM      4  C   UNL     1      -4.974   2.199  24.581  0.00  0.00    +0.037 A 
ATOM      5  C   UNL     1      -4.652   1.439  24.584  0.00  0.00    +0.001 A 
ATOM      6  C   UNL     1      -4.865   0.903  25.174  0.00  0.00    -0.000 A 
ATOM     31  C   UNL     1      -5.399   1.126  25.760  0.00  0.00    +0.001 A 
ATOM     32  C   UNL     1      -5.722   1.885  25.759  0.00  0.00    +0.037 A 
BRANCH   3   2
ATOM      1  C   UNL     1      -5.436   3.797  25.550  0.00  0.00    +0.252 C 
ATOM      2  O   UNL     1      -5.831   3.181  25.166  0.00  0.00    -0.471 OA
ENDBRANCH   3   2
ENDBRANCH   7   6
ENDBRANCH   8   7
ENDBRANCH  11   9
ENDBRANCH  12  11
ENDBRANCH  13  12
BRANCH  20  23
ATOM     23  N   UNL     1      -0.496   2.454  24.668  0.00  0.00    -0.213 NA
BRANCH  23  24
ATOM     24  C   UNL     1      -0.982   2.800  25.237  0.00  0.00    +0.115 C 
BRANCH  24  25
ATOM     25  C   UNL     1      -1.143   3.609  25.205  0.00  0.00    -0.005 A 
ATOM     26  C   UNL     1      -0.599   4.124  24.859  0.00  0.00    -0.003 A 
ATOM     27  C   UNL     1      -0.759   4.932  24.826  0.00  0.00    -0.000 A 
ATOM     28  C   UNL     1      -1.464   5.226  25.140  0.00  0.00    -0.000 A 
ATOM     29  C   UNL     1      -2.007   4.711  25.487  0.00  0.00    -0.000 A 
ATOM     30  C   UNL     1      -1.847   3.903  25.519  0.00  0.00    -0.003 A 
ENDBRANCH  24  25
ENDBRANCH  23  24
ENDBRANCH  20  23
TORSDOF 9
ENDMDL
MODEL 5
REMARK VINA RESULT:     -11.3      1.717      5.894
REMARK  Name = 
REMARK  9 active torsions:
REMARK  status: ('A' for Active; 'I' for Inactive)
REMARK    1  A    between atoms: O_2  and  C_3
REMARK    2  A    between atoms: C_6  and  C_7
REMARK    3  A    between atoms: C_7  and  N_8
REMARK    4  A    between atoms: C_9  and  C_11
REMARK    5  A    between atoms: C_11  and  C_12
REMARK    6  A    between atoms: C_12  and  C_13
REMARK    7  A    between atoms: C_20  and  N_23
REMARK    8  A    between atoms: N_23  and  C_24
REMARK    9  A    between atoms: C_24  and  C_25
REMARK                            x       y       z     vdW  Elec       q    Type
REMARK                         _______ _______ _______ _____ _____    ______ ____
ROOT
ATOM     13  C   UNL     1      -5.043   1.604  25.039  0.00  0.00    +0.080 C 
ATOM     14  C   UNL     1      -5.809   1.515  25.331  0.00  0.00    +0.131 C 
ATOM     15  N   UNL     1      -6.202   2.160  25.662  0.00  0.00    -0.203 NA
ATOM     16  C   UNL     1      -5.828   2.895  25.700  0.00  0.00    +0.256 C 
ATOM     17  O   UNL     1      -6.221   3.540  26.031  0.00  0.00    -0.272 OA
ATOM     18  C   UNL     1      -5.062   2.984  25.408  0.00  0.00    +0.138 C 
ATOM     19  C   UNL     1      -4.557   3.635  25.371  0.00  0.00    +0.044 C 
ATOM     20  C   UNL     1      -3.852   3.392  25.017  0.00  0.00    +0.091 C 
ATOM     21  C   UNL     1      -3.922   2.591  24.836  0.00  0.00    +0.090 C 
ATOM     22  N   UNL     1      -4.670   2.338  25.077  0.00  0.00    -0.265 NA
ENDROOT
BRANCH  13  12
ATOM     12  C   UNL     1      -4.650   0.957  24.708  0.00  0.00    +0.027 C 
BRANCH  12  11
ATOM     11  C   UNL     1      -4.584   0.254  25.132  0.00  0.00    +0.088 C 
BRANCH  11   9
ATOM      8  N   UNL     1      -3.340  -0.429  24.962  0.00  0.00    -0.201 NA
ATOM      9  C   UNL     1      -4.151  -0.376  24.821  0.00  0.00    +0.242 C 
ATOM     10  O   UNL     1      -4.529  -0.953  24.369  0.00  0.00    -0.273 OA
BRANCH   8   7
ATOM      7  C   UNL     1      -2.906  -1.058  24.651  0.00  0.00    +0.141 C 
BRANCH   7   6
ATOM      3  C   UNL     1      -0.455  -0.861  24.377  0.00  0.00    +0.139 A 
ATOM      4  C   UNL     1      -0.794  -1.596  24.538  0.00  0.00    +0.037 A 
ATOM      5  C   UNL     1      -1.611  -1.661  24.629  0.00  0.00    +0.001 A 
ATOM      6  C   UNL     1      -2.089  -0.992  24.560  0.00  0.00    -0.000 A 
ATOM     31  C   UNL     1      -1.750  -0.258  24.399  0.00  0.00    +0.001 A 
ATOM     32  C   UNL     1      -0.933  -0.192  24.308  0.00  0.00    +0.037 A 
BRANCH   3   2
ATOM      1  C   UNL     1       0.673  -0.339  23.672  0.00  0.00    +0.252 C 
ATOM      2  O   UNL     1       0.362  -0.795  24.286  0.00  0.00    -0.471 OA
ENDBRANCH   3   2
ENDBRANCH   7   6
ENDBRANCH   8   7
ENDBRANCH  11   9
ENDBRANCH  12  11
ENDBRANCH  13  12
BRANCH  20  23
ATOM     23  N   UNL     1      -3.195   3.868  24.871  0.00  0.00    -0.213 NA
BRANCH  23  24
ATOM     24  C   UNL     1      -2.578   3.900  25.418  0.00  0.00    +0.115 C 
BRANCH  24  25
ATOM     25  C   UNL     1      -1.857   4.241  25.207  0.00  0.00    -0.005 A 
ATOM     26  C   UNL     1      -1.784   5.062  25.172  0.00  0.00    -0.003 A 
ATOM     27  C   UNL     1      -1.064   5.404  24.961  0.00  0.00    -0.000 A 
ATOM     28  C   UNL     1      -0.415   4.924  24.785  0.00  0.00    -0.000 A 
ATOM     29  C   UNL     1      -0.488   4.103  24.820  0.00  0.00    -0.000 A 
ATOM     30  C   UNL     1      -1.210   3.762  25.031  0.00  0.00    -0.003 A 
ENDBRANCH  24  25
ENDBRANCH  23  24
ENDBRANCH  20  23
TORSDOF 9
ENDMDL
MODEL 6
REMARK VINA RESULT:     -11.1      1.411      4.109
REMARK  Name = 
REMARK  9 active torsions:
REMARK  status: ('A' for Active; 'I' for Inactive)
REMARK    1  A    between atoms: O_2  and  C_3
REMARK    2  A    between atoms: C_6  and  C_7
REMARK    3  A    between atoms: C_7  and  N_8
REMARK    4  A    between atoms: C_9  and  C_11
REMARK    5  A    between atoms: C_11  and  C_12
REMARK    6  A    between atoms: C_12  and  C_13
REMARK    7  A    between atoms: C_20  and  N_23
REMARK    8  A    between atoms: N_23  and  C_24
REMARK    9  A    between atoms: C_24  and  C_25
REMARK                            x       y       z     vdW  Elec       q    Type
REMARK                         _______ _______ _______ _____ _____    ______ ____
ROOT
ATOM     13  C   UNL     1      -3.061   3.393  24.732  0.00  0.00    +0.080 C 
ATOM     14  C   UNL     1      -3.269   4.114  25.074  0.00  0.00    +0.131 C 
ATOM     15  N   UNL     1      -2.683   4.646  25.307  0.00  0.00    -0.203 NA
ATOM     16  C   UNL     1      -1.887   4.456  25.196  0.00  0.00    +0.256 C 
ATOM     17  O   UNL     1      -1.301   4.988  25.428  0.00  0.00    -0.272 OA
ATOM     18  C   UNL     1      -1.679   3.735  24.853  0.00  0.00    +0.138 C 
ATOM     19  C   UNL     1      -0.946   3.400  24.676  0.00  0.00    +0.044 C 
ATOM     20  C   UNL     1      -1.080   2.660  24.334  0.00  0.00    +0.091 C 
ATOM     21  C   UNL     1      -1.896   2.540  24.301  0.00  0.00    +0.090 C 
ATOM     22  N   UNL     1      -2.266   3.204  24.621  0.00  0.00    -0.265 NA
ENDROOT
BRANCH  13  12
ATOM     12  C   UNL     1      -3.648   2.862  24.500  0.00  0.00    +0.027 C 
BRANCH  12  11
ATOM     11  C   UNL     1      -4.179   2.565  25.056  0.00  0.00    +0.088 C 
BRANCH  11   9
ATOM      8  N   UNL     1      -4.261   1.139  25.028  0.00  0.00    -0.201 NA
ATOM      9  C   UNL     1      -4.604   1.877  24.895  0.00  0.00    +0.242 C 
ATOM     10  O   UNL     1      -5.373   1.927  24.600  0.00  0.00    -0.273 OA
BRANCH   8   7
ATOM      7  C   UNL     1      -4.686   0.450  24.866  0.00  0.00    +0.141 C 
BRANCH   7   6
ATOM      3  C   UNL     1      -3.564  -1.753  24.977  0.00  0.00    +0.139 A 
ATOM      4  C   UNL     1      -3.558  -1.253  25.634  0.00  0.00    +0.037 A 
ATOM      5  C   UNL     1      -3.932  -0.519  25.597  0.00  0.00    +0.001 A 
ATOM      6  C   UNL     1      -4.312  -0.284  24.903  0.00  0.00    -0.000 A 
ATOM     31  C   UNL     1      -4.319  -0.783  24.247  0.00  0.00    +0.001 A 
ATOM     32  C   UNL     1      -3.945  -1.518  24.284  0.00  0.00    +0.037 A 
BRANCH   3   2
ATOM      1  C   UNL     1      -3.081  -2.930  24.326  0.00  0.00    +0.252 C 
ATOM      2  O   UNL     1      -3.190  -2.487  25.015  0.00  0.00    -0.471 OA
ENDBRANCH   3   2
ENDBRANCH   7   6
ENDBRANCH   8   7
ENDBRANCH  11   9
ENDBRANCH  12  11
ENDBRANCH  13  12
BRANCH  20  23
ATOM     23  N   UNL     1      -0.500   2.135  24.072  0.00  0.00    -0.213 NA
BRANCH  23  24
ATOM     24  C   UNL     1      -0.296   1.483  24.534  0.00  0.00    +0.115 C 
BRANCH  24  25
ATOM     25  C   UNL     1      -0.058   0.781  24.172  0.00  0.00    -0.005 A 
ATOM     26  C   UNL     1      -0.385   0.062  24.411  0.00  0.00    -0.003 A 
ATOM     27  C   UNL     1      -0.148  -0.640  24.049  0.00  0.00    -0.000 A 
ATOM     28  C   UNL     1       0.418  -0.624  23.448  0.00  0.00    -0.000 A 
ATOM     29  C   UNL     1       0.745   0.094  23.209  0.00  0.00    -0.000 A 
ATOM     30  C   UNL     1       0.507   0.797  23.571  0.00  0.00    -0.003 A 
ENDBRANCH  24  25
ENDBRANCH  23  24
ENDBRANCH  20  23
TORSDOF 9
ENDMDL
MODEL 7
REMARK VINA RESULT:     -11.0      1.358      4.291
REMARK  Name = 
REMARK  9 active torsions:
REMARK  status: ('A' for Active; 'I' for Inactive)
REMARK    1  A    between atoms: O_2  and  C_3
REMARK    2  A    between atoms: C_6  and  C_7
REMARK    3  A    between atoms: C_7  and  N_8
REMARK    4  A    between atoms: C_9  and  C_11
REMARK    5  A    between atoms: C_11  and  C_12
REMARK    6  A    between atoms: C_12  and  C_13
REMARK    7  A    between atoms: C_20  and  N_23
REMARK    8  A    between atoms: N_23  and  C_24
REMARK    9  A    between atoms: C_24  and  C_25
REMARK                            x       y       z     vdW  Elec       q    Type
REMARK                         _______ _______ _______ _____ _____    ______ ____
ROOT
ATOM     13  C   UNL     1      -0.924   3.083  24.468  0.00  0.00    +0.080 C 
ATOM     14  C   UNL     1      -0.296   3.611  24.547  0.00  0.00    +0.131 C 
ATOM     15  N   UNL     1      -0.432   4.378  24.818  0.00  0.00    -0.203 NA
ATOM     16  C   UNL     1      -1.199   4.617  25.010  0.00  0.00    +0.256 C 
ATOM     17  O   UNL     1      -1.336   5.384  25.281  0.00  0.00    -0.272 OA
ATOM     18  C   UNL     1      -1.828   4.088  24.931  0.00  0.00    +0.138 C 
ATOM     19  C   UNL     1      -2.636   4.166  25.077  0.00  0.00    +0.044 C 
ATOM     20  C   UNL     1      -2.998   3.447  24.895  0.00  0.00    +0.091 C 
ATOM     21  C   UNL     1      -2.413   2.926  24.638  0.00  0.00    +0.090 C 
ATOM     22  N   UNL     1      -1.690   3.321  24.660  0.00  0.00    -0.265 NA
ENDROOT
BRANCH  13  12
ATOM     12  C   UNL     1      -0.786   2.316  24.197  0.00  0.00    +0.027 C 
BRANCH  12  11
ATOM     11  C   UNL     1      -0.286   1.813  24.617  0.00  0.00    +0.088 C 
BRANCH  11   9
ATOM      8  N   UNL     1      -0.725   0.460  24.757  0.00  0.00    -0.201 NA
ATOM      9  C   UNL     1      -0.228   1.018  24.406  0.00  0.00    +0.242 C 
ATOM     10  O   UNL     1       0.327   0.780  23.844  0.00  0.00    -0.273 OA
BRANCH   8   7
ATOM      7  C   UNL     1      -0.667  -0.335  24.547  0.00  0.00    +0.141 C 
BRANCH   7   6
ATOM      3  C   UNL     1      -2.536  -1.884  25.030  0.00  0.00    +0.139 A 
ATOM      4  C   UNL     1      -1.900  -2.136  24.567  0.00  0.00    +0.037 A 
ATOM      5  C   UNL     1      -1.278  -1.619  24.406  0.00  0.00    +0.001 A 
ATOM      6  C   UNL     1      -1.290  -0.851  24.708  0.00  0.00    -0.000 A 
ATOM     31  C   UNL     1      -1.924  -0.600  25.170  0.00  0.00    +0.001 A 
ATOM     32  C   UNL     1      -2.548  -1.116  25.332  0.00  0.00    +0.037 A 
BRANCH   3   2
ATOM      1  C   UNL     1      -3.600  -2.720  24.571  0.00  0.00    +0.252 C 
ATOM      2  O   UNL     1      -3.158  -2.401  25.191  0.00  0.00    -0.471 OA
ENDBRANCH   3   2
ENDBRANCH   7   6
ENDBRANCH   8   7
ENDBRANCH  11   9
ENDBRANCH  12  11
ENDBRANCH  13  12
BRANCH  20  23
ATOM     23  N   UNL     1      -3.803   3.280  24.961  0.00  0.00    -0.213 NA
BRANCH  23  24
ATOM     24  C   UNL     1      -4.054   2.608  25.367  0.00  0.00    +0.115 C 
BRANCH  24  25
ATOM     25  C   UNL     1      -4.846   2.377  25.333  0.00  0.00    -0.005 A 
ATOM     26  C   UNL     1      -5.074   1.761  24.833  0.00  0.00    -0.003 A 
ATOM     27  C   UNL     1      -5.865   1.530  24.798  0.00  0.00    -0.000 A 
ATOM     28  C   UNL     1      -6.428   1.915  25.263  0.00  0.00    -0.000 A 
ATOM     29  C   UNL     1      -6.200   2.531  25.762  0.00  0.00    -0.000 A 
ATOM     30  C   UNL     1      -5.409   2.762  25.797  0.00  0.00    -0.003 A 
ENDBRANCH  24  25
ENDBRANCH  23  24
ENDBRANCH  20  23
TORSDOF 9
ENDMDL
MODEL 8
REMARK VINA RESULT:     -10.6      2.403      6.555
REMARK  Name = 
REMARK  9 active torsions:
REMARK  status: ('A' for Active; 'I' for Inactive)
REMARK    1  A    between atoms: O_2  and  C_3
REMARK    2  A    between atoms: C_6  and  C_7
REMARK    3  A    between atoms: C_7  and  N_8
REMARK    4  A    between atoms: C_9  and  C_11
REMARK    5  A    between atoms: C_11  and  C_12
REMARK    6  A    between atoms: C_12  and  C_13
REMARK    7  A    between atoms: C_20  and  N_23
REMARK    8  A    between atoms: N_23  and  C_24
REMARK    9  A    between atoms: C_24  and  C_25
REMARK                            x       y       z     vdW  Elec       q    Type
REMARK                         _______ _______ _______ _____ _____    ______ ____
ROOT
ATOM     13  C   UNL     1      -0.484  -0.124  24.207  0.00  0.00    +0.080 C 
ATOM     14  C   UNL     1      -0.549  -0.911  24.446  0.00  0.00    +0.131 C 
ATOM     15  N   UNL     1      -1.072  -1.117  25.050  0.00  0.00    -0.203 NA
ATOM     16  C   UNL     1      -1.530  -0.535  25.415  0.00  0.00    +0.256 C 
ATOM     17  O   UNL     1      -2.052  -0.741  26.020  0.00  0.00    -0.272 OA
ATOM     18  C   UNL     1      -1.465   0.252  25.176  0.00  0.00    +0.138 C 
ATOM     19  C   UNL     1      -1.842   0.939  25.432  0.00  0.00    +0.044 C 
ATOM     20  C   UNL     1      -1.552   1.570  24.985  0.00  0.00    +0.091 C 
ATOM     21  C   UNL     1      -0.997   1.271  24.454  0.00  0.00    +0.090 C 
ATOM     22  N   UNL     1      -0.942   0.456  24.571  0.00  0.00    -0.265 NA
ENDROOT
BRANCH  13  12
ATOM     12  C   UNL     1       0.038   0.081  23.602  0.00  0.00    +0.027 C 
BRANCH  12  11
ATOM     11  C   UNL     1       0.583  -0.471  23.323  0.00  0.00    +0.088 C 
BRANCH  11   9
ATOM      8  N   UNL     1       1.939  -0.120  23.039  0.00  0.00    -0.201 NA
ATOM      9  C   UNL     1       1.164  -0.242  22.784  0.00  0.00    +0.242 C 
ATOM     10  O   UNL     1       0.970  -0.134  21.990  0.00  0.00    -0.273 OA
BRANCH   8   7
ATOM      7  C   UNL     1       2.521   0.110  22.501  0.00  0.00    +0.141 C 
BRANCH   7   6
ATOM      3  C   UNL     1       4.871   0.342  23.239  0.00  0.00    +0.139 A 
ATOM      4  C   UNL     1       4.478  -0.378  23.333  0.00  0.00    +0.037 A 
ATOM      5  C   UNL     1       3.694  -0.454  23.087  0.00  0.00    +0.001 A 
ATOM      6  C   UNL     1       3.304   0.188  22.747  0.00  0.00    -0.000 A 
ATOM     31  C   UNL     1       3.696   0.906  22.653  0.00  0.00    +0.001 A 
ATOM     32  C   UNL     1       4.480   0.984  22.899  0.00  0.00    +0.037 A 
BRANCH   3   2
ATOM      1  C   UNL     1       5.924  -0.006  24.140  0.00  0.00    +0.252 C 
ATOM      2  O   UNL     1       5.654   0.419  23.485  0.00  0.00    -0.471 OA
ENDBRANCH   3   2
ENDBRANCH   7   6
ENDBRANCH   8   7
ENDBRANCH  11   9
ENDBRANCH  12  11
ENDBRANCH  13  12
BRANCH  20  23
ATOM     23  N   UNL     1      -1.780   2.360  25.058  0.00  0.00    -0.213 NA
BRANCH  23  24
ATOM     24  C   UNL     1      -1.287   2.897  25.444  0.00  0.00    +0.115 C 
BRANCH  24  25
ATOM     25  C   UNL     1      -1.415   3.708  25.358  0.00  0.00    -0.005 A 
ATOM     26  C   UNL     1      -0.826   4.186  25.036  0.00  0.00    -0.003 A 
ATOM     27  C   UNL     1      -0.952   4.997  24.950  0.00  0.00    -0.000 A 
ATOM     28  C   UNL     1      -1.670   5.329  25.187  0.00  0.00    -0.000 A 
ATOM     29  C   UNL     1      -2.260   4.851  25.510  0.00  0.00    -0.000 A 
ATOM     30  C   UNL     1      -2.132   4.040  25.595  0.00  0.00    -0.003 A 
ENDBRANCH  24  25
ENDBRANCH  23  24
ENDBRANCH  20  23
TORSDOF 9
ENDMDL
MODEL 9
REMARK VINA RESULT:     -10.2      1.436      3.971
REMARK  Name = 
REMARK  9 active torsions:
REMARK  status: ('A' for Active; 'I' for Inactive)
REMARK    1  A    between atoms: O_2  and  C_3
REMARK    2  A    between atoms: C_6  and  C_7
REMARK    3  A    between atoms: C_7  and  N_8
REMARK    4  A    between atoms: C_9  and  C_11
REMARK    5  A    between atoms: C_11  and  C_12
REMARK    6  A    between atoms: C_12  and  C_13
REMARK    7  A    between atoms: C_20  and  N_23
REMARK    8  A    between atoms: N_23  and  C_24
REMARK    9  A    between atoms: C_24  and  C_25
REMARK                            x       y       z     vdW  Elec       q    Type
REMARK                         _______ _______ _______ _____ _____    ______ ____
ROOT
ATOM     13  C   UNL     1      -3.974  -0.537  24.328  0.00  0.00    +0.080 C 
ATOM     14  C   UNL     1      -4.433  -1.222  24.298  0.00  0.00    +0.131 C 
ATOM     15  N   UNL     1      -4.077  -1.961  24.388  0.00  0.00    -0.203 NA
ATOM     16  C   UNL     1      -3.262  -2.014  24.507  0.00  0.00    +0.256 C 
ATOM     17  O   UNL     1      -2.906  -2.753  24.597  0.00  0.00    -0.272 OA
ATOM     18  C   UNL     1      -2.804  -1.329  24.537  0.00  0.00    +0.138 C 
ATOM     19  C   UNL     1      -1.995  -1.210  24.647  0.00  0.00    +0.044 C 
ATOM     20  C   UNL     1      -1.851  -0.398  24.625  0.00  0.00    +0.091 C 
ATOM     21  C   UNL     1      -2.571  -0.016  24.502  0.00  0.00    +0.090 C 
ATOM     22  N   UNL     1      -3.161  -0.591  24.447  0.00  0.00    -0.265 NA
ENDROOT
BRANCH  13  12
ATOM     12  C   UNL     1      -4.331   0.202  24.238  0.00  0.00    +0.027 C 
BRANCH  12  11
ATOM     11  C   UNL     1      -4.761   0.531  24.860  0.00  0.00    +0.088 C 
BRANCH  11   9
ATOM      8  N   UNL     1      -4.362   1.883  25.096  0.00  0.00    -0.201 NA
ATOM      9  C   UNL     1      -4.934   1.337  24.860  0.00  0.00    +0.242 C 
ATOM     10  O   UNL     1      -5.680   1.598  24.625  0.00  0.00    -0.273 OA
BRANCH   8   7
ATOM      7  C   UNL     1      -4.535   2.690  25.097  0.00  0.00    +0.141 C 
BRANCH   7   6
ATOM      3  C   UNL     1      -2.749   4.340  25.555  0.00  0.00    +0.139 A 
ATOM      4  C   UNL     1      -2.900   4.100  24.779  0.00  0.00    +0.037 A 
ATOM      5  C   UNL     1      -3.496   3.550  24.627  0.00  0.00    +0.001 A 
ATOM      6  C   UNL     1      -3.940   3.239  25.249  0.00  0.00    -0.000 A 
ATOM     31  C   UNL     1      -3.788   3.479  26.024  0.00  0.00    +0.001 A 
ATOM     32  C   UNL     1      -3.193   4.029  26.177  0.00  0.00    +0.037 A 
BRANCH   3   2
ATOM      1  C   UNL     1      -1.758   5.253  25.080  0.00  0.00    +0.252 C 
ATOM      2  O   UNL     1      -2.153   4.890  25.707  0.00  0.00    -0.471 OA
ENDBRANCH   3   2
ENDBRANCH   7   6
ENDBRANCH   8   7
ENDBRANCH  11   9
ENDBRANCH  12  11
ENDBRANCH  13  12
BRANCH  20  23
ATOM     23  N   UNL     1      -1.116  -0.034  24.711  0.00  0.00    -0.213 NA
BRANCH  23  24
ATOM     24  C   UNL     1      -0.971   0.456  25.358  0.00  0.00    +0.115 C 
BRANCH  24  25
ATOM     25  C   UNL     1      -0.500   1.128  25.270  0.00  0.00    -0.005 A 
ATOM     26  C   UNL     1      -0.340   1.608  25.922  0.00  0.00    -0.003 A 
ATOM     27  C   UNL     1       0.131   2.280  25.834  0.00  0.00    -0.000 A 
ATOM     28  C   UNL     1       0.442   2.472  25.094  0.00  0.00    -0.000 A 
ATOM     29  C   UNL     1       0.281   1.992  24.442  0.00  0.00    -0.000 A 
ATOM     30  C   UNL     1      -0.190   1.320  24.531  0.00  0.00    -0.003 A 
ENDBRANCH  24  25
ENDBRANCH  23  24
ENDBRANCH  20  23
TORSDOF 9
ENDMDL
