REMARK  Name = 
REMARK  8 active torsions:
REMARK  status: ('A' for Active; 'I' for Inactive)
REMARK    1  A    between atoms: C_2  and  C_4
REMARK    2  A    between atoms: C_6  and  C_7
REMARK    3  A    between atoms: C_7  and  C_8
REMARK    4  A    between atoms: C_18  and  C_19
REMARK    5  A    between atoms: C_19  and  N_20
REMARK    6  A    between atoms: N_20  and  S_21
REMARK    7  A    between atoms: S_21  and  C_24
REMARK    8  A    between atoms: C_24  and  C_25
REMARK                            x       y       z     vdW  Elec       q    Type
REMARK                         _______ _______ _______ _____ _____    ______ ____
ROOT
ATOM      4  C   UNL     1       7.753  -2.124   0.000  0.00  0.00    +0.006 C 
ATOM      5  C   UNL     1       7.753  -2.949   0.000  0.00  0.00    +0.005 C 
ATOM      6  C   UNL     1       7.038  -3.362   0.000  0.00  0.00    +0.027 C 
ATOM     15  C   UNL     1       6.324  -2.949   0.000  0.00  0.00    -0.048 C 
ATOM     16  C   UNL     1       5.609  -3.362   0.000  0.00  0.00    +0.026 C 
ATOM     17  C   UNL     1       6.324  -2.124   0.000  0.00  0.00    -0.033 C 
ATOM     18  C   UNL     1       7.038  -1.712   0.000  0.00  0.00    +0.041 C 
ENDROOT
BRANCH   4   2
ATOM      1  C   UNL     1       8.467  -0.887   0.000  0.00  0.00    +0.000 C 
ATOM      2  C   UNL     1       8.467  -1.712   0.000  0.00  0.00    +0.000 C 
ATOM      3  C   UNL     1       9.181  -2.124   0.000  0.00  0.00    +0.000 C 
ENDBRANCH   4   2
BRANCH   6   7
ATOM      7  C   UNL     1       7.038  -4.187   0.000  0.00  0.00    +0.089 C 
BRANCH   7   8
ATOM      8  C   UNL     1       6.324  -4.599   0.000  0.00  0.00    +0.226 C 
ATOM      9  O   UNL     1       5.609  -4.187   0.000  0.00  0.00    -0.275 OA
ATOM     10  N   UNL     1       6.324  -5.424   0.000  0.00  0.00    -0.280 N 
ATOM     11  C   UNL     1       6.991  -5.909   0.000  0.00  0.00    +0.093 C 
ATOM     12  C   UNL     1       6.736  -6.694   0.000  0.00  0.00    +0.023 C 
ATOM     13  C   UNL     1       5.911  -6.694   0.000  0.00  0.00    +0.023 C 
ATOM     14  C   UNL     1       5.656  -5.909   0.000  0.00  0.00    +0.093 C 
ENDBRANCH   7   8
ENDBRANCH   6   7
BRANCH  18  19
ATOM     19  C   UNL     1       7.038  -0.887   0.000  0.00  0.00    +0.119 C 
BRANCH  19  20
ATOM     20  N   UNL     1       7.753  -0.474   0.000  0.00  0.00    -0.081 NA
BRANCH  20  21
ATOM     21  S   UNL     1       7.753   0.351   0.000  0.00  0.00    +0.062 S 
ATOM     22  O   UNL     1       8.578   0.351   0.000  0.00  0.00    -0.156 OA
ATOM     23  O   UNL     1       6.928   0.351   0.000  0.00  0.00    -0.156 OA
BRANCH  21  24
ATOM     24  C   UNL     1       7.753   1.176   0.000  0.00  0.00    +0.197 C 
BRANCH  24  25
ATOM     25  C   UNL     1       8.467   1.588   0.000  0.00  0.00    +0.003 A 
ATOM     26  C   UNL     1       8.467   2.413   0.000  0.00  0.00    -0.003 A 
ATOM     27  C   UNL     1       9.181   2.826   0.000  0.00  0.00    -0.000 A 
ATOM     28  C   UNL     1       9.896   2.413   0.000  0.00  0.00    -0.000 A 
ATOM     29  C   UNL     1       9.896   1.588   0.000  0.00  0.00    -0.000 A 
ATOM     30  C   UNL     1       9.181   1.176   0.000  0.00  0.00    -0.003 A 
ENDBRANCH  24  25
ENDBRANCH  21  24
ENDBRANCH  20  21
ENDBRANCH  19  20
ENDBRANCH  18  19
TORSDOF 8
