MODEL 1
REMARK VINA RESULT:     -12.3      0.000      0.000
REMARK  Name = 
REMARK  5 active torsions:
REMARK  status: ('A' for Active; 'I' for Inactive)
REMARK    1  A    between atoms: N_4  and  C_5
REMARK    2  A    between atoms: C_5  and  C_6
REMARK    3  A    between atoms: C_14  and  C_15
REMARK    4  A    between atoms: C_17  and  N_18
REMARK    5  A    between atoms: N_21  and  C_22
REMARK                            x       y       z     vdW  Elec       q    Type
REMARK                         _______ _______ _______ _____ _____    ______ ____
ROOT
ATOM     15  C   UNL     1      -4.319   1.758  24.764  0.00  0.00    +0.048 C 
ATOM     16  C   UNL     1      -3.763   2.150  25.230  0.00  0.00    +0.035 C 
ATOM     17  C   UNL     1      -3.935   2.956  25.209  0.00  0.00    +0.119 C 
ATOM     28  C   UNL     1      -4.598   3.063  24.730  0.00  0.00    -0.009 C 
ATOM     29  C   UNL     1      -4.836   2.322  24.455  0.00  0.00    -0.025 C 
ENDROOT
BRANCH  15  14
ATOM      1  C   UNL     1      -5.372   0.589  25.629  0.00  0.00    +0.054 C 
ATOM      2  C   UNL     1      -4.838   0.408  25.028  0.00  0.00    +0.076 A 
ATOM      3  N   UNL     1      -4.693  -0.343  24.718  0.00  0.00    -0.174 NA
ATOM      4  N   UNL     1      -4.120  -0.270  24.129  0.00  0.00    -0.251 N 
ATOM     12  C   UNL     1      -3.910   0.526  24.075  0.00  0.00    +0.054 A 
ATOM     13  C   UNL     1      -3.354   0.847  23.556  0.00  0.00    +0.051 C 
ATOM     14  C   UNL     1      -4.354   0.945  24.631  0.00  0.00    +0.010 A 
BRANCH   4   5
ATOM      5  C   UNL     1      -3.810  -0.885  23.674  0.00  0.00    +0.153 C 
BRANCH   5   6
ATOM      6  C   UNL     1      -3.652  -1.615  24.022  0.00  0.00    +0.002 A 
ATOM      7  C   UNL     1      -2.977  -1.714  24.486  0.00  0.00    -0.002 A 
ATOM      8  C   UNL     1      -2.818  -2.445  24.835  0.00  0.00    -0.000 A 
ATOM      9  C   UNL     1      -3.336  -3.077  24.719  0.00  0.00    -0.000 A 
ATOM     10  C   UNL     1      -4.011  -2.979  24.255  0.00  0.00    -0.000 A 
ATOM     11  C   UNL     1      -4.169  -2.248  23.907  0.00  0.00    -0.002 A 
ENDBRANCH   5   6
ENDBRANCH   4   5
ENDBRANCH  15  14
BRANCH  17  18
ATOM     18  N   UNL     1      -3.518   3.552  25.599  0.00  0.00    -0.184 NA
ATOM     19  C   UNL     1      -2.831   3.863  25.264  0.00  0.00    +0.344 C 
ATOM     20  O   UNL     1      -2.560   3.576  24.539  0.00  0.00    -0.249 OA
ATOM     21  N   UNL     1      -2.414   4.459  25.654  0.00  0.00    -0.161 NA
BRANCH  21  22
ATOM     22  C   UNL     1      -1.727   4.769  25.319  0.00  0.00    +0.075 A 
ATOM     23  C   UNL     1      -1.711   5.553  25.065  0.00  0.00    +0.017 A 
ATOM     24  C   UNL     1      -1.023   5.864  24.730  0.00  0.00    +0.001 A 
ATOM     25  C   UNL     1      -0.353   5.390  24.649  0.00  0.00    +0.000 A 
ATOM     26  C   UNL     1      -0.370   4.605  24.903  0.00  0.00    +0.001 A 
ATOM     27  C   UNL     1      -1.057   4.294  25.238  0.00  0.00    +0.017 A 
ENDBRANCH  21  22
ENDBRANCH  17  18
TORSDOF 5
ENDMDL
MODEL 2
REMARK VINA RESULT:     -12.2      1.079      5.684
REMARK  Name = 
REMARK  5 active torsions:
REMARK  status: ('A' for Active; 'I' for Inactive)
REMARK    1  A    between atoms: N_4  and  C_5
REMARK    2  A    between atoms: C_5  and  C_6
REMARK    3  A    between atoms: C_14  and  C_15
REMARK    4  A    between atoms: C_17  and  N_18
REMARK    5  A    between atoms: N_21  and  C_22
REMARK                            x       y       z     vdW  Elec       q    Type
REMARK                         _______ _______ _______ _____ _____    ______ ____
ROOT
ATOM     15  C   UNL     1      -4.298   2.164  24.851  0.00  0.00    +0.048 C 
ATOM     16  C   UNL     1      -4.045   1.439  25.152  0.00  0.00    +0.035 C 
ATOM     17  C   UNL     1      -4.682   0.917  25.134  0.00  0.00    +0.119 C 
ATOM     28  C   UNL     1      -5.332   1.319  24.821  0.00  0.00    -0.009 C 
ATOM     29  C   UNL     1      -5.094   2.090  24.646  0.00  0.00    -0.025 C 
ENDROOT
BRANCH  15  14
ATOM      1  C   UNL     1      -3.834   2.943  23.302  0.00  0.00    +0.054 C 
ATOM      2  C   UNL     1      -3.625   3.201  24.056  0.00  0.00    +0.076 A 
ATOM      3  N   UNL     1      -3.166   3.864  24.231  0.00  0.00    -0.174 NA
ATOM      4  N   UNL     1      -3.095   3.915  25.052  0.00  0.00    -0.251 N 
ATOM     12  C   UNL     1      -3.511   3.284  25.384  0.00  0.00    +0.054 A 
ATOM     13  C   UNL     1      -3.586   3.123  26.190  0.00  0.00    +0.051 C 
ATOM     14  C   UNL     1      -3.838   2.843  24.768  0.00  0.00    +0.010 A 
BRANCH   4   5
ATOM      5  C   UNL     1      -2.681   4.495  25.468  0.00  0.00    +0.153 C 
BRANCH   5   6
ATOM      6  C   UNL     1      -1.913   4.694  25.244  0.00  0.00    +0.002 A 
ATOM      7  C   UNL     1      -1.304   4.144  25.322  0.00  0.00    -0.002 A 
ATOM      8  C   UNL     1      -0.535   4.343  25.097  0.00  0.00    -0.000 A 
ATOM      9  C   UNL     1      -0.377   5.094  24.793  0.00  0.00    -0.000 A 
ATOM     10  C   UNL     1      -0.986   5.645  24.714  0.00  0.00    -0.000 A 
ATOM     11  C   UNL     1      -1.754   5.445  24.940  0.00  0.00    -0.002 A 
ENDBRANCH   5   6
ENDBRANCH   4   5
ENDBRANCH  15  14
BRANCH  17  18
ATOM     18  N   UNL     1      -4.674   0.131  25.385  0.00  0.00    -0.184 NA
ATOM     19  C   UNL     1      -4.183  -0.416  25.012  0.00  0.00    +0.344 C 
ATOM     20  O   UNL     1      -3.699  -0.178  24.388  0.00  0.00    -0.249 OA
ATOM     21  N   UNL     1      -4.176  -1.203  25.263  0.00  0.00    -0.161 NA
BRANCH  21  22
ATOM     22  C   UNL     1      -3.684  -1.750  24.891  0.00  0.00    +0.075 A 
ATOM     23  C   UNL     1      -2.897  -1.824  25.125  0.00  0.00    +0.017 A 
ATOM     24  C   UNL     1      -2.406  -2.372  24.752  0.00  0.00    +0.001 A 
ATOM     25  C   UNL     1      -2.701  -2.846  24.145  0.00  0.00    +0.000 A 
ATOM     26  C   UNL     1      -3.489  -2.771  23.910  0.00  0.00    +0.001 A 
ATOM     27  C   UNL     1      -3.980  -2.224  24.283  0.00  0.00    +0.017 A 
ENDBRANCH  21  22
ENDBRANCH  17  18
TORSDOF 5
ENDMDL
MODEL 3
REMARK VINA RESULT:     -11.5      1.869      2.694
REMARK  Name = 
REMARK  5 active torsions:
REMARK  status: ('A' for Active; 'I' for Inactive)
REMARK    1  A    between atoms: N_4  and  C_5
REMARK    2  A    between atoms: C_5  and  C_6
REMARK    3  A    between atoms: C_14  and  C_15
REMARK    4  A    between atoms: C_17  and  N_18
REMARK    5  A    between atoms: N_21  and  C_22
REMARK                            x       y       z     vdW  Elec       q    Type
REMARK                         _______ _______ _______ _____ _____    ______ ____
ROOT
ATOM     15  C   UNL     1      -0.973   0.302  24.871  0.00  0.00    +0.048 C 
ATOM     16  C   UNL     1      -0.908   0.947  25.380  0.00  0.00    +0.035 C 
ATOM     17  C   UNL     1      -0.412   1.503  25.027  0.00  0.00    +0.119 C 
ATOM     28  C   UNL     1      -0.170   1.201  24.298  0.00  0.00    -0.009 C 
ATOM     29  C   UNL     1      -0.517   0.458  24.202  0.00  0.00    -0.025 C 
ENDROOT
BRANCH  15  14
ATOM      1  C   UNL     1      -0.331  -1.371  24.972  0.00  0.00    +0.054 C 
ATOM      2  C   UNL     1      -1.121  -1.150  25.052  0.00  0.00    +0.076 A 
ATOM      3  N   UNL     1      -1.755  -1.658  25.194  0.00  0.00    -0.174 NA
ATOM      4  N   UNL     1      -2.442  -1.203  25.234  0.00  0.00    -0.251 N 
ATOM     12  C   UNL     1      -2.233  -0.414  25.119  0.00  0.00    +0.054 A 
ATOM     13  C   UNL     1      -2.750   0.230  25.116  0.00  0.00    +0.051 C 
ATOM     14  C   UNL     1      -1.416  -0.381  25.006  0.00  0.00    +0.010 A 
BRANCH   4   5
ATOM      5  C   UNL     1      -3.205  -1.488  25.368  0.00  0.00    +0.153 C 
BRANCH   5   6
ATOM      6  C   UNL     1      -3.558  -1.992  24.819  0.00  0.00    +0.002 A 
ATOM      7  C   UNL     1      -4.035  -1.683  24.220  0.00  0.00    -0.002 A 
ATOM      8  C   UNL     1      -4.388  -2.187  23.671  0.00  0.00    -0.000 A 
ATOM      9  C   UNL     1      -4.264  -3.001  23.720  0.00  0.00    -0.000 A 
ATOM     10  C   UNL     1      -3.788  -3.311  24.318  0.00  0.00    -0.000 A 
ATOM     11  C   UNL     1      -3.435  -2.806  24.868  0.00  0.00    -0.002 A 
ENDBRANCH   5   6
ENDBRANCH   4   5
ENDBRANCH  15  14
BRANCH  17  18
ATOM     18  N   UNL     1      -0.196   2.233  25.344  0.00  0.00    -0.184 NA
ATOM     19  C   UNL     1      -0.629   2.910  25.158  0.00  0.00    +0.344 C 
ATOM     20  O   UNL     1      -1.280   2.857  24.654  0.00  0.00    -0.249 OA
ATOM     21  N   UNL     1      -0.412   3.640  25.477  0.00  0.00    -0.161 NA
BRANCH  21  22
ATOM     22  C   UNL     1      -0.845   4.316  25.291  0.00  0.00    +0.075 A 
ATOM     23  C   UNL     1      -1.607   4.413  25.590  0.00  0.00    +0.017 A 
ATOM     24  C   UNL     1      -2.041   5.089  25.404  0.00  0.00    +0.001 A 
ATOM     25  C   UNL     1      -1.712   5.670  24.919  0.00  0.00    +0.000 A 
ATOM     26  C   UNL     1      -0.949   5.573  24.619  0.00  0.00    +0.001 A 
ATOM     27  C   UNL     1      -0.516   4.896  24.805  0.00  0.00    +0.017 A 
ENDBRANCH  21  22
ENDBRANCH  17  18
TORSDOF 5
ENDMDL
MODEL 4
REMARK VINA RESULT:     -11.1      2.421      6.371
REMARK  Name = 
REMARK  5 active torsions:
REMARK  status: ('A' for Active; 'I' for Inactive)
REMARK    1  A    between atoms: N_4  and  C_5
REMARK    2  A    between atoms: C_5  and  C_6
REMARK    3  A    between atoms: C_14  and  C_15
REMARK    4  A    between atoms: C_17  and  N_18
REMARK    5  A    between atoms: N_21  and  C_22
REMARK                            x       y       z     vdW  Elec       q    Type
REMARK                         _______ _______ _______ _____ _____    ______ ____
ROOT
ATOM     15  C   UNL     1      -0.370   0.972  24.234  0.00  0.00    +0.048 C 
ATOM     16  C   UNL     1      -0.746   0.363  24.645  0.00  0.00    +0.035 C 
ATOM     17  C   UNL     1      -0.416  -0.352  24.403  0.00  0.00    +0.119 C 
ATOM     28  C   UNL     1       0.166  -0.186  23.841  0.00  0.00    -0.009 C 
ATOM     29  C   UNL     1       0.194   0.632  23.737  0.00  0.00    -0.025 C 
ENDROOT
BRANCH  15  14
ATOM      1  C   UNL     1      -1.285   1.977  23.062  0.00  0.00    +0.054 C 
ATOM      2  C   UNL     1      -0.950   2.240  23.767  0.00  0.00    +0.076 A 
ATOM      3  N   UNL     1      -0.976   3.011  24.059  0.00  0.00    -0.174 NA
ATOM      4  N   UNL     1      -0.571   3.026  24.778  0.00  0.00    -0.251 N 
ATOM     12  C   UNL     1      -0.295   2.263  24.931  0.00  0.00    +0.054 A 
ATOM     13  C   UNL     1       0.139   2.028  25.593  0.00  0.00    +0.051 C 
ATOM     14  C   UNL     1      -0.529   1.777  24.306  0.00  0.00    +0.010 A 
BRANCH   4   5
ATOM      5  C   UNL     1      -0.461   3.687  25.260  0.00  0.00    +0.153 C 
BRANCH   5   6
ATOM      6  C   UNL     1      -1.027   4.286  25.271  0.00  0.00    +0.002 A 
ATOM      7  C   UNL     1      -1.749   4.167  25.651  0.00  0.00    -0.002 A 
ATOM      8  C   UNL     1      -2.316   4.768  25.661  0.00  0.00    -0.000 A 
ATOM      9  C   UNL     1      -2.158   5.488  25.291  0.00  0.00    -0.000 A 
ATOM     10  C   UNL     1      -1.436   5.608  24.910  0.00  0.00    -0.000 A 
ATOM     11  C   UNL     1      -0.870   5.007  24.900  0.00  0.00    -0.002 A 
ENDBRANCH   5   6
ENDBRANCH   4   5
ENDBRANCH  15  14
BRANCH  17  18
ATOM     18  N   UNL     1      -0.628  -1.102  24.674  0.00  0.00    -0.184 NA
ATOM     19  C   UNL     1      -1.398  -1.377  24.567  0.00  0.00    +0.344 C 
ATOM     20  O   UNL     1      -1.957  -0.902  24.190  0.00  0.00    -0.249 OA
ATOM     21  N   UNL     1      -1.609  -2.128  24.838  0.00  0.00    -0.161 NA
BRANCH  21  22
ATOM     22  C   UNL     1      -2.379  -2.403  24.732  0.00  0.00    +0.075 A 
ATOM     23  C   UNL     1      -2.560  -2.882  24.085  0.00  0.00    +0.017 A 
ATOM     24  C   UNL     1      -3.330  -3.157  23.979  0.00  0.00    +0.001 A 
ATOM     25  C   UNL     1      -3.920  -2.954  24.519  0.00  0.00    +0.000 A 
ATOM     26  C   UNL     1      -3.738  -2.475  25.166  0.00  0.00    +0.001 A 
ATOM     27  C   UNL     1      -2.968  -2.200  25.272  0.00  0.00    +0.017 A 
ENDBRANCH  21  22
ENDBRANCH  17  18
TORSDOF 5
ENDMDL
MODEL 5
REMARK VINA RESULT:     -10.2      3.840      5.328
REMARK  Name = 
REMARK  5 active torsions:
REMARK  status: ('A' for Active; 'I' for Inactive)
REMARK    1  A    between atoms: N_4  and  C_5
REMARK    2  A    between atoms: C_5  and  C_6
REMARK    3  A    between atoms: C_14  and  C_15
REMARK    4  A    between atoms: C_17  and  N_18
REMARK    5  A    between atoms: N_21  and  C_22
REMARK                            x       y       z     vdW  Elec       q    Type
REMARK                         _______ _______ _______ _____ _____    ______ ____
ROOT
ATOM     15  C   UNL     1      -0.901   0.879  24.058  0.00  0.00    +0.048 C 
ATOM     16  C   UNL     1      -0.378   0.893  23.420  0.00  0.00    +0.035 C 
ATOM     17  C   UNL     1       0.087   0.214  23.455  0.00  0.00    +0.119 C 
ATOM     28  C   UNL     1      -0.148  -0.222  24.115  0.00  0.00    -0.009 C 
ATOM     29  C   UNL     1      -0.758   0.189  24.488  0.00  0.00    -0.025 C 
ENDROOT
BRANCH  15  14
ATOM      1  C   UNL     1      -0.884   1.974  25.480  0.00  0.00    +0.054 C 
ATOM      2  C   UNL     1      -1.459   1.955  24.890  0.00  0.00    +0.076 A 
ATOM      3  N   UNL     1      -2.127   2.436  24.849  0.00  0.00    -0.174 NA
ATOM      4  N   UNL     1      -2.549   2.230  24.170  0.00  0.00    -0.251 N 
ATOM     12  C   UNL     1      -2.141   1.621  23.791  0.00  0.00    +0.054 A 
ATOM     13  C   UNL     1      -2.367   1.248  23.090  0.00  0.00    +0.051 C 
ATOM     14  C   UNL     1      -1.467   1.451  24.236  0.00  0.00    +0.010 A 
BRANCH   4   5
ATOM      5  C   UNL     1      -3.255   2.572  23.914  0.00  0.00    +0.153 C 
BRANCH   5   6
ATOM      6  C   UNL     1      -3.845   2.756  24.461  0.00  0.00    +0.002 A 
ATOM      7  C   UNL     1      -4.392   2.183  24.688  0.00  0.00    -0.002 A 
ATOM      8  C   UNL     1      -4.982   2.368  25.235  0.00  0.00    -0.000 A 
ATOM      9  C   UNL     1      -5.023   3.127  25.555  0.00  0.00    -0.000 A 
ATOM     10  C   UNL     1      -4.476   3.701  25.329  0.00  0.00    -0.000 A 
ATOM     11  C   UNL     1      -3.886   3.516  24.782  0.00  0.00    -0.002 A 
ENDBRANCH   5   6
ENDBRANCH   4   5
ENDBRANCH  15  14
BRANCH  17  18
ATOM     18  N   UNL     1       0.683   0.005  22.923  0.00  0.00    -0.184 NA
ATOM     19  C   UNL     1       1.468   0.197  23.087  0.00  0.00    +0.344 C 
ATOM     20  O   UNL     1       1.658   0.598  23.782  0.00  0.00    -0.249 OA
ATOM     21  N   UNL     1       2.063  -0.012  22.555  0.00  0.00    -0.161 NA
BRANCH  21  22
ATOM     22  C   UNL     1       2.849   0.180  22.718  0.00  0.00    +0.075 A 
ATOM     23  C   UNL     1       3.138   0.929  22.529  0.00  0.00    +0.017 A 
ATOM     24  C   UNL     1       3.923   1.121  22.693  0.00  0.00    +0.001 A 
ATOM     25  C   UNL     1       4.420   0.564  23.046  0.00  0.00    +0.000 A 
ATOM     26  C   UNL     1       4.130  -0.185  23.235  0.00  0.00    +0.001 A 
ATOM     27  C   UNL     1       3.345  -0.377  23.071  0.00  0.00    +0.017 A 
ENDBRANCH  21  22
ENDBRANCH  17  18
TORSDOF 5
ENDMDL
