REMARK  Name = 
REMARK  7 active torsions:
REMARK  status: ('A' for Active; 'I' for Inactive)
REMARK    1  A    between atoms: C_2  and  C_3
REMARK    2  A    between atoms: C_3  and  C_4
REMARK    3  A    between atoms: C_4  and  C_5
REMARK    4  A    between atoms: C_5  and  C_6
REMARK    5  A    between atoms: C_15  and  C_17
REMARK    6  A    between atoms: C_25  and  C_26
REMARK    7  A    between atoms: C_26  and  C_27
REMARK                            x       y       z     vdW  Elec       q    Type
REMARK                         _______ _______ _______ _____ _____    ______ ____
ROOT
ATOM      6  C   UNL     1       4.977  -5.703   0.000  0.00  0.00    +0.247 C 
ATOM      7  O   UNL     1       4.977  -4.878   0.000  0.00  0.00    -0.273 OA
ATOM      8  N   UNL     1       5.691  -6.116   0.000  0.00  0.00    -0.154 NA
ATOM      9  C   UNL     1       6.406  -5.703   0.000  0.00  0.00    +0.185 A 
ATOM     10  N   UNL     1       7.160  -6.039   0.000  0.00  0.00    -0.227 NA
ATOM     11  C   UNL     1       7.712  -5.426   0.000  0.00  0.00    +0.063 A 
ATOM     12  C   UNL     1       7.299  -4.711   0.000  0.00  0.00    +0.023 A 
ATOM     13  C   UNL     1       7.712  -3.997   0.000  0.00  0.00    +0.034 C 
ATOM     14  C   UNL     1       8.537  -3.997   0.000  0.00  0.00    +0.010 C 
ATOM     15  C   UNL     1       8.949  -3.282   0.000  0.00  0.00    +0.059 C 
ATOM     16  C   UNL     1       8.174  -3.000   0.000  0.00  0.00    +0.005 C 
ATOM     19  C   UNL     1       9.774  -3.282   0.000  0.00  0.00    +0.154 C 
ATOM     20  O   UNL     1      10.187  -2.568   0.000  0.00  0.00    -0.223 OA
ATOM     21  C   UNL     1      10.187  -3.997   0.000  0.00  0.00    +0.033 C 
ATOM     22  C   UNL     1       9.774  -4.711   0.000  0.00  0.00    +0.003 C 
ATOM     23  C   UNL     1       8.949  -4.711   0.000  0.00  0.00    +0.006 C 
ATOM     24  C   UNL     1       9.361  -5.426   0.000  0.00  0.00    +0.000 C 
ATOM     25  C   UNL     1       8.537  -5.426   0.000  0.00  0.00    +0.050 C 
ATOM     36  S   UNL     1       6.492  -4.883   0.000  0.00  0.00    -0.054 S 
ENDROOT
BRANCH  15  17
ATOM     17  C   UNL     1       9.092  -2.470   0.000  0.00  0.00    +0.184 C 
ATOM     18  O   UNL     1       9.867  -2.188   0.000  0.00  0.00    -0.220 OA
ENDBRANCH  15  17
BRANCH   6   5
ATOM      5  C   UNL     1       4.262  -6.116   0.000  0.00  0.00    +0.087 C 
BRANCH   5   4
ATOM      4  C   UNL     1       3.548  -5.703   0.000  0.00  0.00    +0.010 C 
BRANCH   4   3
ATOM      3  C   UNL     1       2.833  -6.116   0.000  0.00  0.00    +0.001 C 
BRANCH   3   2
ATOM      1  C   UNL     1       1.405  -6.116   0.000  0.00  0.00    +0.000 C 
ATOM      2  C   UNL     1       2.119  -5.703   0.000  0.00  0.00    +0.000 C 
ENDBRANCH   3   2
ENDBRANCH   4   3
ENDBRANCH   5   4
ENDBRANCH   6   5
BRANCH  25  26
ATOM     26  C   UNL     1       8.949  -6.140   0.000  0.00  0.00    +0.091 C 
BRANCH  26  27
ATOM     27  C   UNL     1       9.774  -6.140   0.000  0.00  0.00    +0.226 C 
ATOM     28  O   UNL     1      10.187  -5.426   0.000  0.00  0.00    -0.275 OA
ATOM     29  N   UNL     1      10.187  -6.854   0.000  0.00  0.00    -0.280 N 
ATOM     30  C   UNL     1      11.011  -6.854   0.000  0.00  0.00    +0.093 C 
ATOM     31  C   UNL     1      11.424  -7.569   0.000  0.00  0.00    +0.022 C 
ATOM     32  C   UNL     1      11.011  -8.283   0.000  0.00  0.00    +0.003 C 
ATOM     33  C   UNL     1      11.424  -8.998   0.000  0.00  0.00    +0.000 C 
ATOM     34  C   UNL     1      10.187  -8.283   0.000  0.00  0.00    +0.022 C 
ATOM     35  C   UNL     1       9.774  -7.569   0.000  0.00  0.00    +0.093 C 
ENDBRANCH  26  27
ENDBRANCH  25  26
TORSDOF 7
