MODEL 1
REMARK VINA RESULT:     -16.4      0.000      0.000
REMARK  Name = 
REMARK  4 active torsions:
REMARK  status: ('A' for Active; 'I' for Inactive)
REMARK    1  A    between atoms: O_2  and  C_3
REMARK    2  A    between atoms: C_6  and  N_7
REMARK    3  A    between atoms: C_19  and  N_20
REMARK    4  A    between atoms: N_23  and  C_24
REMARK                            x       y       z     vdW  Elec       q    Type
REMARK                         _______ _______ _______ _____ _____    ______ ____
ROOT
ATOM      7  N   UNL     1      -3.281   2.305  24.764  0.00  0.00    -0.162 NA
ATOM      8  C   UNL     1      -3.209   3.124  24.837  0.00  0.00    +0.327 C 
ATOM      9  O   UNL     1      -2.492   3.493  24.665  0.00  0.00    -0.250 OA
ATOM     10  N   UNL     1      -3.856   3.575  25.083  0.00  0.00    -0.262 N 
ATOM     11  C   UNL     1      -4.299   4.250  25.294  0.00  0.00    +0.097 C 
ATOM     12  C   UNL     1      -5.165   3.822  25.503  0.00  0.00    +0.043 C 
ATOM     13  C   UNL     1      -5.929   3.627  25.709  0.00  0.00    +0.011 C 
ATOM     14  C   UNL     1      -5.348   3.295  25.497  0.00  0.00    +0.058 C 
ATOM     15  C   UNL     1      -4.518   3.724  25.298  0.00  0.00    +0.101 C 
ATOM     16  C   UNL     1      -5.027   2.456  25.303  0.00  0.00    +0.041 A 
ATOM     17  C   UNL     1      -5.268   1.667  25.284  0.00  0.00    +0.014 A 
ATOM     18  C   UNL     1      -4.736   1.079  25.057  0.00  0.00    +0.023 A 
ATOM     19  C   UNL     1      -3.963   1.280  24.849  0.00  0.00    +0.131 A 
ATOM     30  C   UNL     1      -3.722   2.068  24.868  0.00  0.00    +0.276 A 
ATOM     31  O   UNL     1      -2.999   1.764  24.616  0.00  0.00    -0.266 OA
ATOM     32  N   UNL     1      -4.255   2.656  25.096  0.00  0.00    -0.298 N 
ATOM     33  C   UNL     1      -4.821   2.949  25.299  0.00  0.00    +0.110 C 
ENDROOT
BRANCH   7   6
ATOM      3  C   UNL     1      -1.341   0.956  24.029  0.00  0.00    +0.139 A 
ATOM      4  C   UNL     1      -1.459   1.105  24.831  0.00  0.00    +0.038 A 
ATOM      5  C   UNL     1      -2.106   1.556  25.076  0.00  0.00    +0.020 A 
ATOM      6  C   UNL     1      -2.635   1.856  24.518  0.00  0.00    +0.075 A 
ATOM     34  C   UNL     1      -2.516   1.705  23.716  0.00  0.00    +0.020 A 
ATOM     35  C   UNL     1      -1.870   1.256  23.471  0.00  0.00    +0.038 A 
BRANCH   3   2
ATOM      1  C   UNL     1       0.068   0.816  23.838  0.00  0.00    +0.252 C 
ATOM      2  O   UNL     1      -0.694   0.506  23.784  0.00  0.00    -0.471 OA
ENDBRANCH   3   2
ENDBRANCH   7   6
BRANCH  19  20
ATOM     20  N   UNL     1      -3.432   0.691  24.622  0.00  0.00    -0.156 NA
ATOM     21  C   UNL     1      -3.667  -0.099  24.621  0.00  0.00    +0.348 C 
ATOM     22  O   UNL     1      -4.434  -0.302  24.848  0.00  0.00    -0.248 OA
ATOM     23  N   UNL     1      -3.134  -0.688  24.394  0.00  0.00    -0.161 NA
BRANCH  23  24
ATOM     24  C   UNL     1      -3.369  -1.479  24.393  0.00  0.00    +0.075 A 
ATOM     25  C   UNL     1      -3.117  -1.984  24.994  0.00  0.00    +0.017 A 
ATOM     26  C   UNL     1      -3.352  -2.775  24.994  0.00  0.00    +0.001 A 
ATOM     27  C   UNL     1      -3.839  -3.060  24.392  0.00  0.00    +0.000 A 
ATOM     28  C   UNL     1      -4.091  -2.554  23.790  0.00  0.00    +0.001 A 
ATOM     29  C   UNL     1      -3.856  -1.764  23.791  0.00  0.00    +0.017 A 
ENDBRANCH  23  24
ENDBRANCH  19  20
TORSDOF 4
ENDMDL
MODEL 2
REMARK VINA RESULT:     -16.2      1.424      3.007
REMARK  Name = 
REMARK  4 active torsions:
REMARK  status: ('A' for Active; 'I' for Inactive)
REMARK    1  A    between atoms: O_2  and  C_3
REMARK    2  A    between atoms: C_6  and  N_7
REMARK    3  A    between atoms: C_19  and  N_20
REMARK    4  A    between atoms: N_23  and  C_24
REMARK                            x       y       z     vdW  Elec       q    Type
REMARK                         _______ _______ _______ _____ _____    ______ ____
ROOT
ATOM      7  N   UNL     1      -3.079   3.068  24.984  0.00  0.00    -0.162 NA
ATOM      8  C   UNL     1      -2.989   3.887  25.025  0.00  0.00    +0.327 C 
ATOM      9  O   UNL     1      -3.653   4.376  25.008  0.00  0.00    -0.250 OA
ATOM     10  N   UNL     1      -2.235   4.217  25.084  0.00  0.00    -0.262 N 
ATOM     11  C   UNL     1      -1.644   4.805  25.144  0.00  0.00    +0.097 C 
ATOM     12  C   UNL     1      -0.840   4.230  25.165  0.00  0.00    +0.043 C 
ATOM     13  C   UNL     1      -0.094   3.904  25.195  0.00  0.00    +0.011 C 
ATOM     14  C   UNL     1      -0.757   3.679  25.146  0.00  0.00    +0.058 C 
ATOM     15  C   UNL     1      -1.524   4.248  25.126  0.00  0.00    +0.101 C 
ATOM     16  C   UNL     1      -1.254   2.909  25.084  0.00  0.00    +0.041 A 
ATOM     17  C   UNL     1      -1.164   2.089  25.053  0.00  0.00    +0.014 A 
ATOM     18  C   UNL     1      -1.829   1.604  24.993  0.00  0.00    +0.023 A 
ATOM     19  C   UNL     1      -2.583   1.937  24.964  0.00  0.00    +0.131 A 
ATOM     30  C   UNL     1      -2.673   2.757  24.994  0.00  0.00    +0.276 A 
ATOM     31  O   UNL     1      -3.477   2.584  24.940  0.00  0.00    -0.266 OA
ATOM     32  N   UNL     1      -2.008   3.242  25.054  0.00  0.00    -0.298 N 
ATOM     33  C   UNL     1      -1.368   3.431  25.100  0.00  0.00    +0.110 C 
ENDROOT
BRANCH   7   6
ATOM      3  C   UNL     1      -5.341   2.080  24.811  0.00  0.00    +0.139 A 
ATOM      4  C   UNL     1      -5.014   2.234  25.552  0.00  0.00    +0.038 A 
ATOM      5  C   UNL     1      -4.260   2.563  25.610  0.00  0.00    +0.020 A 
ATOM      6  C   UNL     1      -3.832   2.738  24.926  0.00  0.00    +0.075 A 
ATOM     34  C   UNL     1      -4.160   2.584  24.185  0.00  0.00    +0.020 A 
ATOM     35  C   UNL     1      -4.914   2.255  24.127  0.00  0.00    +0.038 A 
BRANCH   3   2
ATOM      1  C   UNL     1      -6.668   1.928  25.320  0.00  0.00    +0.252 C 
ATOM      2  O   UNL     1      -6.096   1.750  24.753  0.00  0.00    -0.471 OA
ENDBRANCH   3   2
ENDBRANCH   7   6
BRANCH  19  20
ATOM     20  N   UNL     1      -3.246   1.451  24.904  0.00  0.00    -0.156 NA
ATOM     21  C   UNL     1      -3.157   0.631  24.888  0.00  0.00    +0.348 C 
ATOM     22  O   UNL     1      -2.404   0.297  24.931  0.00  0.00    -0.248 OA
ATOM     23  N   UNL     1      -3.822   0.145  24.828  0.00  0.00    -0.161 NA
BRANCH  23  24
ATOM     24  C   UNL     1      -3.733  -0.675  24.812  0.00  0.00    +0.075 A 
ATOM     25  C   UNL     1      -3.814  -1.084  24.100  0.00  0.00    +0.017 A 
ATOM     26  C   UNL     1      -3.725  -1.904  24.084  0.00  0.00    +0.001 A 
ATOM     27  C   UNL     1      -3.555  -2.314  24.779  0.00  0.00    +0.000 A 
ATOM     28  C   UNL     1      -3.474  -1.905  25.491  0.00  0.00    +0.001 A 
ATOM     29  C   UNL     1      -3.563  -1.085  25.507  0.00  0.00    +0.017 A 
ENDBRANCH  23  24
ENDBRANCH  19  20
TORSDOF 4
ENDMDL
MODEL 3
REMARK VINA RESULT:     -16.0      1.117      4.385
REMARK  Name = 
REMARK  4 active torsions:
REMARK  status: ('A' for Active; 'I' for Inactive)
REMARK    1  A    between atoms: O_2  and  C_3
REMARK    2  A    between atoms: C_6  and  N_7
REMARK    3  A    between atoms: C_19  and  N_20
REMARK    4  A    between atoms: N_23  and  C_24
REMARK                            x       y       z     vdW  Elec       q    Type
REMARK                         _______ _______ _______ _____ _____    ______ ____
ROOT
ATOM      7  N   UNL     1      -1.929  -0.568  24.705  0.00  0.00    -0.162 NA
ATOM      8  C   UNL     1      -1.536  -1.294  24.682  0.00  0.00    +0.327 C 
ATOM      9  O   UNL     1      -0.716  -1.322  24.762  0.00  0.00    -0.250 OA
ATOM     10  N   UNL     1      -1.964  -1.991  24.579  0.00  0.00    -0.262 N 
ATOM     11  C   UNL     1      -2.113  -2.809  24.493  0.00  0.00    +0.097 C 
ATOM     12  C   UNL     1      -3.096  -2.790  24.395  0.00  0.00    +0.043 C 
ATOM     13  C   UNL     1      -3.891  -2.942  24.302  0.00  0.00    +0.011 C 
ATOM     14  C   UNL     1      -3.477  -2.382  24.392  0.00  0.00    +0.058 C 
ATOM     15  C   UNL     1      -2.527  -2.418  24.485  0.00  0.00    +0.101 C 
ATOM     16  C   UNL     1      -3.509  -1.467  24.468  0.00  0.00    +0.041 A 
ATOM     17  C   UNL     1      -4.049  -0.843  24.467  0.00  0.00    +0.014 A 
ATOM     18  C   UNL     1      -3.782  -0.068  24.561  0.00  0.00    +0.023 A 
ATOM     19  C   UNL     1      -2.976   0.083  24.655  0.00  0.00    +0.131 A 
ATOM     30  C   UNL     1      -2.437  -0.541  24.656  0.00  0.00    +0.276 A 
ATOM     31  O   UNL     1      -1.879   0.056  24.764  0.00  0.00    -0.266 OA
ATOM     32  N   UNL     1      -2.704  -1.316  24.562  0.00  0.00    -0.298 N 
ATOM     33  C   UNL     1      -3.120  -1.833  24.476  0.00  0.00    +0.110 C 
ENDROOT
BRANCH   7   6
ATOM      3  C   UNL     1      -0.642   1.523  25.017  0.00  0.00    +0.139 A 
ATOM      4  C   UNL     1      -0.919   1.108  25.674  0.00  0.00    +0.038 A 
ATOM      5  C   UNL     1      -1.348   0.410  25.570  0.00  0.00    +0.020 A 
ATOM      6  C   UNL     1      -1.500   0.129  24.808  0.00  0.00    +0.075 A 
ATOM     34  C   UNL     1      -1.223   0.545  24.153  0.00  0.00    +0.020 A 
ATOM     35  C   UNL     1      -0.795   1.242  24.256  0.00  0.00    +0.038 A 
BRANCH   3   2
ATOM      1  C   UNL     1       0.173   2.364  25.835  0.00  0.00    +0.252 C 
ATOM      2  O   UNL     1      -0.214   2.221  25.121  0.00  0.00    -0.471 OA
ENDBRANCH   3   2
ENDBRANCH   7   6
BRANCH  19  20
ATOM     20  N   UNL     1      -2.711   0.858  24.749  0.00  0.00    -0.156 NA
ATOM     21  C   UNL     1      -3.251   1.481  24.756  0.00  0.00    +0.348 C 
ATOM     22  O   UNL     1      -4.057   1.330  24.669  0.00  0.00    -0.248 OA
ATOM     23  N   UNL     1      -2.984   2.257  24.850  0.00  0.00    -0.161 NA
BRANCH  23  24
ATOM     24  C   UNL     1      -3.524   2.881  24.856  0.00  0.00    +0.075 A 
ATOM     25  C   UNL     1      -3.730   3.256  24.151  0.00  0.00    +0.017 A 
ATOM     26  C   UNL     1      -4.270   3.879  24.157  0.00  0.00    +0.001 A 
ATOM     27  C   UNL     1      -4.604   4.128  24.870  0.00  0.00    +0.000 A 
ATOM     28  C   UNL     1      -4.399   3.753  25.575  0.00  0.00    +0.001 A 
ATOM     29  C   UNL     1      -3.859   3.130  25.569  0.00  0.00    +0.017 A 
ENDBRANCH  23  24
ENDBRANCH  19  20
TORSDOF 4
ENDMDL
MODEL 4
REMARK VINA RESULT:     -14.9      1.358      4.912
REMARK  Name = 
REMARK  4 active torsions:
REMARK  status: ('A' for Active; 'I' for Inactive)
REMARK    1  A    between atoms: O_2  and  C_3
REMARK    2  A    between atoms: C_6  and  N_7
REMARK    3  A    between atoms: C_19  and  N_20
REMARK    4  A    between atoms: N_23  and  C_24
REMARK                            x       y       z     vdW  Elec       q    Type
REMARK                         _______ _______ _______ _____ _____    ______ ____
ROOT
ATOM      7  N   UNL     1      -3.286  -0.393  24.606  0.00  0.00    -0.162 NA
ATOM      8  C   UNL     1      -3.619  -1.139  24.496  0.00  0.00    +0.327 C 
ATOM      9  O   UNL     1      -4.432  -1.215  24.380  0.00  0.00    -0.250 OA
ATOM     10  N   UNL     1      -3.139  -1.811  24.500  0.00  0.00    -0.262 N 
ATOM     11  C   UNL     1      -2.928  -2.618  24.456  0.00  0.00    +0.097 C 
ATOM     12  C   UNL     1      -1.952  -2.541  24.593  0.00  0.00    +0.043 C 
ATOM     13  C   UNL     1      -1.150  -2.647  24.691  0.00  0.00    +0.011 C 
ATOM     14  C   UNL     1      -1.605  -2.113  24.678  0.00  0.00    +0.058 C 
ATOM     15  C   UNL     1      -2.546  -2.203  24.544  0.00  0.00    +0.101 C 
ATOM     16  C   UNL     1      -1.645  -1.198  24.754  0.00  0.00    +0.041 A 
ATOM     17  C   UNL     1      -1.157  -0.544  24.877  0.00  0.00    +0.014 A 
ATOM     18  C   UNL     1      -1.483   0.214  24.901  0.00  0.00    +0.023 A 
ATOM     19  C   UNL     1      -2.295   0.318  24.802  0.00  0.00    +0.131 A 
ATOM     30  C   UNL     1      -2.782  -0.336  24.679  0.00  0.00    +0.276 A 
ATOM     31  O   UNL     1      -3.384   0.227  24.648  0.00  0.00    -0.266 OA
ATOM     32  N   UNL     1      -2.457  -1.094  24.655  0.00  0.00    -0.298 N 
ATOM     33  C   UNL     1      -2.003  -1.585  24.671  0.00  0.00    +0.110 C 
ENDROOT
BRANCH   7   6
ATOM      3  C   UNL     1      -4.728   1.619  24.595  0.00  0.00    +0.139 A 
ATOM      4  C   UNL     1      -4.614   1.197  25.295  0.00  0.00    +0.038 A 
ATOM      5  C   UNL     1      -4.133   0.527  25.299  0.00  0.00    +0.020 A 
ATOM      6  C   UNL     1      -3.766   0.278  24.602  0.00  0.00    +0.075 A 
ATOM     34  C   UNL     1      -3.881   0.700  23.903  0.00  0.00    +0.020 A 
ATOM     35  C   UNL     1      -4.361   1.370  23.899  0.00  0.00    +0.038 A 
BRANCH   3   2
ATOM      1  C   UNL     1      -5.942   2.273  24.967  0.00  0.00    +0.252 C 
ATOM      2  O   UNL     1      -5.209   2.290  24.591  0.00  0.00    -0.471 OA
ENDBRANCH   3   2
ENDBRANCH   7   6
BRANCH  19  20
ATOM     20  N   UNL     1      -2.620   1.075  24.826  0.00  0.00    -0.156 NA
ATOM     21  C   UNL     1      -2.129   1.732  24.916  0.00  0.00    +0.348 C 
ATOM     22  O   UNL     1      -1.312   1.631  24.981  0.00  0.00    -0.248 OA
ATOM     23  N   UNL     1      -2.454   2.491  24.940  0.00  0.00    -0.161 NA
BRANCH  23  24
ATOM     24  C   UNL     1      -1.963   3.147  25.030  0.00  0.00    +0.075 A 
ATOM     25  C   UNL     1      -1.990   3.590  25.725  0.00  0.00    +0.017 A 
ATOM     26  C   UNL     1      -1.499   4.247  25.815  0.00  0.00    +0.001 A 
ATOM     27  C   UNL     1      -0.981   4.461  25.209  0.00  0.00    +0.000 A 
ATOM     28  C   UNL     1      -0.954   4.018  24.514  0.00  0.00    +0.001 A 
ATOM     29  C   UNL     1      -1.445   3.361  24.424  0.00  0.00    +0.017 A 
ENDBRANCH  23  24
ENDBRANCH  19  20
TORSDOF 4
ENDMDL
