MODEL 1
REMARK VINA RESULT:     -11.2      0.000      0.000
REMARK  Name = 
REMARK  3 active torsions:
REMARK  status: ('A' for Active; 'I' for Inactive)
REMARK    1  A    between atoms: C_7  and  N_10
REMARK    2  A    between atoms: N_16  and  C_17
REMARK    3  A    between atoms: C_17  and  C_18
REMARK                            x       y       z     vdW  Elec       q    Type
REMARK                         _______ _______ _______ _____ _____    ______ ____
ROOT
ATOM     10  N   UNL     1      -4.145   0.511  24.871  0.00  0.00    -0.271 NA
ATOM     11  C   UNL     1      -4.871   0.800  25.136  0.00  0.00    +0.094 C 
ATOM     12  C   UNL     1      -4.994   1.614  25.192  0.00  0.00    +0.112 C 
ATOM     13  N   UNL     1      -4.391   2.138  24.984  0.00  0.00    -0.261 N 
ATOM     14  C   UNL     1      -3.666   1.848  24.719  0.00  0.00    +0.113 C 
ATOM     15  C   UNL     1      -3.179   2.492  24.554  0.00  0.00    +0.117 C 
ATOM     16  N   UNL     1      -3.603   3.181  24.716  0.00  0.00    -0.257 N 
ATOM     24  C   UNL     1      -4.352   2.961  24.982  0.00  0.00    +0.308 C 
ATOM     25  O   UNL     1      -4.957   3.476  25.207  0.00  0.00    -0.252 OA
ATOM     26  C   UNL     1      -3.542   1.034  24.663  0.00  0.00    +0.094 C 
ENDROOT
BRANCH  10   7
ATOM      1  C   UNL     1      -3.855  -3.146  23.954  0.00  0.00    +0.095 C 
ATOM      2  C   UNL     1      -3.651  -2.745  24.646  0.00  0.00    +0.226 C 
ATOM      3  O   UNL     1      -3.325  -3.158  25.281  0.00  0.00    -0.275 OA
ATOM      4  N   UNL     1      -3.775  -1.932  24.702  0.00  0.00    -0.279 N 
ATOM      5  C   UNL     1      -3.571  -1.530  25.393  0.00  0.00    +0.095 C 
ATOM      6  C   UNL     1      -3.695  -0.716  25.450  0.00  0.00    +0.038 C 
ATOM      7  C   UNL     1      -4.022  -0.304  24.814  0.00  0.00    +0.061 C 
ATOM      8  C   UNL     1      -4.225  -0.705  24.123  0.00  0.00    +0.038 C 
ATOM      9  C   UNL     1      -4.102  -1.518  24.067  0.00  0.00    +0.095 C 
ENDBRANCH  10   7
BRANCH  16  17
ATOM     17  C   UNL     1      -3.326   3.953  24.629  0.00  0.00    +0.141 C 
BRANCH  17  18
ATOM     18  C   UNL     1      -2.542   4.134  24.809  0.00  0.00    +0.079 A 
ATOM     19  N   UNL     1      -1.945   3.980  24.261  0.00  0.00    -0.246 NA
ATOM     20  C   UNL     1      -1.161   4.161  24.443  0.00  0.00    +0.099 A 
ATOM     21  C   UNL     1      -0.973   4.496  25.172  0.00  0.00    +0.021 A 
ATOM     22  C   UNL     1      -1.570   4.650  25.721  0.00  0.00    +0.003 A 
ATOM     23  C   UNL     1      -2.354   4.469  25.540  0.00  0.00    +0.016 A 
ENDBRANCH  17  18
ENDBRANCH  16  17
TORSDOF 3
ENDMDL
MODEL 2
REMARK VINA RESULT:     -10.5      2.136      2.656
REMARK  Name = 
REMARK  3 active torsions:
REMARK  status: ('A' for Active; 'I' for Inactive)
REMARK    1  A    between atoms: C_7  and  N_10
REMARK    2  A    between atoms: N_16  and  C_17
REMARK    3  A    between atoms: C_17  and  C_18
REMARK                            x       y       z     vdW  Elec       q    Type
REMARK                         _______ _______ _______ _____ _____    ______ ____
ROOT
ATOM     10  N   UNL     1      -1.569  -0.117  24.657  0.00  0.00    -0.271 NA
ATOM     11  C   UNL     1      -0.809  -0.180  24.342  0.00  0.00    +0.094 C 
ATOM     12  C   UNL     1      -0.273   0.440  24.432  0.00  0.00    +0.112 C 
ATOM     13  N   UNL     1      -0.497   1.124  24.837  0.00  0.00    -0.261 N 
ATOM     14  C   UNL     1      -1.257   1.187  25.151  0.00  0.00    +0.113 C 
ATOM     15  C   UNL     1      -1.321   1.921  25.519  0.00  0.00    +0.117 C 
ATOM     16  N   UNL     1      -0.600   2.313  25.433  0.00  0.00    -0.257 N 
ATOM     24  C   UNL     1      -0.092   1.820  25.011  0.00  0.00    +0.308 C 
ATOM     25  O   UNL     1       0.688   1.993  24.800  0.00  0.00    -0.252 OA
ATOM     26  C   UNL     1      -1.794   0.566  25.061  0.00  0.00    +0.094 C 
ENDROOT
BRANCH  10   7
ATOM      1  C   UNL     1      -4.436  -2.470  23.920  0.00  0.00    +0.095 C 
ATOM      2  C   UNL     1      -3.714  -2.600  24.297  0.00  0.00    +0.226 C 
ATOM      3  O   UNL     1      -3.528  -3.351  24.584  0.00  0.00    -0.275 OA
ATOM      4  N   UNL     1      -3.178  -1.980  24.387  0.00  0.00    -0.279 N 
ATOM      5  C   UNL     1      -2.456  -2.110  24.764  0.00  0.00    +0.095 C 
ATOM      6  C   UNL     1      -1.919  -1.489  24.854  0.00  0.00    +0.038 C 
ATOM      7  C   UNL     1      -2.106  -0.738  24.567  0.00  0.00    +0.061 C 
ATOM      8  C   UNL     1      -2.828  -0.608  24.190  0.00  0.00    +0.038 C 
ATOM      9  C   UNL     1      -3.364  -1.228  24.100  0.00  0.00    +0.095 C 
ENDBRANCH  10   7
BRANCH  16  17
ATOM     17  C   UNL     1      -0.420   3.066  25.718  0.00  0.00    +0.141 C 
BRANCH  17  18
ATOM     18  C   UNL     1      -0.920   3.701  25.552  0.00  0.00    +0.079 A 
ATOM     19  N   UNL     1      -1.652   3.760  25.927  0.00  0.00    -0.246 NA
ATOM     20  C   UNL     1      -2.151   4.396  25.760  0.00  0.00    +0.099 A 
ATOM     21  C   UNL     1      -1.918   4.972  25.219  0.00  0.00    +0.021 A 
ATOM     22  C   UNL     1      -1.186   4.913  24.843  0.00  0.00    +0.003 A 
ATOM     23  C   UNL     1      -0.686   4.278  25.009  0.00  0.00    +0.016 A 
ENDBRANCH  17  18
ENDBRANCH  16  17
TORSDOF 3
ENDMDL
MODEL 3
REMARK VINA RESULT:     -10.2      2.259      5.921
REMARK  Name = 
REMARK  3 active torsions:
REMARK  status: ('A' for Active; 'I' for Inactive)
REMARK    1  A    between atoms: C_7  and  N_10
REMARK    2  A    between atoms: N_16  and  C_17
REMARK    3  A    between atoms: C_17  and  C_18
REMARK                            x       y       z     vdW  Elec       q    Type
REMARK                         _______ _______ _______ _____ _____    ______ ____
ROOT
ATOM     10  N   UNL     1      -0.894   1.729  24.709  0.00  0.00    -0.271 NA
ATOM     11  C   UNL     1      -0.252   1.502  24.243  0.00  0.00    +0.094 C 
ATOM     12  C   UNL     1      -0.091   0.702  24.125  0.00  0.00    +0.112 C 
ATOM     13  N   UNL     1      -0.571   0.128  24.473  0.00  0.00    -0.261 N 
ATOM     14  C   UNL     1      -1.212   0.355  24.939  0.00  0.00    +0.113 C 
ATOM     15  C   UNL     1      -1.585  -0.329  25.210  0.00  0.00    +0.117 C 
ATOM     16  N   UNL     1      -1.175  -0.979  24.911  0.00  0.00    -0.257 N 
ATOM     24  C   UNL     1      -0.548  -0.696  24.456  0.00  0.00    +0.308 C 
ATOM     25  O   UNL     1       0.006  -1.157  24.053  0.00  0.00    -0.252 OA
ATOM     26  C   UNL     1      -1.374   1.156  25.058  0.00  0.00    +0.094 C 
ENDROOT
BRANCH  10   7
ATOM      1  C   UNL     1      -2.278   5.164  25.466  0.00  0.00    +0.095 C 
ATOM      2  C   UNL     1      -1.540   4.930  25.182  0.00  0.00    +0.226 C 
ATOM      3  O   UNL     1      -0.964   5.497  25.016  0.00  0.00    -0.275 OA
ATOM      4  N   UNL     1      -1.379   4.130  25.064  0.00  0.00    -0.279 N 
ATOM      5  C   UNL     1      -0.641   3.896  24.779  0.00  0.00    +0.095 C 
ATOM      6  C   UNL     1      -0.479   3.095  24.661  0.00  0.00    +0.038 C 
ATOM      7  C   UNL     1      -1.056   2.530  24.828  0.00  0.00    +0.061 C 
ATOM      8  C   UNL     1      -1.794   2.764  25.112  0.00  0.00    +0.038 C 
ATOM      9  C   UNL     1      -1.955   3.563  25.230  0.00  0.00    +0.095 C 
ENDBRANCH  10   7
BRANCH  16  17
ATOM     17  C   UNL     1      -1.359  -1.772  25.044  0.00  0.00    +0.141 C 
BRANCH  17  18
ATOM     18  C   UNL     1      -2.125  -2.046  24.912  0.00  0.00    +0.079 A 
ATOM     19  N   UNL     1      -2.330  -2.365  24.180  0.00  0.00    -0.246 NA
ATOM     20  C   UNL     1      -3.098  -2.638  24.050  0.00  0.00    +0.099 A 
ATOM     21  C   UNL     1      -3.660  -2.593  24.651  0.00  0.00    +0.021 A 
ATOM     22  C   UNL     1      -3.455  -2.274  25.384  0.00  0.00    +0.003 A 
ATOM     23  C   UNL     1      -2.688  -2.000  25.515  0.00  0.00    +0.016 A 
ENDBRANCH  17  18
ENDBRANCH  16  17
TORSDOF 3
ENDMDL
MODEL 4
REMARK VINA RESULT:     -10.0      1.238      5.281
REMARK  Name = 
REMARK  3 active torsions:
REMARK  status: ('A' for Active; 'I' for Inactive)
REMARK    1  A    between atoms: C_7  and  N_10
REMARK    2  A    between atoms: N_16  and  C_17
REMARK    3  A    between atoms: C_17  and  C_18
REMARK                            x       y       z     vdW  Elec       q    Type
REMARK                         _______ _______ _______ _____ _____    ______ ____
ROOT
ATOM     10  N   UNL     1      -3.316   2.534  24.915  0.00  0.00    -0.271 NA
ATOM     11  C   UNL     1      -4.096   2.685  25.140  0.00  0.00    +0.094 C 
ATOM     12  C   UNL     1      -4.654   2.079  25.122  0.00  0.00    +0.112 C 
ATOM     13  N   UNL     1      -4.435   1.321  24.880  0.00  0.00    -0.261 N 
ATOM     14  C   UNL     1      -3.655   1.171  24.655  0.00  0.00    +0.113 C 
ATOM     15  C   UNL     1      -3.600   0.376  24.443  0.00  0.00    +0.117 C 
ATOM     16  N   UNL     1      -4.345   0.035  24.536  0.00  0.00    -0.257 N 
ATOM     24  C   UNL     1      -4.860   0.620  24.806  0.00  0.00    +0.308 C 
ATOM     25  O   UNL     1      -5.663   0.520  24.973  0.00  0.00    -0.252 OA
ATOM     26  C   UNL     1      -3.095   1.777  24.673  0.00  0.00    +0.094 C 
ENDROOT
BRANCH  10   7
ATOM      1  C   UNL     1      -0.299   4.808  24.768  0.00  0.00    +0.095 C 
ATOM      2  C   UNL     1      -1.080   4.960  24.987  0.00  0.00    +0.226 C 
ATOM      3  O   UNL     1      -1.301   5.719  25.224  0.00  0.00    -0.275 OA
ATOM      4  N   UNL     1      -1.638   4.354  24.969  0.00  0.00    -0.279 N 
ATOM      5  C   UNL     1      -2.419   4.506  25.188  0.00  0.00    +0.095 C 
ATOM      6  C   UNL     1      -2.979   3.899  25.170  0.00  0.00    +0.038 C 
ATOM      7  C   UNL     1      -2.757   3.141  24.933  0.00  0.00    +0.061 C 
ATOM      8  C   UNL     1      -1.976   2.989  24.714  0.00  0.00    +0.038 C 
ATOM      9  C   UNL     1      -1.417   3.595  24.732  0.00  0.00    +0.095 C 
ENDBRANCH  10   7
BRANCH  16  17
ATOM     17  C   UNL     1      -4.541  -0.752  24.386  0.00  0.00    +0.141 C 
BRANCH  17  18
ATOM     18  C   UNL     1      -4.017  -1.355  24.592  0.00  0.00    +0.079 A 
ATOM     19  N   UNL     1      -3.850  -1.503  25.386  0.00  0.00    -0.246 NA
ATOM     20  C   UNL     1      -3.325  -2.106  25.591  0.00  0.00    +0.099 A 
ATOM     21  C   UNL     1      -2.968  -2.560  25.003  0.00  0.00    +0.021 A 
ATOM     22  C   UNL     1      -3.135  -2.412  24.209  0.00  0.00    +0.003 A 
ATOM     23  C   UNL     1      -3.659  -1.809  24.003  0.00  0.00    +0.016 A 
ENDBRANCH  17  18
ENDBRANCH  16  17
TORSDOF 3
ENDMDL
MODEL 5
REMARK VINA RESULT:      -9.0      2.791      4.072
REMARK  Name = 
REMARK  3 active torsions:
REMARK  status: ('A' for Active; 'I' for Inactive)
REMARK    1  A    between atoms: C_7  and  N_10
REMARK    2  A    between atoms: N_16  and  C_17
REMARK    3  A    between atoms: C_17  and  C_18
REMARK                            x       y       z     vdW  Elec       q    Type
REMARK                         _______ _______ _______ _____ _____    ______ ____
ROOT
ATOM     10  N   UNL     1      -1.170   2.198  24.750  0.00  0.00    -0.271 NA
ATOM     11  C   UNL     1      -0.929   2.731  25.331  0.00  0.00    +0.094 C 
ATOM     12  C   UNL     1      -1.482   3.227  25.690  0.00  0.00    +0.112 C 
ATOM     13  N   UNL     1      -2.276   3.190  25.468  0.00  0.00    -0.261 N 
ATOM     14  C   UNL     1      -2.517   2.656  24.886  0.00  0.00    +0.113 C 
ATOM     15  C   UNL     1      -3.330   2.743  24.782  0.00  0.00    +0.117 C 
ATOM     16  N   UNL     1      -3.592   3.329  25.298  0.00  0.00    -0.257 N 
ATOM     24  C   UNL     1      -2.941   3.605  25.722  0.00  0.00    +0.308 C 
ATOM     25  O   UNL     1      -2.952   4.195  26.299  0.00  0.00    -0.252 OA
ATOM     26  C   UNL     1      -1.964   2.160  24.527  0.00  0.00    +0.094 C 
ENDROOT
BRANCH  10   7
ATOM      1  C   UNL     1       1.796   0.495  23.139  0.00  0.00    +0.095 C 
ATOM      2  C   UNL     1       1.040   0.213  23.313  0.00  0.00    +0.226 C 
ATOM      3  O   UNL     1       0.838  -0.565  23.127  0.00  0.00    -0.275 OA
ATOM      4  N   UNL     1       0.488   0.709  23.672  0.00  0.00    -0.279 N 
ATOM      5  C   UNL     1      -0.267   0.427  23.845  0.00  0.00    +0.095 C 
ATOM      6  C   UNL     1      -0.821   0.924  24.205  0.00  0.00    +0.038 C 
ATOM      7  C   UNL     1      -0.617   1.701  24.390  0.00  0.00    +0.061 C 
ATOM      8  C   UNL     1       0.139   1.983  24.216  0.00  0.00    +0.038 C 
ATOM      9  C   UNL     1       0.691   1.487  23.857  0.00  0.00    +0.095 C 
ENDBRANCH  10   7
BRANCH  16  17
ATOM     17  C   UNL     1      -4.370   3.594  25.377  0.00  0.00    +0.141 C 
BRANCH  17  18
ATOM     18  C   UNL     1      -4.986   3.050  25.448  0.00  0.00    +0.079 A 
ATOM     19  N   UNL     1      -5.309   2.886  26.189  0.00  0.00    -0.246 NA
ATOM     20  C   UNL     1      -5.925   2.341  26.259  0.00  0.00    +0.099 A 
ATOM     21  C   UNL     1      -6.219   1.962  25.588  0.00  0.00    +0.021 A 
ATOM     22  C   UNL     1      -5.896   2.127  24.847  0.00  0.00    +0.003 A 
ATOM     23  C   UNL     1      -5.280   2.671  24.776  0.00  0.00    +0.016 A 
ENDBRANCH  17  18
ENDBRANCH  16  17
TORSDOF 3
ENDMDL
MODEL 6
REMARK VINA RESULT:      -8.8      3.551      5.519
REMARK  Name = 
REMARK  3 active torsions:
REMARK  status: ('A' for Active; 'I' for Inactive)
REMARK    1  A    between atoms: C_7  and  N_10
REMARK    2  A    between atoms: N_16  and  C_17
REMARK    3  A    between atoms: C_17  and  C_18
REMARK                            x       y       z     vdW  Elec       q    Type
REMARK                         _______ _______ _______ _____ _____    ______ ____
ROOT
ATOM     10  N   UNL     1      -0.272   0.733  23.910  0.00  0.00    -0.271 NA
ATOM     11  C   UNL     1      -0.657   1.459  23.980  0.00  0.00    +0.094 C 
ATOM     12  C   UNL     1      -1.429   1.490  24.266  0.00  0.00    +0.112 C 
ATOM     13  N   UNL     1      -1.818   0.795  24.483  0.00  0.00    -0.261 N 
ATOM     14  C   UNL     1      -1.433   0.069  24.413  0.00  0.00    +0.113 C 
ATOM     15  C   UNL     1      -1.950  -0.520  24.667  0.00  0.00    +0.117 C 
ATOM     16  N   UNL     1      -2.656  -0.158  24.894  0.00  0.00    -0.257 N 
ATOM     24  C   UNL     1      -2.573   0.654  24.780  0.00  0.00    +0.308 C 
ATOM     25  O   UNL     1      -3.147   1.227  24.936  0.00  0.00    -0.252 OA
ATOM     26  C   UNL     1      -0.659   0.038  24.126  0.00  0.00    +0.094 C 
ENDROOT
BRANCH  10   7
ATOM      1  C   UNL     1       3.048   0.001  22.255  0.00  0.00    +0.095 C 
ATOM      2  C   UNL     1       2.821   0.609  22.765  0.00  0.00    +0.226 C 
ATOM      3  O   UNL     1       3.368   1.186  22.987  0.00  0.00    -0.275 OA
ATOM      4  N   UNL     1       2.049   0.640  23.051  0.00  0.00    -0.279 N 
ATOM      5  C   UNL     1       1.821   1.248  23.560  0.00  0.00    +0.095 C 
ATOM      6  C   UNL     1       1.048   1.279  23.847  0.00  0.00    +0.038 C 
ATOM      7  C   UNL     1       0.502   0.702  23.623  0.00  0.00    +0.061 C 
ATOM      8  C   UNL     1       0.729   0.094  23.114  0.00  0.00    +0.038 C 
ATOM      9  C   UNL     1       1.502   0.063  22.828  0.00  0.00    +0.095 C 
ENDBRANCH  10   7
BRANCH  16  17
ATOM     17  C   UNL     1      -3.326  -0.542  25.184  0.00  0.00    +0.141 C 
BRANCH  17  18
ATOM     18  C   UNL     1      -3.560  -1.265  24.863  0.00  0.00    +0.079 A 
ATOM     19  N   UNL     1      -4.006  -1.283  24.169  0.00  0.00    -0.246 NA
ATOM     20  C   UNL     1      -4.239  -2.007  23.849  0.00  0.00    +0.099 A 
ATOM     21  C   UNL     1      -4.028  -2.711  24.221  0.00  0.00    +0.021 A 
ATOM     22  C   UNL     1      -3.582  -2.692  24.915  0.00  0.00    +0.003 A 
ATOM     23  C   UNL     1      -3.348  -1.970  25.237  0.00  0.00    +0.016 A 
ENDBRANCH  17  18
ENDBRANCH  16  17
TORSDOF 3
ENDMDL
MODEL 7
REMARK VINA RESULT:      -8.7      2.967      4.171
REMARK  Name = 
REMARK  3 active torsions:
REMARK  status: ('A' for Active; 'I' for Inactive)
REMARK    1  A    between atoms: C_7  and  N_10
REMARK    2  A    between atoms: N_16  and  C_17
REMARK    3  A    between atoms: C_17  and  C_18
REMARK                            x       y       z     vdW  Elec       q    Type
REMARK                         _______ _______ _______ _____ _____    ______ ____
ROOT
ATOM     10  N   UNL     1      -1.352   0.227  24.324  0.00  0.00    -0.271 NA
ATOM     11  C   UNL     1      -1.531  -0.399  24.830  0.00  0.00    +0.094 C 
ATOM     12  C   UNL     1      -2.300  -0.496  25.109  0.00  0.00    +0.112 C 
ATOM     13  N   UNL     1      -2.892   0.032  24.882  0.00  0.00    -0.261 N 
ATOM     14  C   UNL     1      -2.713   0.658  24.376  0.00  0.00    +0.113 C 
ATOM     15  C   UNL     1      -3.405   1.088  24.248  0.00  0.00    +0.117 C 
ATOM     16  N   UNL     1      -4.012   0.728  24.675  0.00  0.00    -0.257 N 
ATOM     24  C   UNL     1      -3.694   0.076  25.067  0.00  0.00    +0.308 C 
ATOM     25  O   UNL     1      -4.107  -0.443  25.558  0.00  0.00    -0.252 OA
ATOM     26  C   UNL     1      -1.943   0.756  24.096  0.00  0.00    +0.094 C 
ENDROOT
BRANCH  10   7
ATOM      1  C   UNL     1       2.067   0.046  22.719  0.00  0.00    +0.095 C 
ATOM      2  C   UNL     1       1.729   0.620  23.207  0.00  0.00    +0.226 C 
ATOM      3  O   UNL     1       2.161   1.291  23.415  0.00  0.00    -0.275 OA
ATOM      4  N   UNL     1       0.959   0.521  23.486  0.00  0.00    -0.279 N 
ATOM      5  C   UNL     1       0.621   1.095  23.974  0.00  0.00    +0.095 C 
ATOM      6  C   UNL     1      -0.150   0.997  24.253  0.00  0.00    +0.038 C 
ATOM      7  C   UNL     1      -0.581   0.325  24.044  0.00  0.00    +0.061 C 
ATOM      8  C   UNL     1      -0.243  -0.248  23.557  0.00  0.00    +0.038 C 
ATOM      9  C   UNL     1       0.526  -0.150  23.278  0.00  0.00    +0.095 C 
ENDBRANCH  10   7
BRANCH  16  17
ATOM     17  C   UNL     1      -4.798   0.977  24.705  0.00  0.00    +0.141 C 
BRANCH  17  18
ATOM     18  C   UNL     1      -4.980   1.741  24.957  0.00  0.00    +0.079 A 
ATOM     19  N   UNL     1      -4.777   2.389  24.489  0.00  0.00    -0.246 NA
ATOM     20  C   UNL     1      -4.960   3.153  24.742  0.00  0.00    +0.099 A 
ATOM     21  C   UNL     1      -5.345   3.269  25.462  0.00  0.00    +0.021 A 
ATOM     22  C   UNL     1      -5.547   2.620  25.930  0.00  0.00    +0.003 A 
ATOM     23  C   UNL     1      -5.365   1.856  25.678  0.00  0.00    +0.016 A 
ENDBRANCH  17  18
ENDBRANCH  16  17
TORSDOF 3
ENDMDL
MODEL 8
REMARK VINA RESULT:      -8.5     16.205     18.877
REMARK  Name = 
REMARK  3 active torsions:
REMARK  status: ('A' for Active; 'I' for Inactive)
REMARK    1  A    between atoms: C_7  and  N_10
REMARK    2  A    between atoms: N_16  and  C_17
REMARK    3  A    between atoms: C_17  and  C_18
REMARK                            x       y       z     vdW  Elec       q    Type
REMARK                         _______ _______ _______ _____ _____    ______ ____
ROOT
ATOM     10  N   UNL     1      13.947   7.295  19.145  0.00  0.00    -0.271 NA
ATOM     11  C   UNL     1      13.552   7.323  18.422  0.00  0.00    +0.094 C 
ATOM     12  C   UNL     1      12.785   7.621  18.382  0.00  0.00    +0.112 C 
ATOM     13  N   UNL     1      12.411   7.893  19.066  0.00  0.00    -0.261 N 
ATOM     14  C   UNL     1      12.806   7.865  19.789  0.00  0.00    +0.113 C 
ATOM     15  C   UNL     1      12.302   8.170  20.367  0.00  0.00    +0.117 C 
ATOM     16  N   UNL     1      11.596   8.385  20.000  0.00  0.00    -0.257 N 
ATOM     24  C   UNL     1      11.664   8.214  19.196  0.00  0.00    +0.308 C 
ATOM     25  O   UNL     1      11.084   8.342  18.622  0.00  0.00    -0.252 OA
ATOM     26  C   UNL     1      13.575   7.566  19.830  0.00  0.00    +0.094 C 
ENDROOT
BRANCH  10   7
ATOM      1  C   UNL     1      17.402   6.042  20.033  0.00  0.00    +0.095 C 
ATOM      2  C   UNL     1      17.019   6.100  19.305  0.00  0.00    +0.226 C 
ATOM      3  O   UNL     1      17.405   5.860  18.616  0.00  0.00    -0.275 OA
ATOM      4  N   UNL     1      16.252   6.399  19.265  0.00  0.00    -0.279 N 
ATOM      5  C   UNL     1      15.869   6.457  18.537  0.00  0.00    +0.095 C 
ATOM      6  C   UNL     1      15.101   6.756  18.497  0.00  0.00    +0.038 C 
ATOM      7  C   UNL     1      14.716   6.996  19.185  0.00  0.00    +0.061 C 
ATOM      8  C   UNL     1      15.099   6.938  19.914  0.00  0.00    +0.038 C 
ATOM      9  C   UNL     1      15.866   6.640  19.954  0.00  0.00    +0.095 C 
ENDBRANCH  10   7
BRANCH  16  17
ATOM     17  C   UNL     1      10.937   8.715  20.372  0.00  0.00    +0.141 C 
BRANCH  17  18
ATOM     18  C   UNL     1      10.781   8.544  21.164  0.00  0.00    +0.079 A 
ATOM     19  N   UNL     1      10.434   7.825  21.371  0.00  0.00    -0.246 NA
ATOM     20  C   UNL     1      10.279   7.655  22.163  0.00  0.00    +0.099 A 
ATOM     21  C   UNL     1      10.471   8.203  22.748  0.00  0.00    +0.021 A 
ATOM     22  C   UNL     1      10.818   8.923  22.541  0.00  0.00    +0.003 A 
ATOM     23  C   UNL     1      10.973   9.093  21.749  0.00  0.00    +0.016 A 
ENDBRANCH  17  18
ENDBRANCH  16  17
TORSDOF 3
ENDMDL
MODEL 9
REMARK VINA RESULT:      -8.4      2.344      5.014
REMARK  Name = 
REMARK  3 active torsions:
REMARK  status: ('A' for Active; 'I' for Inactive)
REMARK    1  A    between atoms: C_7  and  N_10
REMARK    2  A    between atoms: N_16  and  C_17
REMARK    3  A    between atoms: C_17  and  C_18
REMARK                            x       y       z     vdW  Elec       q    Type
REMARK                         _______ _______ _______ _____ _____    ______ ____
ROOT
ATOM     10  N   UNL     1      -2.743   2.244  24.667  0.00  0.00    -0.271 NA
ATOM     11  C   UNL     1      -2.172   2.689  24.271  0.00  0.00    +0.094 C 
ATOM     12  C   UNL     1      -1.463   2.338  24.040  0.00  0.00    +0.112 C 
ATOM     13  N   UNL     1      -1.323   1.542  24.203  0.00  0.00    -0.261 N 
ATOM     14  C   UNL     1      -1.894   1.096  24.598  0.00  0.00    +0.113 C 
ATOM     15  C   UNL     1      -1.605   0.329  24.683  0.00  0.00    +0.117 C 
ATOM     16  N   UNL     1      -0.856   0.299  24.340  0.00  0.00    -0.257 N 
ATOM     24  C   UNL     1      -0.682   1.049  24.044  0.00  0.00    +0.308 C 
ATOM     25  O   UNL     1       0.012   1.268  23.656  0.00  0.00    -0.252 OA
ATOM     26  C   UNL     1      -2.605   1.447  24.830  0.00  0.00    +0.094 C 
ENDROOT
BRANCH  10   7
ATOM      1  C   UNL     1      -6.276   3.204  25.609  0.00  0.00    +0.095 C 
ATOM      2  C   UNL     1      -5.581   3.649  25.594  0.00  0.00    +0.226 C 
ATOM      3  O   UNL     1      -5.597   4.445  25.811  0.00  0.00    -0.275 OA
ATOM      4  N   UNL     1      -4.872   3.298  25.362  0.00  0.00    -0.279 N 
ATOM      5  C   UNL     1      -4.178   3.743  25.347  0.00  0.00    +0.095 C 
ATOM      6  C   UNL     1      -3.467   3.391  25.115  0.00  0.00    +0.038 C 
ATOM      7  C   UNL     1      -3.453   2.595  24.899  0.00  0.00    +0.061 C 
ATOM      8  C   UNL     1      -4.148   2.151  24.914  0.00  0.00    +0.038 C 
ATOM      9  C   UNL     1      -4.857   2.502  25.146  0.00  0.00    +0.095 C 
ENDBRANCH  10   7
BRANCH  16  17
ATOM     17  C   UNL     1      -0.366  -0.363  24.301  0.00  0.00    +0.141 C 
BRANCH  17  18
ATOM     18  C   UNL     1      -0.659  -1.106  24.508  0.00  0.00    +0.079 A 
ATOM     19  N   UNL     1      -1.116  -1.534  23.972  0.00  0.00    -0.246 NA
ATOM     20  C   UNL     1      -1.408  -2.277  24.180  0.00  0.00    +0.099 A 
ATOM     21  C   UNL     1      -1.244  -2.592  24.924  0.00  0.00    +0.021 A 
ATOM     22  C   UNL     1      -0.786  -2.164  25.461  0.00  0.00    +0.003 A 
ATOM     23  C   UNL     1      -0.493  -1.421  25.253  0.00  0.00    +0.016 A 
ENDBRANCH  17  18
ENDBRANCH  16  17
TORSDOF 3
ENDMDL
MODEL 10
REMARK VINA RESULT:      -8.2      1.818      4.889
REMARK  Name = 
REMARK  3 active torsions:
REMARK  status: ('A' for Active; 'I' for Inactive)
REMARK    1  A    between atoms: C_7  and  N_10
REMARK    2  A    between atoms: N_16  and  C_17
REMARK    3  A    between atoms: C_17  and  C_18
REMARK                            x       y       z     vdW  Elec       q    Type
REMARK                         _______ _______ _______ _____ _____    ______ ____
ROOT
ATOM     10  N   UNL     1      -4.479   0.784  24.811  0.00  0.00    -0.271 NA
ATOM     11  C   UNL     1      -5.012   0.268  24.449  0.00  0.00    +0.094 C 
ATOM     12  C   UNL     1      -4.782  -0.503  24.271  0.00  0.00    +0.112 C 
ATOM     13  N   UNL     1      -4.019  -0.760  24.454  0.00  0.00    -0.261 N 
ATOM     14  C   UNL     1      -3.487  -0.244  24.815  0.00  0.00    +0.113 C 
ATOM     15  C   UNL     1      -2.777  -0.649  24.929  0.00  0.00    +0.117 C 
ATOM     16  N   UNL     1      -2.871  -1.415  24.638  0.00  0.00    -0.257 N 
ATOM     24  C   UNL     1      -3.639  -1.483  24.345  0.00  0.00    +0.308 C 
ATOM     25  O   UNL     1      -3.969  -2.157  24.001  0.00  0.00    -0.252 OA
ATOM     26  C   UNL     1      -3.717   0.528  24.994  0.00  0.00    +0.094 C 
ENDROOT
BRANCH  10   7
ATOM      1  C   UNL     1      -4.914   4.505  25.317  0.00  0.00    +0.095 C 
ATOM      2  C   UNL     1      -5.399   3.872  25.526  0.00  0.00    +0.226 C 
ATOM      3  O   UNL     1      -6.114   4.010  25.913  0.00  0.00    -0.275 OA
ATOM      4  N   UNL     1      -5.169   3.100  25.347  0.00  0.00    -0.279 N 
ATOM      5  C   UNL     1      -5.654   2.467  25.556  0.00  0.00    +0.095 C 
ATOM      6  C   UNL     1      -5.424   1.694  25.377  0.00  0.00    +0.038 C 
ATOM      7  C   UNL     1      -4.709   1.556  24.990  0.00  0.00    +0.061 C 
ATOM      8  C   UNL     1      -4.224   2.190  24.781  0.00  0.00    +0.038 C 
ATOM      9  C   UNL     1      -4.454   2.961  24.959  0.00  0.00    +0.095 C 
ENDBRANCH  10   7
BRANCH  16  17
ATOM     17  C   UNL     1      -2.298  -2.008  24.641  0.00  0.00    +0.141 C 
BRANCH  17  18
ATOM     18  C   UNL     1      -1.499  -1.810  24.682  0.00  0.00    +0.079 A 
ATOM     19  N   UNL     1      -1.110  -1.520  24.015  0.00  0.00    -0.246 NA
ATOM     20  C   UNL     1      -0.310  -1.322  24.057  0.00  0.00    +0.099 A 
ATOM     21  C   UNL     1       0.101  -1.414  24.766  0.00  0.00    +0.021 A 
ATOM     22  C   UNL     1      -0.288  -1.704  25.434  0.00  0.00    +0.003 A 
ATOM     23  C   UNL     1      -1.088  -1.902  25.392  0.00  0.00    +0.016 A 
ENDBRANCH  17  18
ENDBRANCH  16  17
TORSDOF 3
ENDMDL
