REMARK  Name = 
REMARK  7 active torsions:
REMARK  status: ('A' for Active; 'I' for Inactive)
REMARK    1  A    between atoms: C_2  and  C_3
REMARK    2  A    between atoms: C_10  and  C_11
REMARK    3  A    between atoms: C_11  and  O_12
REMARK    4  A    between atoms: O_12  and  C_13
REMARK    5  A    between atoms: N_15  and  C_16
REMARK    6  A    between atoms: C_18  and  O_19
REMARK    7  A    between atoms: C_22  and  O_23
REMARK                            x       y       z     vdW  Elec       q    Type
REMARK                         _______ _______ _______ _____ _____    ______ ____
ROOT
ATOM     13  C   UNL     1      -0.163  -4.265   0.000  0.00  0.00    +0.425 C 
ATOM     14  O   UNL     1      -0.988  -4.274   0.000  0.00  0.00    -0.224 OA
ATOM     15  N   UNL     1       0.257  -4.975   0.000  0.00  0.00    -0.142 NA
ENDROOT
BRANCH  15  16
ATOM     16  C   UNL     1      -0.148  -5.694   0.000  0.00  0.00    +0.083 A 
ATOM     17  C   UNL     1       0.272  -6.404   0.000  0.00  0.00    +0.054 A 
ATOM     18  C   UNL     1      -0.133  -7.123   0.000  0.00  0.00    +0.143 A 
ATOM     21  C   UNL     1      -0.958  -7.132   0.000  0.00  0.00    +0.074 A 
ATOM     22  C   UNL     1      -1.378  -6.422   0.000  0.00  0.00    +0.143 A 
ATOM     25  C   UNL     1      -0.973  -5.703   0.000  0.00  0.00    +0.054 A 
BRANCH  18  19
ATOM     19  O   UNL     1       0.287  -7.833   0.000  0.00  0.00    -0.471 OA
ATOM     20  C   UNL     1      -0.117  -8.552   0.000  0.00  0.00    +0.252 C 
ENDBRANCH  18  19
BRANCH  22  23
ATOM     23  O   UNL     1      -2.203  -6.431   0.000  0.00  0.00    -0.471 OA
ATOM     24  C   UNL     1      -2.623  -5.721   0.000  0.00  0.00    +0.252 C 
ENDBRANCH  22  23
ENDBRANCH  15  16
BRANCH  13  12
ATOM     12  O   UNL     1       0.241  -3.546   0.000  0.00  0.00    -0.432 OA
BRANCH  12  11
ATOM     11  C   UNL     1      -0.179  -2.836   0.000  0.00  0.00    +0.226 C 
BRANCH  11  10
ATOM      3  C   UNL     1       1.661  -1.343   0.000  0.00  0.00    +0.016 C 
ATOM      4  C   UNL     1       1.814  -2.106   0.000  0.00  0.00    +0.072 C 
ATOM      5  N   UNL     1       1.065  -1.759   0.000  0.00  0.00    -0.271 NA
ATOM      6  C   UNL     1       1.205  -0.720   0.000  0.00  0.00    +0.072 C 
ATOM      7  C   UNL     1       0.961  -0.114   0.000  0.00  0.00    +0.017 C 
ATOM      8  C   UNL     1       0.923  -1.010   0.000  0.00  0.00    +0.004 C 
ATOM      9  C   UNL     1       0.119  -1.362   0.000  0.00  0.00    +0.020 C 
ATOM     10  C   UNL     1       0.226  -2.118   0.000  0.00  0.00    +0.102 C 
BRANCH   3   2
ATOM      1  C   UNL     1       2.184  -0.013   0.000  0.00  0.00    +0.000 C 
ATOM      2  C   UNL     1       2.307  -0.828   0.000  0.00  0.00    +0.001 C 
ENDBRANCH   3   2
ENDBRANCH  11  10
ENDBRANCH  12  11
ENDBRANCH  13  12
TORSDOF 7
