MODEL 1
REMARK VINA RESULT:      -9.2      0.000      0.000
REMARK  Name = 
REMARK  7 active torsions:
REMARK  status: ('A' for Active; 'I' for Inactive)
REMARK    1  A    between atoms: O_2  and  C_3
REMARK    2  A    between atoms: C_3  and  C_5
REMARK    3  A    between atoms: C_11  and  C_13
REMARK    4  A    between atoms: C_13  and  C_14
REMARK    5  A    between atoms: C_14  and  C_15
REMARK    6  A    between atoms: N_24  and  C_25
REMARK    7  A    between atoms: C_25  and  C_26
REMARK                            x       y       z     vdW  Elec       q    Type
REMARK                         _______ _______ _______ _____ _____    ______ ____
ROOT
ATOM     15  C   UNL     1      -1.061   0.702  23.846  0.00  0.00    +0.080 C 
ATOM     16  C   UNL     1      -1.068   1.386  23.384  0.00  0.00    +0.131 C 
ATOM     17  N   UNL     1      -1.669   1.944  23.300  0.00  0.00    -0.203 NA
ATOM     18  C   UNL     1      -2.412   1.956  23.658  0.00  0.00    +0.257 C 
ATOM     19  O   UNL     1      -2.894   2.597  23.460  0.00  0.00    -0.272 OA
ATOM     20  C   UNL     1      -2.738   1.414  24.188  0.00  0.00    +0.151 C 
ATOM     21  C   UNL     1      -2.400   0.725  24.491  0.00  0.00    +0.083 C 
ATOM     22  C   UNL     1      -2.948   0.375  24.999  0.00  0.00    +0.035 C 
ATOM     23  C   UNL     1      -3.624   0.848  25.010  0.00  0.00    +0.074 C 
ATOM     24  N   UNL     1      -3.494   1.490  24.509  0.00  0.00    -0.262 NA
ATOM     33  N   UNL     1      -1.654   0.408  24.338  0.00  0.00    -0.271 NA
ATOM     34  C   UNL     1      -1.477  -0.296  24.731  0.00  0.00    +0.090 C 
ENDROOT
BRANCH  15  14
ATOM     14  C   UNL     1      -0.370   0.253  23.811  0.00  0.00    +0.027 C 
BRANCH  14  13
ATOM     13  C   UNL     1       0.285   0.535  23.396  0.00  0.00    +0.087 C 
BRANCH  13  11
ATOM      5  C   UNL     1       3.214   0.568  22.875  0.00  0.00    +0.102 C 
ATOM      6  C   UNL     1       2.689   1.098  23.229  0.00  0.00    +0.033 C 
ATOM      7  C   UNL     1       1.888   0.910  23.285  0.00  0.00    +0.094 C 
ATOM      8  N   UNL     1       1.610   0.193  22.986  0.00  0.00    -0.280 N 
ATOM      9  C   UNL     1       2.135  -0.337  22.632  0.00  0.00    +0.094 C 
ATOM     10  C   UNL     1       2.936  -0.149  22.576  0.00  0.00    +0.033 C 
ATOM     11  C   UNL     1       0.810   0.005  23.042  0.00  0.00    +0.226 C 
ATOM     12  O   UNL     1       0.532  -0.712  22.744  0.00  0.00    -0.275 OA
BRANCH   5   3
ATOM      3  C   UNL     1       4.015   0.756  22.819  0.00  0.00    +0.317 C 
ATOM      4  O   UNL     1       4.329   1.017  22.102  0.00  0.00    -0.250 OA
BRANCH   3   2
ATOM      1  C   UNL     1       5.301   0.494  23.385  0.00  0.00    +0.256 C 
ATOM      2  O   UNL     1       4.503   0.682  23.480  0.00  0.00    -0.444 OA
ENDBRANCH   3   2
ENDBRANCH   5   3
ENDBRANCH  13  11
ENDBRANCH  14  13
ENDBRANCH  15  14
BRANCH  24  25
ATOM     25  C   UNL     1      -4.027   2.101  24.356  0.00  0.00    +0.100 C 
BRANCH  25  26
ATOM     26  C   UNL     1      -4.677   2.215  24.851  0.00  0.00    -0.006 A 
ATOM     27  C   UNL     1      -5.364   1.773  24.738  0.00  0.00    -0.001 A 
ATOM     28  C   UNL     1      -6.014   1.887  25.233  0.00  0.00    +0.029 A 
ATOM     29  C   UNL     1      -5.976   2.443  25.842  0.00  0.00    +0.140 A 
ATOM     30  F   UNL     1      -6.627   2.557  26.337  0.00  0.00    -0.204 F 
ATOM     31  C   UNL     1      -5.289   2.885  25.955  0.00  0.00    +0.029 A 
ATOM     32  C   UNL     1      -4.639   2.771  25.460  0.00  0.00    -0.001 A 
ENDBRANCH  25  26
ENDBRANCH  24  25
TORSDOF 7
ENDMDL
MODEL 2
REMARK VINA RESULT:      -8.0      0.716      1.261
REMARK  Name = 
REMARK  7 active torsions:
REMARK  status: ('A' for Active; 'I' for Inactive)
REMARK    1  A    between atoms: O_2  and  C_3
REMARK    2  A    between atoms: C_3  and  C_5
REMARK    3  A    between atoms: C_11  and  C_13
REMARK    4  A    between atoms: C_13  and  C_14
REMARK    5  A    between atoms: C_14  and  C_15
REMARK    6  A    between atoms: N_24  and  C_25
REMARK    7  A    between atoms: C_25  and  C_26
REMARK                            x       y       z     vdW  Elec       q    Type
REMARK                         _______ _______ _______ _____ _____    ______ ____
ROOT
ATOM     15  C   UNL     1      -1.013   0.837  23.562  0.00  0.00    +0.080 C 
ATOM     16  C   UNL     1      -1.017   0.345  24.224  0.00  0.00    +0.131 C 
ATOM     17  N   UNL     1      -1.587   0.287  24.818  0.00  0.00    -0.203 NA
ATOM     18  C   UNL     1      -2.292   0.707  24.897  0.00  0.00    +0.257 C 
ATOM     19  O   UNL     1      -2.748   0.521  25.560  0.00  0.00    -0.272 OA
ATOM     20  C   UNL     1      -2.602   1.289  24.401  0.00  0.00    +0.151 C 
ATOM     21  C   UNL     1      -2.284   1.594  23.704  0.00  0.00    +0.083 C 
ATOM     22  C   UNL     1      -2.805   2.165  23.414  0.00  0.00    +0.035 C 
ATOM     23  C   UNL     1      -3.446   2.212  23.933  0.00  0.00    +0.074 C 
ATOM     24  N   UNL     1      -3.320   1.671  24.543  0.00  0.00    -0.262 NA
ATOM     33  N   UNL     1      -1.577   1.393  23.331  0.00  0.00    -0.271 NA
ATOM     34  C   UNL     1      -1.411   1.802  22.633  0.00  0.00    +0.090 C 
ENDROOT
BRANCH  15  14
ATOM     14  C   UNL     1      -0.358   0.764  23.065  0.00  0.00    +0.027 C 
BRANCH  14  13
ATOM     13  C   UNL     1       0.329   0.398  23.340  0.00  0.00    +0.087 C 
BRANCH  13  11
ATOM      5  C   UNL     1       3.263   0.516  22.866  0.00  0.00    +0.102 C 
ATOM      6  C   UNL     1       2.754   0.890  23.397  0.00  0.00    +0.033 C 
ATOM      7  C   UNL     1       1.946   0.726  23.378  0.00  0.00    +0.094 C 
ATOM      8  N   UNL     1       1.646   0.188  22.828  0.00  0.00    -0.280 N 
ATOM      9  C   UNL     1       2.156  -0.185  22.297  0.00  0.00    +0.094 C 
ATOM     10  C   UNL     1       2.963  -0.022  22.316  0.00  0.00    +0.033 C 
ATOM     11  C   UNL     1       0.838   0.025  22.809  0.00  0.00    +0.226 C 
ATOM     12  O   UNL     1       0.539  -0.513  22.259  0.00  0.00    -0.275 OA
BRANCH   5   3
ATOM      3  C   UNL     1       4.072   0.680  22.885  0.00  0.00    +0.317 C 
ATOM      4  O   UNL     1       4.352   1.403  22.605  0.00  0.00    -0.250 OA
BRANCH   3   2
ATOM      1  C   UNL     1       5.365   0.345  23.393  0.00  0.00    +0.256 C 
ATOM      2  O   UNL     1       4.599   0.120  23.183  0.00  0.00    -0.444 OA
ENDBRANCH   3   2
ENDBRANCH   5   3
ENDBRANCH  13  11
ENDBRANCH  14  13
ENDBRANCH  15  14
BRANCH  24  25
ATOM     25  C   UNL     1      -3.824   1.535  25.182  0.00  0.00    +0.100 C 
BRANCH  25  26
ATOM     26  C   UNL     1      -4.489   2.012  25.291  0.00  0.00    -0.006 A 
ATOM     27  C   UNL     1      -4.411   2.751  25.650  0.00  0.00    -0.001 A 
ATOM     28  C   UNL     1      -5.075   3.228  25.759  0.00  0.00    +0.029 A 
ATOM     29  C   UNL     1      -5.817   2.966  25.510  0.00  0.00    +0.140 A 
ATOM     30  F   UNL     1      -6.480   3.444  25.620  0.00  0.00    -0.204 F 
ATOM     31  C   UNL     1      -5.894   2.227  25.151  0.00  0.00    +0.029 A 
ATOM     32  C   UNL     1      -5.230   1.750  25.042  0.00  0.00    -0.001 A 
ENDBRANCH  25  26
ENDBRANCH  24  25
TORSDOF 7
ENDMDL
MODEL 3
REMARK VINA RESULT:      -7.8      2.624      7.140
REMARK  Name = 
REMARK  7 active torsions:
REMARK  status: ('A' for Active; 'I' for Inactive)
REMARK    1  A    between atoms: O_2  and  C_3
REMARK    2  A    between atoms: C_3  and  C_5
REMARK    3  A    between atoms: C_11  and  C_13
REMARK    4  A    between atoms: C_13  and  C_14
REMARK    5  A    between atoms: C_14  and  C_15
REMARK    6  A    between atoms: N_24  and  C_25
REMARK    7  A    between atoms: C_25  and  C_26
REMARK                            x       y       z     vdW  Elec       q    Type
REMARK                         _______ _______ _______ _____ _____    ______ ____
ROOT
ATOM     15  C   UNL     1      -0.615   0.311  24.157  0.00  0.00    +0.080 C 
ATOM     16  C   UNL     1      -0.480   1.084  24.415  0.00  0.00    +0.131 C 
ATOM     17  N   UNL     1       0.188   1.554  24.304  0.00  0.00    -0.203 NA
ATOM     18  C   UNL     1       0.887   1.368  23.908  0.00  0.00    +0.257 C 
ATOM     19  O   UNL     1       1.459   1.963  23.893  0.00  0.00    -0.272 OA
ATOM     20  C   UNL     1       1.090   0.667  23.524  0.00  0.00    +0.151 C 
ATOM     21  C   UNL     1       0.645  -0.023  23.442  0.00  0.00    +0.083 C 
ATOM     22  C   UNL     1       1.092  -0.566  23.012  0.00  0.00    +0.035 C 
ATOM     23  C   UNL     1       1.815  -0.213  22.829  0.00  0.00    +0.074 C 
ATOM     24  N   UNL     1       1.814   0.549  23.145  0.00  0.00    -0.262 NA
ATOM     33  N   UNL     1      -0.114  -0.180  23.724  0.00  0.00    -0.271 NA
ATOM     34  C   UNL     1      -0.412  -0.930  23.549  0.00  0.00    +0.090 C 
ENDROOT
BRANCH  15  14
ATOM     14  C   UNL     1      -1.347  -0.011  24.358  0.00  0.00    +0.027 C 
BRANCH  14  13
ATOM     13  C   UNL     1      -1.995   0.484  24.485  0.00  0.00    +0.087 C 
BRANCH  13  11
ATOM      5  C   UNL     1      -4.686   1.636  25.018  0.00  0.00    +0.102 C 
ATOM      6  C   UNL     1      -3.969   1.951  24.757  0.00  0.00    +0.033 C 
ATOM      7  C   UNL     1      -3.312   1.463  24.666  0.00  0.00    +0.094 C 
ATOM      8  N   UNL     1      -3.369   0.657  24.837  0.00  0.00    -0.280 N 
ATOM      9  C   UNL     1      -4.085   0.342  25.098  0.00  0.00    +0.094 C 
ATOM     10  C   UNL     1      -4.743   0.830  25.189  0.00  0.00    +0.033 C 
ATOM     11  C   UNL     1      -2.712   0.169  24.746  0.00  0.00    +0.226 C 
ATOM     12  O   UNL     1      -2.769  -0.637  24.917  0.00  0.00    -0.275 OA
BRANCH   5   3
ATOM      3  C   UNL     1      -5.344   2.125  25.109  0.00  0.00    +0.317 C 
ATOM      4  O   UNL     1      -6.046   1.949  24.713  0.00  0.00    -0.250 OA
BRANCH   3   2
ATOM      1  C   UNL     1      -5.957   3.281  25.683  0.00  0.00    +0.256 C 
ATOM      2  O   UNL     1      -5.300   2.790  25.595  0.00  0.00    -0.444 OA
ENDBRANCH   3   2
ENDBRANCH   5   3
ENDBRANCH  13  11
ENDBRANCH  14  13
ENDBRANCH  15  14
BRANCH  24  25
ATOM     25  C   UNL     1       2.428   1.097  23.091  0.00  0.00    +0.100 C 
BRANCH  25  26
ATOM     26  C   UNL     1       3.201   0.839  22.965  0.00  0.00    -0.006 A 
ATOM     27  C   UNL     1       3.490   0.764  22.195  0.00  0.00    -0.001 A 
ATOM     28  C   UNL     1       4.263   0.505  22.069  0.00  0.00    +0.029 A 
ATOM     29  C   UNL     1       4.748   0.322  22.711  0.00  0.00    +0.140 A 
ATOM     30  F   UNL     1       5.521   0.063  22.584  0.00  0.00    -0.204 F 
ATOM     31  C   UNL     1       4.459   0.397  23.481  0.00  0.00    +0.029 A 
ATOM     32  C   UNL     1       3.686   0.655  23.607  0.00  0.00    -0.001 A 
ENDBRANCH  25  26
ENDBRANCH  24  25
TORSDOF 7
ENDMDL
MODEL 4
REMARK VINA RESULT:      -6.4      3.451      5.203
REMARK  Name = 
REMARK  7 active torsions:
REMARK  status: ('A' for Active; 'I' for Inactive)
REMARK    1  A    between atoms: O_2  and  C_3
REMARK    2  A    between atoms: C_3  and  C_5
REMARK    3  A    between atoms: C_11  and  C_13
REMARK    4  A    between atoms: C_13  and  C_14
REMARK    5  A    between atoms: C_14  and  C_15
REMARK    6  A    between atoms: N_24  and  C_25
REMARK    7  A    between atoms: C_25  and  C_26
REMARK                            x       y       z     vdW  Elec       q    Type
REMARK                         _______ _______ _______ _____ _____    ______ ____
ROOT
ATOM     15  C   UNL     1      -0.480   0.584  25.009  0.00  0.00    +0.080 C 
ATOM     16  C   UNL     1      -0.496   0.691  25.828  0.00  0.00    +0.131 C 
ATOM     17  N   UNL     1      -0.526   1.396  26.254  0.00  0.00    -0.203 NA
ATOM     18  C   UNL     1      -0.546   2.169  25.967  0.00  0.00    +0.257 C 
ATOM     19  O   UNL     1      -0.574   2.763  26.541  0.00  0.00    -0.272 OA
ATOM     20  C   UNL     1      -0.542   2.428  25.184  0.00  0.00    +0.151 C 
ATOM     21  C   UNL     1      -0.517   1.977  24.494  0.00  0.00    +0.083 C 
ATOM     22  C   UNL     1      -0.523   2.495  23.851  0.00  0.00    +0.035 C 
ATOM     23  C   UNL     1      -0.553   3.266  24.145  0.00  0.00    +0.074 C 
ATOM     24  N   UNL     1      -0.564   3.224  24.968  0.00  0.00    -0.262 NA
ATOM     33  N   UNL     1      -0.489   1.157  24.416  0.00  0.00    -0.271 NA
ATOM     34  C   UNL     1      -0.468   0.871  23.642  0.00  0.00    +0.090 C 
ENDROOT
BRANCH  15  14
ATOM     14  C   UNL     1      -0.451  -0.199  24.751  0.00  0.00    +0.027 C 
BRANCH  14  13
ATOM     13  C   UNL     1      -0.886  -0.780  25.144  0.00  0.00    +0.087 C 
BRANCH  13  11
ATOM      5  C   UNL     1      -3.128  -2.581  24.385  0.00  0.00    +0.102 C 
ATOM      6  C   UNL     1      -3.087  -1.816  24.693  0.00  0.00    +0.033 C 
ATOM      7  C   UNL     1      -2.354  -1.471  24.843  0.00  0.00    +0.094 C 
ATOM      8  N   UNL     1      -1.660  -1.889  24.686  0.00  0.00    -0.280 N 
ATOM      9  C   UNL     1      -1.701  -2.654  24.378  0.00  0.00    +0.094 C 
ATOM     10  C   UNL     1      -2.435  -2.999  24.228  0.00  0.00    +0.033 C 
ATOM     11  C   UNL     1      -0.927  -1.544  24.836  0.00  0.00    +0.226 C 
ATOM     12  O   UNL     1      -0.233  -1.963  24.678  0.00  0.00    -0.275 OA
BRANCH   5   3
ATOM      3  C   UNL     1      -3.862  -2.927  24.235  0.00  0.00    +0.317 C 
ATOM      4  O   UNL     1      -4.044  -3.665  24.556  0.00  0.00    -0.250 OA
BRANCH   3   2
ATOM      1  C   UNL     1      -5.034  -2.955  23.418  0.00  0.00    +0.256 C 
ATOM      2  O   UNL     1      -4.414  -2.534  23.765  0.00  0.00    -0.444 OA
ENDBRANCH   3   2
ENDBRANCH   5   3
ENDBRANCH  13  11
ENDBRANCH  14  13
ENDBRANCH  15  14
BRANCH  24  25
ATOM     25  C   UNL     1      -0.593   3.867  25.486  0.00  0.00    +0.100 C 
BRANCH  25  26
ATOM     26  C   UNL     1      -0.976   4.561  25.260  0.00  0.00    -0.006 A 
ATOM     27  C   UNL     1      -0.557   5.153  24.864  0.00  0.00    -0.001 A 
ATOM     28  C   UNL     1      -0.939   5.848  24.638  0.00  0.00    +0.029 A 
ATOM     29  C   UNL     1      -1.740   5.952  24.806  0.00  0.00    +0.140 A 
ATOM     30  F   UNL     1      -2.122   6.647  24.579  0.00  0.00    -0.204 F 
ATOM     31  C   UNL     1      -2.159   5.360  25.201  0.00  0.00    +0.029 A 
ATOM     32  C   UNL     1      -1.777   4.666  25.428  0.00  0.00    -0.001 A 
ENDBRANCH  25  26
ENDBRANCH  24  25
TORSDOF 7
ENDMDL
MODEL 5
REMARK VINA RESULT:      -5.5      3.302      4.901
REMARK  Name = 
REMARK  7 active torsions:
REMARK  status: ('A' for Active; 'I' for Inactive)
REMARK    1  A    between atoms: O_2  and  C_3
REMARK    2  A    between atoms: C_3  and  C_5
REMARK    3  A    between atoms: C_11  and  C_13
REMARK    4  A    between atoms: C_13  and  C_14
REMARK    5  A    between atoms: C_14  and  C_15
REMARK    6  A    between atoms: N_24  and  C_25
REMARK    7  A    between atoms: C_25  and  C_26
REMARK                            x       y       z     vdW  Elec       q    Type
REMARK                         _______ _______ _______ _____ _____    ______ ____
ROOT
ATOM     15  C   UNL     1      -0.600   0.363  25.085  0.00  0.00    +0.080 C 
ATOM     16  C   UNL     1      -1.092   0.475  25.739  0.00  0.00    +0.131 C 
ATOM     17  N   UNL     1      -1.719   0.006  25.997  0.00  0.00    -0.203 NA
ATOM     18  C   UNL     1      -2.010  -0.691  25.666  0.00  0.00    +0.257 C 
ATOM     19  O   UNL     1      -2.651  -1.033  26.058  0.00  0.00    -0.272 OA
ATOM     20  C   UNL     1      -1.747  -1.091  24.995  0.00  0.00    +0.151 C 
ATOM     21  C   UNL     1      -1.126  -0.893  24.488  0.00  0.00    +0.083 C 
ATOM     22  C   UNL     1      -1.084  -1.469  23.899  0.00  0.00    +0.035 C 
ATOM     23  C   UNL     1      -1.680  -2.023  24.041  0.00  0.00    +0.074 C 
ATOM     24  N   UNL     1      -2.089  -1.789  24.718  0.00  0.00    -0.262 NA
ATOM     33  N   UNL     1      -0.616  -0.246  24.529  0.00  0.00    -0.271 NA
ATOM     34  C   UNL     1      -0.046  -0.202  23.934  0.00  0.00    +0.090 C 
ENDROOT
BRANCH  15  14
ATOM     14  C   UNL     1      -0.017   0.935  24.973  0.00  0.00    +0.027 C 
BRANCH  14  13
ATOM     13  C   UNL     1      -0.125   1.698  25.269  0.00  0.00    +0.087 C 
BRANCH  13  11
ATOM      5  C   UNL     1      -0.984   4.535  25.021  0.00  0.00    +0.102 C 
ATOM      6  C   UNL     1      -1.270   3.885  25.441  0.00  0.00    +0.033 C 
ATOM      7  C   UNL     1      -0.889   3.156  25.384  0.00  0.00    +0.094 C 
ATOM      8  N   UNL     1      -0.220   3.076  24.906  0.00  0.00    -0.280 N 
ATOM      9  C   UNL     1       0.066   3.727  24.486  0.00  0.00    +0.094 C 
ATOM     10  C   UNL     1      -0.315   4.455  24.544  0.00  0.00    +0.033 C 
ATOM     11  C   UNL     1       0.161   2.348  24.849  0.00  0.00    +0.226 C 
ATOM     12  O   UNL     1       0.829   2.268  24.371  0.00  0.00    -0.275 OA
BRANCH   5   3
ATOM      3  C   UNL     1      -1.365   5.265  25.079  0.00  0.00    +0.317 C 
ATOM      4  O   UNL     1      -1.015   5.939  24.758  0.00  0.00    -0.250 OA
BRANCH   3   2
ATOM      1  C   UNL     1      -2.589   5.964  25.312  0.00  0.00    +0.256 C 
ATOM      2  O   UNL     1      -2.096   5.318  25.457  0.00  0.00    -0.444 OA
ENDBRANCH   3   2
ENDBRANCH   5   3
ENDBRANCH  13  11
ENDBRANCH  14  13
ENDBRANCH  15  14
BRANCH  24  25
ATOM     25  C   UNL     1      -2.728  -2.185  25.059  0.00  0.00    +0.100 C 
BRANCH  25  26
ATOM     26  C   UNL     1      -3.343  -2.461  24.583  0.00  0.00    -0.006 A 
ATOM     27  C   UNL     1      -3.883  -1.928  24.257  0.00  0.00    -0.001 A 
ATOM     28  C   UNL     1      -4.497  -2.205  23.781  0.00  0.00    +0.029 A 
ATOM     29  C   UNL     1      -4.573  -3.012  23.631  0.00  0.00    +0.140 A 
ATOM     30  F   UNL     1      -5.188  -3.287  23.155  0.00  0.00    -0.204 F 
ATOM     31  C   UNL     1      -4.033  -3.545  23.957  0.00  0.00    +0.029 A 
ATOM     32  C   UNL     1      -3.418  -3.269  24.433  0.00  0.00    -0.001 A 
ENDBRANCH  25  26
ENDBRANCH  24  25
TORSDOF 7
ENDMDL
