MODEL 1
REMARK VINA RESULT:      -9.6      0.000      0.000
REMARK  Name = 
REMARK  6 active torsions:
REMARK  status: ('A' for Active; 'I' for Inactive)
REMARK    1  A    between atoms: C_3  and  C_4
REMARK    2  A    between atoms: C_4  and  N_5
REMARK    3  A    between atoms: C_6  and  C_8
REMARK    4  A    between atoms: C_15  and  N_16
REMARK    5  A    between atoms: N_16  and  C_17
REMARK    6  A    between atoms: C_17  and  C_18
REMARK                            x       y       z     vdW  Elec       q    Type
REMARK                         _______ _______ _______ _____ _____    ______ ____
ROOT
ATOM      1  O   UNL     1      -1.164   0.316  25.216  0.00  0.00    -0.219 OA
ATOM      2  C   UNL     1      -1.864   0.719  25.048  0.00  0.00    +0.199 C 
ATOM      3  C   UNL     1      -1.972   1.536  25.075  0.00  0.00    +0.169 C 
ATOM     13  O   UNL     1      -2.754   1.697  24.868  0.00  0.00    -0.350 OA
ATOM     14  C   UNL     1      -3.130   0.979  24.714  0.00  0.00    +0.162 C 
ATOM     15  C   UNL     1      -2.581   0.374  24.825  0.00  0.00    +0.135 C 
ENDROOT
BRANCH   3   4
ATOM      4  C   UNL     1      -1.398   2.095  25.273  0.00  0.00    +0.147 C 
BRANCH   4   5
ATOM      5  N   UNL     1      -1.520   2.892  25.099  0.00  0.00    -0.203 NA
ATOM      6  C   UNL     1      -0.992   3.461  25.378  0.00  0.00    +0.241 C 
ATOM      7  O   UNL     1      -0.342   3.233  25.832  0.00  0.00    -0.273 OA
BRANCH   6   8
ATOM      8  C   UNL     1      -1.115   4.258  25.204  0.00  0.00    +0.078 C 
ATOM      9  C   UNL     1      -1.763   4.712  25.438  0.00  0.00    +0.009 C 
ATOM     10  C   UNL     1      -1.659   5.475  25.144  0.00  0.00    +0.001 C 
ATOM     11  C   UNL     1      -0.947   5.494  24.729  0.00  0.00    +0.001 C 
ATOM     12  C   UNL     1      -0.610   4.743  24.766  0.00  0.00    +0.009 C 
ENDBRANCH   6   8
ENDBRANCH   4   5
ENDBRANCH   3   4
BRANCH  15  16
ATOM     16  N   UNL     1      -2.721  -0.432  24.731  0.00  0.00    -0.209 NA
BRANCH  16  17
ATOM     17  C   UNL     1      -3.490  -0.727  24.791  0.00  0.00    +0.117 C 
BRANCH  17  18
ATOM     18  C   UNL     1      -3.644  -1.517  24.612  0.00  0.00    +0.014 A 
ATOM     19  C   UNL     1      -4.083  -1.710  23.941  0.00  0.00    +0.000 A 
ATOM     20  C   UNL     1      -4.237  -2.501  23.762  0.00  0.00    +0.020 A 
ATOM     21  C   UNL     1      -3.953  -3.098  24.255  0.00  0.00    +0.099 A 
ATOM     22  N   UNL     1      -3.514  -2.905  24.926  0.00  0.00    -0.243 NA
ATOM     23  C   UNL     1      -3.359  -2.115  25.105  0.00  0.00    +0.096 A 
ENDBRANCH  17  18
ENDBRANCH  16  17
ENDBRANCH  15  16
TORSDOF 6
ENDMDL
MODEL 2
REMARK VINA RESULT:      -9.5      1.076      5.968
REMARK  Name = 
REMARK  6 active torsions:
REMARK  status: ('A' for Active; 'I' for Inactive)
REMARK    1  A    between atoms: C_3  and  C_4
REMARK    2  A    between atoms: C_4  and  N_5
REMARK    3  A    between atoms: C_6  and  C_8
REMARK    4  A    between atoms: C_15  and  N_16
REMARK    5  A    between atoms: N_16  and  C_17
REMARK    6  A    between atoms: C_17  and  C_18
REMARK                            x       y       z     vdW  Elec       q    Type
REMARK                         _______ _______ _______ _____ _____    ______ ____
ROOT
ATOM      1  O   UNL     1      -3.757   2.103  24.023  0.00  0.00    -0.219 OA
ATOM      2  C   UNL     1      -3.154   1.727  24.442  0.00  0.00    +0.199 C 
ATOM      3  C   UNL     1      -3.117   0.923  24.621  0.00  0.00    +0.169 C 
ATOM     13  O   UNL     1      -2.423   0.788  25.045  0.00  0.00    -0.350 OA
ATOM     14  C   UNL     1      -2.031   1.509  25.128  0.00  0.00    +0.162 C 
ATOM     15  C   UNL     1      -2.482   2.090  24.756  0.00  0.00    +0.135 C 
ENDROOT
BRANCH   3   4
ATOM      4  C   UNL     1      -3.676   0.353  24.412  0.00  0.00    +0.147 C 
BRANCH   4   5
ATOM      5  N   UNL     1      -3.485  -0.448  24.456  0.00  0.00    -0.203 NA
ATOM      6  C   UNL     1      -4.069  -1.019  24.333  0.00  0.00    +0.241 C 
ATOM      7  O   UNL     1      -4.843  -0.788  24.167  0.00  0.00    -0.273 OA
BRANCH   6   8
ATOM      8  C   UNL     1      -3.877  -1.820  24.377  0.00  0.00    +0.078 C 
ATOM      9  C   UNL     1      -4.049  -2.392  23.808  0.00  0.00    +0.009 C 
ATOM     10  C   UNL     1      -3.759  -3.115  24.076  0.00  0.00    +0.001 C 
ATOM     11  C   UNL     1      -3.407  -2.991  24.812  0.00  0.00    +0.001 C 
ATOM     12  C   UNL     1      -3.480  -2.191  24.998  0.00  0.00    +0.009 C 
ENDBRANCH   6   8
ENDBRANCH   4   5
ENDBRANCH   3   4
BRANCH  15  16
ATOM     16  N   UNL     1      -2.296   2.891  24.705  0.00  0.00    -0.209 NA
BRANCH  16  17
ATOM     17  C   UNL     1      -1.743   3.219  25.222  0.00  0.00    +0.117 C 
BRANCH  17  18
ATOM     18  C   UNL     1      -1.509   4.006  25.132  0.00  0.00    +0.014 A 
ATOM     19  C   UNL     1      -0.779   4.182  24.792  0.00  0.00    +0.000 A 
ATOM     20  C   UNL     1      -0.545   4.969  24.701  0.00  0.00    +0.020 A 
ATOM     21  C   UNL     1      -1.042   5.578  24.951  0.00  0.00    +0.099 A 
ATOM     22  N   UNL     1      -1.773   5.401  25.291  0.00  0.00    -0.243 NA
ATOM     23  C   UNL     1      -2.007   4.615  25.382  0.00  0.00    +0.096 A 
ENDBRANCH  17  18
ENDBRANCH  16  17
ENDBRANCH  15  16
TORSDOF 6
ENDMDL
MODEL 3
REMARK VINA RESULT:      -6.7     15.724     18.235
REMARK  Name = 
REMARK  6 active torsions:
REMARK  status: ('A' for Active; 'I' for Inactive)
REMARK    1  A    between atoms: C_3  and  C_4
REMARK    2  A    between atoms: C_4  and  N_5
REMARK    3  A    between atoms: C_6  and  C_8
REMARK    4  A    between atoms: C_15  and  N_16
REMARK    5  A    between atoms: N_16  and  C_17
REMARK    6  A    between atoms: C_17  and  C_18
REMARK                            x       y       z     vdW  Elec       q    Type
REMARK                         _______ _______ _______ _____ _____    ______ ____
ROOT
ATOM      1  O   UNL     1      13.092   6.622  19.089  0.00  0.00    -0.219 OA
ATOM      2  C   UNL     1      13.445   7.328  19.330  0.00  0.00    +0.199 C 
ATOM      3  C   UNL     1      13.051   7.993  19.618  0.00  0.00    +0.169 C 
ATOM     13  O   UNL     1      13.616   8.568  19.790  0.00  0.00    -0.350 OA
ATOM     14  C   UNL     1      14.359   8.260  19.608  0.00  0.00    +0.162 C 
ATOM     15  C   UNL     1      14.254   7.493  19.323  0.00  0.00    +0.135 C 
ENDROOT
BRANCH   3   4
ATOM      4  C   UNL     1      12.235   8.068  19.718  0.00  0.00    +0.147 C 
BRANCH   4   5
ATOM      5  N   UNL     1      11.914   8.105  20.477  0.00  0.00    -0.203 NA
ATOM      6  C   UNL     1      11.123   8.317  20.580  0.00  0.00    +0.241 C 
ATOM      7  O   UNL     1      10.655   8.493  19.925  0.00  0.00    -0.273 OA
BRANCH   6   8
ATOM      8  C   UNL     1      10.802   8.353  21.339  0.00  0.00    +0.078 C 
ATOM      9  C   UNL     1      10.599   7.708  21.812  0.00  0.00    +0.009 C 
ATOM     10  C   UNL     1      10.299   7.997  22.523  0.00  0.00    +0.001 C 
ATOM     11  C   UNL     1      10.316   8.821  22.491  0.00  0.00    +0.001 C 
ATOM     12  C   UNL     1      10.626   9.041  21.760  0.00  0.00    +0.009 C 
ENDBRANCH   6   8
ENDBRANCH   4   5
ENDBRANCH   3   4
BRANCH  15  16
ATOM     16  N   UNL     1      14.851   6.981  19.075  0.00  0.00    -0.209 NA
BRANCH  16  17
ATOM     17  C   UNL     1      15.641   7.171  19.216  0.00  0.00    +0.117 C 
BRANCH  17  18
ATOM     18  C   UNL     1      16.228   6.602  19.104  0.00  0.00    +0.014 A 
ATOM     19  C   UNL     1      16.788   6.466  19.694  0.00  0.00    +0.000 A 
ATOM     20  C   UNL     1      17.376   5.897  19.582  0.00  0.00    +0.020 A 
ATOM     21  C   UNL     1      17.402   5.465  18.880  0.00  0.00    +0.099 A 
ATOM     22  N   UNL     1      16.842   5.601  18.290  0.00  0.00    -0.243 NA
ATOM     23  C   UNL     1      16.255   6.170  18.402  0.00  0.00    +0.096 A 
ENDBRANCH  17  18
ENDBRANCH  16  17
ENDBRANCH  15  16
TORSDOF 6
ENDMDL
MODEL 4
REMARK VINA RESULT:      -6.6     17.471     19.152
REMARK  Name = 
REMARK  6 active torsions:
REMARK  status: ('A' for Active; 'I' for Inactive)
REMARK    1  A    between atoms: C_3  and  C_4
REMARK    2  A    between atoms: C_4  and  N_5
REMARK    3  A    between atoms: C_6  and  C_8
REMARK    4  A    between atoms: C_15  and  N_16
REMARK    5  A    between atoms: N_16  and  C_17
REMARK    6  A    between atoms: C_17  and  C_18
REMARK                            x       y       z     vdW  Elec       q    Type
REMARK                         _______ _______ _______ _____ _____    ______ ____
ROOT
ATOM      1  O   UNL     1      14.403   7.231  17.170  0.00  0.00    -0.219 OA
ATOM      2  C   UNL     1      14.145   7.557  17.883  0.00  0.00    +0.199 C 
ATOM      3  C   UNL     1      14.507   7.465  18.618  0.00  0.00    +0.169 C 
ATOM     13  O   UNL     1      14.065   7.883  19.174  0.00  0.00    -0.350 OA
ATOM     14  C   UNL     1      13.428   8.233  18.783  0.00  0.00    +0.162 C 
ATOM     15  C   UNL     1      13.477   8.031  17.985  0.00  0.00    +0.135 C 
ENDROOT
BRANCH   3   4
ATOM      4  C   UNL     1      15.193   7.031  18.769  0.00  0.00    +0.147 C 
BRANCH   4   5
ATOM      5  N   UNL     1      15.515   7.022  19.529  0.00  0.00    -0.203 NA
ATOM      6  C   UNL     1      16.223   6.622  19.671  0.00  0.00    +0.241 C 
ATOM      7  O   UNL     1      16.608   6.232  19.054  0.00  0.00    -0.273 OA
BRANCH   6   8
ATOM      8  C   UNL     1      16.545   6.612  20.431  0.00  0.00    +0.078 C 
ATOM      9  C   UNL     1      17.323   6.802  20.630  0.00  0.00    +0.009 C 
ATOM     10  C   UNL     1      17.404   6.718  21.446  0.00  0.00    +0.001 C 
ATOM     11  C   UNL     1      16.677   6.475  21.752  0.00  0.00    +0.001 C 
ATOM     12  C   UNL     1      16.147   6.410  21.125  0.00  0.00    +0.009 C 
ENDBRANCH   6   8
ENDBRANCH   4   5
ENDBRANCH   3   4
BRANCH  15  16
ATOM     16  N   UNL     1      12.952   8.263  17.393  0.00  0.00    -0.209 NA
BRANCH  16  17
ATOM     17  C   UNL     1      12.183   8.488  17.589  0.00  0.00    +0.117 C 
BRANCH  17  18
ATOM     18  C   UNL     1      11.625   8.613  16.994  0.00  0.00    +0.014 A 
ATOM     19  C   UNL     1      10.842   8.380  17.108  0.00  0.00    +0.000 A 
ATOM     20  C   UNL     1      10.283   8.504  16.513  0.00  0.00    +0.020 A 
ATOM     21  C   UNL     1      10.509   8.861  15.805  0.00  0.00    +0.099 A 
ATOM     22  N   UNL     1      11.292   9.094  15.691  0.00  0.00    -0.243 NA
ATOM     23  C   UNL     1      11.850   8.970  16.286  0.00  0.00    +0.096 A 
ENDBRANCH  17  18
ENDBRANCH  16  17
ENDBRANCH  15  16
TORSDOF 6
ENDMDL
MODEL 5
REMARK VINA RESULT:      -5.7     16.077     18.632
REMARK  Name = 
REMARK  6 active torsions:
REMARK  status: ('A' for Active; 'I' for Inactive)
REMARK    1  A    between atoms: C_3  and  C_4
REMARK    2  A    between atoms: C_4  and  N_5
REMARK    3  A    between atoms: C_6  and  C_8
REMARK    4  A    between atoms: C_15  and  N_16
REMARK    5  A    between atoms: N_16  and  C_17
REMARK    6  A    between atoms: C_17  and  C_18
REMARK                            x       y       z     vdW  Elec       q    Type
REMARK                         _______ _______ _______ _____ _____    ______ ____
ROOT
ATOM      1  O   UNL     1      14.535   7.729  22.166  0.00  0.00    -0.219 OA
ATOM      2  C   UNL     1      14.348   8.052  21.430  0.00  0.00    +0.199 C 
ATOM      3  C   UNL     1      14.848   8.087  20.775  0.00  0.00    +0.169 C 
ATOM     13  O   UNL     1      14.438   8.453  20.161  0.00  0.00    -0.350 OA
ATOM     14  C   UNL     1      13.684   8.645  20.436  0.00  0.00    +0.162 C 
ATOM     15  C   UNL     1      13.628   8.398  21.221  0.00  0.00    +0.135 C 
ENDROOT
BRANCH   3   4
ATOM      4  C   UNL     1      15.622   7.804  20.740  0.00  0.00    +0.147 C 
BRANCH   4   5
ATOM      5  N   UNL     1      15.835   7.252  20.165  0.00  0.00    -0.203 NA
ATOM      6  C   UNL     1      16.620   7.006  20.099  0.00  0.00    +0.241 C 
ATOM      7  O   UNL     1      17.192   7.312  20.609  0.00  0.00    -0.273 OA
BRANCH   6   8
ATOM      8  C   UNL     1      16.832   6.455  19.523  0.00  0.00    +0.078 C 
ATOM      9  C   UNL     1      16.560   6.436  18.745  0.00  0.00    +0.009 C 
ATOM     10  C   UNL     1      16.914   5.795  18.366  0.00  0.00    +0.001 C 
ATOM     11  C   UNL     1      17.405   5.417  18.910  0.00  0.00    +0.001 C 
ATOM     12  C   UNL     1      17.355   5.824  19.625  0.00  0.00    +0.009 C 
ENDBRANCH   6   8
ENDBRANCH   4   5
ENDBRANCH   3   4
BRANCH  15  16
ATOM     16  N   UNL     1      12.970   8.480  21.710  0.00  0.00    -0.209 NA
BRANCH  16  17
ATOM     17  C   UNL     1      12.220   8.571  21.379  0.00  0.00    +0.117 C 
BRANCH  17  18
ATOM     18  C   UNL     1      11.548   8.483  21.850  0.00  0.00    +0.014 A 
ATOM     19  C   UNL     1      11.065   7.820  21.761  0.00  0.00    +0.000 A 
ATOM     20  C   UNL     1      10.393   7.732  22.232  0.00  0.00    +0.020 A 
ATOM     21  C   UNL     1      10.205   8.307  22.792  0.00  0.00    +0.099 A 
ATOM     22  N   UNL     1      10.687   8.970  22.882  0.00  0.00    -0.243 NA
ATOM     23  C   UNL     1      11.359   9.058  22.411  0.00  0.00    +0.096 A 
ENDBRANCH  17  18
ENDBRANCH  16  17
ENDBRANCH  15  16
TORSDOF 6
ENDMDL
