MODEL 1
REMARK VINA RESULT:     -11.2      0.000      0.000
REMARK  Name = 
REMARK  5 active torsions:
REMARK  status: ('A' for Active; 'I' for Inactive)
REMARK    1  A    between atoms: O_2  and  C_3
REMARK    2  A    between atoms: C_3  and  C_4
REMARK    3  A    between atoms: C_4  and  N_5
REMARK    4  A    between atoms: N_9  and  C_10
REMARK    5  A    between atoms: C_10  and  C_11
REMARK                            x       y       z     vdW  Elec       q    Type
REMARK                         _______ _______ _______ _____ _____    ______ ____
ROOT
ATOM      5  N   UNL     1      -3.363   3.416  24.998  0.00  0.00    -0.260 N 
ATOM      6  C   UNL     1      -3.083   2.751  24.599  0.00  0.00    +0.116 C 
ATOM      7  C   UNL     1      -3.649   2.155  24.671  0.00  0.00    +0.113 C 
ATOM      8  C   UNL     1      -3.674   1.379  24.391  0.00  0.00    +0.094 C 
ATOM      9  N   UNL     1      -4.326   0.902  24.554  0.00  0.00    -0.266 NA
ATOM     21  C   UNL     1      -4.954   1.199  24.998  0.00  0.00    +0.094 C 
ATOM     22  C   UNL     1      -4.931   1.974  25.279  0.00  0.00    +0.112 C 
ATOM     23  N   UNL     1      -4.277   2.452  25.116  0.00  0.00    -0.261 N 
ATOM     24  C   UNL     1      -4.100   3.233  25.318  0.00  0.00    +0.307 C 
ATOM     25  O   UNL     1      -4.577   3.739  25.761  0.00  0.00    -0.252 OA
ENDROOT
BRANCH   5   4
ATOM      4  C   UNL     1      -2.972   4.140  25.066  0.00  0.00    +0.127 C 
BRANCH   4   3
ATOM      3  C   UNL     1      -2.148   4.168  25.047  0.00  0.00    +0.164 C 
BRANCH   3   2
ATOM      1  C   UNL     1      -0.967   4.970  24.988  0.00  0.00    +0.174 C 
ATOM      2  O   UNL     1      -1.754   4.873  25.216  0.00  0.00    -0.349 OA
ENDBRANCH   3   2
ENDBRANCH   4   3
ENDBRANCH   5   4
BRANCH   9  10
ATOM     10  C   UNL     1      -4.351   0.126  24.273  0.00  0.00    +0.101 C 
BRANCH  10  11
ATOM     11  C   UNL     1      -4.018  -0.484  24.716  0.00  0.00    +0.012 A 
ATOM     12  C   UNL     1      -3.672  -0.409  25.462  0.00  0.00    +0.073 A 
ATOM     13  N   UNL     1      -3.413  -1.156  25.698  0.00  0.00    -0.324 N 
ATOM     14  C   UNL     1      -3.034  -1.335  26.410  0.00  0.00    +0.130 C 
ATOM     15  C   UNL     1      -3.598  -1.692  25.100  0.00  0.00    +0.060 A 
ATOM     16  C   UNL     1      -3.972  -1.277  24.493  0.00  0.00    +0.015 A 
ATOM     17  C   UNL     1      -4.222  -1.675  23.814  0.00  0.00    +0.001 A 
ATOM     18  C   UNL     1      -4.098  -2.487  23.744  0.00  0.00    +0.000 A 
ATOM     19  C   UNL     1      -3.724  -2.902  24.350  0.00  0.00    +0.001 A 
ATOM     20  C   UNL     1      -3.474  -2.505  25.028  0.00  0.00    +0.017 A 
ENDBRANCH  10  11
ENDBRANCH   9  10
TORSDOF 5
ENDMDL
MODEL 2
REMARK VINA RESULT:      -9.7      2.031      2.728
REMARK  Name = 
REMARK  5 active torsions:
REMARK  status: ('A' for Active; 'I' for Inactive)
REMARK    1  A    between atoms: O_2  and  C_3
REMARK    2  A    between atoms: C_3  and  C_4
REMARK    3  A    between atoms: C_4  and  N_5
REMARK    4  A    between atoms: N_9  and  C_10
REMARK    5  A    between atoms: C_10  and  C_11
REMARK                            x       y       z     vdW  Elec       q    Type
REMARK                         _______ _______ _______ _____ _____    ______ ____
ROOT
ATOM      5  N   UNL     1      -0.514   2.485  25.024  0.00  0.00    -0.260 N 
ATOM      6  C   UNL     1      -1.147   2.129  25.416  0.00  0.00    +0.116 C 
ATOM      7  C   UNL     1      -1.136   1.324  25.234  0.00  0.00    +0.113 C 
ATOM      8  C   UNL     1      -1.626   0.699  25.462  0.00  0.00    +0.094 C 
ATOM      9  N   UNL     1      -1.477  -0.063  25.187  0.00  0.00    -0.266 NA
ATOM     21  C   UNL     1      -0.838  -0.203  24.684  0.00  0.00    +0.094 C 
ATOM     22  C   UNL     1      -0.349   0.420  24.455  0.00  0.00    +0.112 C 
ATOM     23  N   UNL     1      -0.498   1.184  24.731  0.00  0.00    -0.261 N 
ATOM     24  C   UNL     1      -0.113   1.903  24.601  0.00  0.00    +0.307 C 
ATOM     25  O   UNL     1       0.555   2.017  24.131  0.00  0.00    -0.252 OA
ENDROOT
BRANCH   5   4
ATOM      4  C   UNL     1      -0.318   3.286  25.052  0.00  0.00    +0.127 C 
BRANCH   4   3
ATOM      3  C   UNL     1      -0.911   3.855  25.120  0.00  0.00    +0.164 C 
BRANCH   3   2
ATOM      1  C   UNL     1      -1.320   5.224  25.095  0.00  0.00    +0.174 C 
ATOM      2  O   UNL     1      -0.721   4.657  25.084  0.00  0.00    -0.349 OA
ENDBRANCH   3   2
ENDBRANCH   4   3
ENDBRANCH   5   4
BRANCH   9  10
ATOM     10  C   UNL     1      -1.966  -0.688  25.415  0.00  0.00    +0.101 C 
BRANCH  10  11
ATOM     11  C   UNL     1      -2.688  -0.806  25.034  0.00  0.00    +0.012 A 
ATOM     12  C   UNL     1      -3.227  -0.218  24.822  0.00  0.00    +0.073 A 
ATOM     13  N   UNL     1      -3.870  -0.583  24.456  0.00  0.00    -0.324 N 
ATOM     14  C   UNL     1      -4.538  -0.201  24.156  0.00  0.00    +0.130 C 
ATOM     15  C   UNL     1      -3.730  -1.395  24.442  0.00  0.00    +0.060 A 
ATOM     16  C   UNL     1      -2.999  -1.534  24.799  0.00  0.00    +0.015 A 
ATOM     17  C   UNL     1      -2.711  -2.304  24.865  0.00  0.00    +0.001 A 
ATOM     18  C   UNL     1      -3.154  -2.936  24.573  0.00  0.00    +0.000 A 
ATOM     19  C   UNL     1      -3.884  -2.798  24.215  0.00  0.00    +0.001 A 
ATOM     20  C   UNL     1      -4.172  -2.028  24.150  0.00  0.00    +0.017 A 
ENDBRANCH  10  11
ENDBRANCH   9  10
TORSDOF 5
ENDMDL
MODEL 3
REMARK VINA RESULT:      -9.4      2.948      4.458
REMARK  Name = 
REMARK  5 active torsions:
REMARK  status: ('A' for Active; 'I' for Inactive)
REMARK    1  A    between atoms: O_2  and  C_3
REMARK    2  A    between atoms: C_3  and  C_4
REMARK    3  A    between atoms: C_4  and  N_5
REMARK    4  A    between atoms: N_9  and  C_10
REMARK    5  A    between atoms: C_10  and  C_11
REMARK                            x       y       z     vdW  Elec       q    Type
REMARK                         _______ _______ _______ _____ _____    ______ ____
ROOT
ATOM      5  N   UNL     1      -0.323  -0.064  24.002  0.00  0.00    -0.260 N 
ATOM      6  C   UNL     1      -0.817   0.472  23.615  0.00  0.00    +0.116 C 
ATOM      7  C   UNL     1      -1.543   0.476  24.007  0.00  0.00    +0.113 C 
ATOM      8  C   UNL     1      -2.241   0.896  23.874  0.00  0.00    +0.094 C 
ATOM      9  N   UNL     1      -2.891   0.783  24.368  0.00  0.00    -0.266 NA
ATOM     21  C   UNL     1      -2.845   0.250  24.996  0.00  0.00    +0.094 C 
ATOM     22  C   UNL     1      -2.148  -0.170  25.130  0.00  0.00    +0.112 C 
ATOM     23  N   UNL     1      -1.497  -0.057  24.635  0.00  0.00    -0.261 N 
ATOM     24  C   UNL     1      -0.742  -0.391  24.631  0.00  0.00    +0.307 C 
ATOM     25  O   UNL     1      -0.458  -0.953  25.165  0.00  0.00    -0.252 OA
ENDROOT
BRANCH   5   4
ATOM      4  C   UNL     1       0.456  -0.241  23.794  0.00  0.00    +0.127 C 
BRANCH   4   3
ATOM      3  C   UNL     1       0.789   0.095  23.118  0.00  0.00    +0.164 C 
BRANCH   3   2
ATOM      1  C   UNL     1       2.129   0.134  22.624  0.00  0.00    +0.174 C 
ATOM      2  O   UNL     1       1.423  -0.276  22.742  0.00  0.00    -0.349 OA
ENDBRANCH   3   2
ENDBRANCH   4   3
ENDBRANCH   5   4
BRANCH   9  10
ATOM     10  C   UNL     1      -3.589   1.203  24.235  0.00  0.00    +0.101 C 
BRANCH  10  11
ATOM     11  C   UNL     1      -3.739   1.898  24.652  0.00  0.00    +0.012 A 
ATOM     12  C   UNL     1      -3.179   2.465  24.866  0.00  0.00    +0.073 A 
ATOM     13  N   UNL     1      -3.569   3.066  25.275  0.00  0.00    -0.324 N 
ATOM     14  C   UNL     1      -3.219   3.744  25.590  0.00  0.00    +0.130 C 
ATOM     15  C   UNL     1      -4.369   2.871  25.314  0.00  0.00    +0.060 A 
ATOM     16  C   UNL     1      -4.474   2.150  24.929  0.00  0.00    +0.015 A 
ATOM     17  C   UNL     1      -5.227   1.814  24.880  0.00  0.00    +0.001 A 
ATOM     18  C   UNL     1      -5.873   2.200  25.216  0.00  0.00    +0.000 A 
ATOM     19  C   UNL     1      -5.768   2.922  25.601  0.00  0.00    +0.001 A 
ATOM     20  C   UNL     1      -5.016   3.257  25.650  0.00  0.00    +0.017 A 
ENDBRANCH  10  11
ENDBRANCH   9  10
TORSDOF 5
ENDMDL
MODEL 4
REMARK VINA RESULT:      -9.4      2.484      5.598
REMARK  Name = 
REMARK  5 active torsions:
REMARK  status: ('A' for Active; 'I' for Inactive)
REMARK    1  A    between atoms: O_2  and  C_3
REMARK    2  A    between atoms: C_3  and  C_4
REMARK    3  A    between atoms: C_4  and  N_5
REMARK    4  A    between atoms: N_9  and  C_10
REMARK    5  A    between atoms: C_10  and  C_11
REMARK                            x       y       z     vdW  Elec       q    Type
REMARK                         _______ _______ _______ _____ _____    ______ ____
ROOT
ATOM      5  N   UNL     1      -1.808  -1.050  24.750  0.00  0.00    -0.260 N 
ATOM      6  C   UNL     1      -2.055  -0.419  24.279  0.00  0.00    +0.116 C 
ATOM      7  C   UNL     1      -1.636   0.253  24.514  0.00  0.00    +0.113 C 
ATOM      8  C   UNL     1      -1.648   1.034  24.247  0.00  0.00    +0.094 C 
ATOM      9  N   UNL     1      -1.157   1.597  24.595  0.00  0.00    -0.266 NA
ATOM     21  C   UNL     1      -0.652   1.380  25.210  0.00  0.00    +0.094 C 
ATOM     22  C   UNL     1      -0.638   0.599  25.478  0.00  0.00    +0.112 C 
ATOM     23  N   UNL     1      -1.131   0.036  25.129  0.00  0.00    -0.261 N 
ATOM     24  C   UNL     1      -1.237  -0.770  25.274  0.00  0.00    +0.307 C 
ATOM     25  O   UNL     1      -0.842  -1.215  25.845  0.00  0.00    -0.252 OA
ENDROOT
BRANCH   5   4
ATOM      4  C   UNL     1      -2.084  -1.826  24.703  0.00  0.00    +0.127 C 
BRANCH   4   3
ATOM      3  C   UNL     1      -2.840  -1.978  24.409  0.00  0.00    +0.164 C 
BRANCH   3   2
ATOM      1  C   UNL     1      -3.883  -2.907  24.109  0.00  0.00    +0.174 C 
ATOM      2  O   UNL     1      -3.100  -2.756  24.322  0.00  0.00    -0.349 OA
ENDBRANCH   3   2
ENDBRANCH   4   3
ENDBRANCH   5   4
BRANCH   9  10
ATOM     10  C   UNL     1      -1.170   2.378  24.329  0.00  0.00    +0.101 C 
BRANCH  10  11
ATOM     11  C   UNL     1      -1.661   2.930  24.693  0.00  0.00    +0.012 A 
ATOM     12  C   UNL     1      -2.413   2.782  25.001  0.00  0.00    +0.073 A 
ATOM     13  N   UNL     1      -2.704   3.489  25.312  0.00  0.00    -0.324 N 
ATOM     14  C   UNL     1      -3.438   3.593  25.675  0.00  0.00    +0.130 C 
ATOM     15  C   UNL     1      -2.133   4.073  25.196  0.00  0.00    +0.060 A 
ATOM     16  C   UNL     1      -1.489   3.728  24.814  0.00  0.00    +0.015 A 
ATOM     17  C   UNL     1      -0.828   4.185  24.625  0.00  0.00    +0.001 A 
ATOM     18  C   UNL     1      -0.812   4.986  24.818  0.00  0.00    +0.000 A 
ATOM     19  C   UNL     1      -1.456   5.332  25.201  0.00  0.00    +0.001 A 
ATOM     20  C   UNL     1      -2.117   4.875  25.390  0.00  0.00    +0.017 A 
ENDBRANCH  10  11
ENDBRANCH   9  10
TORSDOF 5
ENDMDL
MODEL 5
REMARK VINA RESULT:      -9.1      3.408      3.946
REMARK  Name = 
REMARK  5 active torsions:
REMARK  status: ('A' for Active; 'I' for Inactive)
REMARK    1  A    between atoms: O_2  and  C_3
REMARK    2  A    between atoms: C_3  and  C_4
REMARK    3  A    between atoms: C_4  and  N_5
REMARK    4  A    between atoms: N_9  and  C_10
REMARK    5  A    between atoms: C_10  and  C_11
REMARK                            x       y       z     vdW  Elec       q    Type
REMARK                         _______ _______ _______ _____ _____    ______ ____
ROOT
ATOM      5  N   UNL     1       0.717   0.552  23.628  0.00  0.00    -0.260 N 
ATOM      6  C   UNL     1       0.290  -0.152  23.673  0.00  0.00    +0.116 C 
ATOM      7  C   UNL     1      -0.311  -0.050  24.231  0.00  0.00    +0.113 C 
ATOM      8  C   UNL     1      -0.902  -0.556  24.505  0.00  0.00    +0.094 C 
ATOM      9  N   UNL     1      -1.435  -0.296  25.077  0.00  0.00    -0.266 NA
ATOM     21  C   UNL     1      -1.378   0.471  25.376  0.00  0.00    +0.094 C 
ATOM     22  C   UNL     1      -0.788   0.977  25.103  0.00  0.00    +0.112 C 
ATOM     23  N   UNL     1      -0.253   0.717  24.529  0.00  0.00    -0.261 N 
ATOM     24  C   UNL     1       0.382   1.089  24.157  0.00  0.00    +0.307 C 
ATOM     25  O   UNL     1       0.636   1.862  24.291  0.00  0.00    -0.252 OA
ENDROOT
BRANCH   5   4
ATOM      4  C   UNL     1       1.366   0.694  23.140  0.00  0.00    +0.127 C 
BRANCH   4   3
ATOM      3  C   UNL     1       1.809   0.063  22.847  0.00  0.00    +0.164 C 
BRANCH   3   2
ATOM      1  C   UNL     1       3.169   0.268  22.460  0.00  0.00    +0.174 C 
ATOM      2  O   UNL     1       2.372   0.191  22.259  0.00  0.00    -0.349 OA
ENDBRANCH   3   2
ENDBRANCH   4   3
ENDBRANCH   5   4
BRANCH   9  10
ATOM     10  C   UNL     1      -2.027  -0.802  25.351  0.00  0.00    +0.101 C 
BRANCH  10  11
ATOM     11  C   UNL     1      -2.769  -0.801  24.994  0.00  0.00    +0.012 A 
ATOM     12  C   UNL     1      -3.244  -0.139  24.864  0.00  0.00    +0.073 A 
ATOM     13  N   UNL     1      -3.937  -0.391  24.493  0.00  0.00    -0.324 N 
ATOM     14  C   UNL     1      -4.566   0.090  24.261  0.00  0.00    +0.130 C 
ATOM     15  C   UNL     1      -3.890  -1.209  24.393  0.00  0.00    +0.060 A 
ATOM     16  C   UNL     1      -3.169  -1.462  24.703  0.00  0.00    +0.015 A 
ATOM     17  C   UNL     1      -2.968  -2.262  24.680  0.00  0.00    +0.001 A 
ATOM     18  C   UNL     1      -3.490  -2.809  24.348  0.00  0.00    +0.000 A 
ATOM     19  C   UNL     1      -4.211  -2.555  24.038  0.00  0.00    +0.001 A 
ATOM     20  C   UNL     1      -4.411  -1.756  24.061  0.00  0.00    +0.017 A 
ENDBRANCH  10  11
ENDBRANCH   9  10
TORSDOF 5
ENDMDL
MODEL 6
REMARK VINA RESULT:      -8.9      1.965      5.384
REMARK  Name = 
REMARK  5 active torsions:
REMARK  status: ('A' for Active; 'I' for Inactive)
REMARK    1  A    between atoms: O_2  and  C_3
REMARK    2  A    between atoms: C_3  and  C_4
REMARK    3  A    between atoms: C_4  and  N_5
REMARK    4  A    between atoms: N_9  and  C_10
REMARK    5  A    between atoms: C_10  and  C_11
REMARK                            x       y       z     vdW  Elec       q    Type
REMARK                         _______ _______ _______ _____ _____    ______ ____
ROOT
ATOM      5  N   UNL     1      -3.390  -0.631  24.654  0.00  0.00    -0.260 N 
ATOM      6  C   UNL     1      -2.808  -0.254  25.102  0.00  0.00    +0.116 C 
ATOM      7  C   UNL     1      -2.649   0.475  24.749  0.00  0.00    +0.113 C 
ATOM      8  C   UNL     1      -2.126   1.082  24.947  0.00  0.00    +0.094 C 
ATOM      9  N   UNL     1      -2.086   1.761  24.481  0.00  0.00    -0.266 NA
ATOM     21  C   UNL     1      -2.570   1.834  23.816  0.00  0.00    +0.094 C 
ATOM     22  C   UNL     1      -3.092   1.227  23.618  0.00  0.00    +0.112 C 
ATOM     23  N   UNL     1      -3.132   0.547  24.084  0.00  0.00    -0.261 N 
ATOM     24  C   UNL     1      -3.590  -0.137  24.026  0.00  0.00    +0.307 C 
ATOM     25  O   UNL     1      -4.150  -0.296  23.441  0.00  0.00    -0.252 OA
ENDROOT
BRANCH   5   4
ATOM      4  C   UNL     1      -3.714  -1.374  24.809  0.00  0.00    +0.127 C 
BRANCH   4   3
ATOM      3  C   UNL     1      -3.223  -2.008  24.999  0.00  0.00    +0.164 C 
BRANCH   3   2
ATOM      1  C   UNL     1      -3.325  -3.407  24.729  0.00  0.00    +0.174 C 
ATOM      2  O   UNL     1      -3.548  -2.746  25.170  0.00  0.00    -0.349 OA
ENDBRANCH   3   2
ENDBRANCH   4   3
ENDBRANCH   5   4
BRANCH   9  10
ATOM     10  C   UNL     1      -1.564   2.368  24.679  0.00  0.00    +0.101 C 
BRANCH  10  11
ATOM     11  C   UNL     1      -1.848   3.064  25.016  0.00  0.00    +0.012 A 
ATOM     12  C   UNL     1      -2.532   3.138  25.472  0.00  0.00    +0.073 A 
ATOM     13  N   UNL     1      -2.606   3.929  25.694  0.00  0.00    -0.324 N 
ATOM     14  C   UNL     1      -3.211   4.249  26.154  0.00  0.00    +0.130 C 
ATOM     15  C   UNL     1      -1.968   4.345  25.376  0.00  0.00    +0.060 A 
ATOM     16  C   UNL     1      -1.500   3.810  24.957  0.00  0.00    +0.015 A 
ATOM     17  C   UNL     1      -0.817   4.071  24.575  0.00  0.00    +0.001 A 
ATOM     18  C   UNL     1      -0.602   4.867  24.612  0.00  0.00    +0.000 A 
ATOM     19  C   UNL     1      -1.070   5.401  25.032  0.00  0.00    +0.001 A 
ATOM     20  C   UNL     1      -1.753   5.140  25.413  0.00  0.00    +0.017 A 
ENDBRANCH  10  11
ENDBRANCH   9  10
TORSDOF 5
ENDMDL
MODEL 7
REMARK VINA RESULT:      -8.6      3.558      5.568
REMARK  Name = 
REMARK  5 active torsions:
REMARK  status: ('A' for Active; 'I' for Inactive)
REMARK    1  A    between atoms: O_2  and  C_3
REMARK    2  A    between atoms: C_3  and  C_4
REMARK    3  A    between atoms: C_4  and  N_5
REMARK    4  A    between atoms: N_9  and  C_10
REMARK    5  A    between atoms: C_10  and  C_11
REMARK                            x       y       z     vdW  Elec       q    Type
REMARK                         _______ _______ _______ _____ _____    ______ ____
ROOT
ATOM      5  N   UNL     1       0.473   0.188  23.534  0.00  0.00    -0.260 N 
ATOM      6  C   UNL     1       0.486   0.991  23.722  0.00  0.00    +0.116 C 
ATOM      7  C   UNL     1      -0.062   1.120  24.325  0.00  0.00    +0.113 C 
ATOM      8  C   UNL     1      -0.288   1.803  24.730  0.00  0.00    +0.094 C 
ATOM      9  N   UNL     1      -0.864   1.762  25.318  0.00  0.00    -0.266 NA
ATOM     21  C   UNL     1      -1.215   1.039  25.503  0.00  0.00    +0.094 C 
ATOM     22  C   UNL     1      -0.991   0.356  25.098  0.00  0.00    +0.112 C 
ATOM     23  N   UNL     1      -0.414   0.397  24.509  0.00  0.00    -0.261 N 
ATOM     24  C   UNL     1      -0.082  -0.180  24.020  0.00  0.00    +0.307 C 
ATOM     25  O   UNL     1      -0.274  -0.982  24.019  0.00  0.00    -0.252 OA
ENDROOT
BRANCH   5   4
ATOM      4  C   UNL     1       0.936  -0.183  22.961  0.00  0.00    +0.127 C 
BRANCH   4   3
ATOM      3  C   UNL     1       1.636   0.169  22.704  0.00  0.00    +0.164 C 
BRANCH   3   2
ATOM      1  C   UNL     1       2.885   0.022  22.026  0.00  0.00    +0.174 C 
ATOM      2  O   UNL     1       2.097  -0.200  22.127  0.00  0.00    -0.349 OA
ENDBRANCH   3   2
ENDBRANCH   4   3
ENDBRANCH   5   4
BRANCH   9  10
ATOM     10  C   UNL     1      -1.089   2.445  25.724  0.00  0.00    +0.101 C 
BRANCH  10  11
ATOM     11  C   UNL     1      -1.713   2.904  25.443  0.00  0.00    +0.012 A 
ATOM     12  C   UNL     1      -2.464   2.629  25.238  0.00  0.00    +0.073 A 
ATOM     13  N   UNL     1      -2.912   3.275  24.986  0.00  0.00    -0.324 N 
ATOM     14  C   UNL     1      -3.696   3.251  24.730  0.00  0.00    +0.130 C 
ATOM     15  C   UNL     1      -2.439   3.949  25.036  0.00  0.00    +0.060 A 
ATOM     16  C   UNL     1      -1.698   3.720  25.318  0.00  0.00    +0.015 A 
ATOM     17  C   UNL     1      -1.105   4.284  25.426  0.00  0.00    +0.001 A 
ATOM     18  C   UNL     1      -1.253   5.076  25.250  0.00  0.00    +0.000 A 
ATOM     19  C   UNL     1      -1.994   5.305  24.968  0.00  0.00    +0.001 A 
ATOM     20  C   UNL     1      -2.586   4.742  24.861  0.00  0.00    +0.017 A 
ENDBRANCH  10  11
ENDBRANCH   9  10
TORSDOF 5
ENDMDL
MODEL 8
REMARK VINA RESULT:      -8.0      2.370      4.844
REMARK  Name = 
REMARK  5 active torsions:
REMARK  status: ('A' for Active; 'I' for Inactive)
REMARK    1  A    between atoms: O_2  and  C_3
REMARK    2  A    between atoms: C_3  and  C_4
REMARK    3  A    between atoms: C_4  and  N_5
REMARK    4  A    between atoms: N_9  and  C_10
REMARK    5  A    between atoms: C_10  and  C_11
REMARK                            x       y       z     vdW  Elec       q    Type
REMARK                         _______ _______ _______ _____ _____    ______ ____
ROOT
ATOM      5  N   UNL     1      -2.458  -1.789  24.876  0.00  0.00    -0.260 N 
ATOM      6  C   UNL     1      -2.580  -1.078  25.277  0.00  0.00    +0.116 C 
ATOM      7  C   UNL     1      -3.295  -0.759  25.016  0.00  0.00    +0.113 C 
ATOM      8  C   UNL     1      -3.698  -0.067  25.216  0.00  0.00    +0.094 C 
ATOM      9  N   UNL     1      -4.418   0.111  24.856  0.00  0.00    -0.266 NA
ATOM     21  C   UNL     1      -4.736  -0.403  24.295  0.00  0.00    +0.094 C 
ATOM     22  C   UNL     1      -4.335  -1.095  24.093  0.00  0.00    +0.112 C 
ATOM     23  N   UNL     1      -3.614  -1.273  24.454  0.00  0.00    -0.261 N 
ATOM     24  C   UNL     1      -3.096  -1.909  24.368  0.00  0.00    +0.307 C 
ATOM     25  O   UNL     1      -3.199  -2.553  23.862  0.00  0.00    -0.252 OA
ENDROOT
BRANCH   5   4
ATOM      4  C   UNL     1      -1.810  -2.291  24.968  0.00  0.00    +0.127 C 
BRANCH   4   3
ATOM      3  C   UNL     1      -1.068  -1.979  25.146  0.00  0.00    +0.164 C 
BRANCH   3   2
ATOM      1  C   UNL     1       0.331  -2.184  25.352  0.00  0.00    +0.174 C 
ATOM      2  O   UNL     1      -0.437  -2.484  25.314  0.00  0.00    -0.349 OA
ENDBRANCH   3   2
ENDBRANCH   4   3
ENDBRANCH   5   4
BRANCH   9  10
ATOM     10  C   UNL     1      -4.820   0.803  25.057  0.00  0.00    +0.101 C 
BRANCH  10  11
ATOM     11  C   UNL     1      -4.564   1.530  24.764  0.00  0.00    +0.012 A 
ATOM     12  C   UNL     1      -4.046   1.642  24.131  0.00  0.00    +0.073 A 
ATOM     13  N   UNL     1      -3.942   2.454  24.028  0.00  0.00    -0.324 N 
ATOM     14  C   UNL     1      -3.468   2.814  23.457  0.00  0.00    +0.130 C 
ATOM     15  C   UNL     1      -4.395   2.843  24.597  0.00  0.00    +0.060 A 
ATOM     16  C   UNL     1      -4.779   2.272  25.052  0.00  0.00    +0.015 A 
ATOM     17  C   UNL     1      -5.275   2.502  25.670  0.00  0.00    +0.001 A 
ATOM     18  C   UNL     1      -5.387   3.303  25.833  0.00  0.00    +0.000 A 
ATOM     19  C   UNL     1      -5.003   3.874  25.378  0.00  0.00    +0.001 A 
ATOM     20  C   UNL     1      -4.507   3.644  24.761  0.00  0.00    +0.017 A 
ENDBRANCH  10  11
ENDBRANCH   9  10
TORSDOF 5
ENDMDL
MODEL 9
REMARK VINA RESULT:      -7.8      2.180      3.664
REMARK  Name = 
REMARK  5 active torsions:
REMARK  status: ('A' for Active; 'I' for Inactive)
REMARK    1  A    between atoms: O_2  and  C_3
REMARK    2  A    between atoms: C_3  and  C_4
REMARK    3  A    between atoms: C_4  and  N_5
REMARK    4  A    between atoms: N_9  and  C_10
REMARK    5  A    between atoms: C_10  and  C_11
REMARK                            x       y       z     vdW  Elec       q    Type
REMARK                         _______ _______ _______ _____ _____    ______ ____
ROOT
ATOM      5  N   UNL     1      -0.201   2.474  25.423  0.00  0.00    -0.260 N 
ATOM      6  C   UNL     1      -0.976   2.664  25.629  0.00  0.00    +0.116 C 
ATOM      7  C   UNL     1      -1.458   2.510  24.976  0.00  0.00    +0.113 C 
ATOM      8  C   UNL     1      -2.270   2.593  24.857  0.00  0.00    +0.094 C 
ATOM      9  N   UNL     1      -2.604   2.390  24.131  0.00  0.00    -0.266 NA
ATOM     21  C   UNL     1      -2.125   2.104  23.523  0.00  0.00    +0.094 C 
ATOM     22  C   UNL     1      -1.313   2.021  23.641  0.00  0.00    +0.112 C 
ATOM     23  N   UNL     1      -0.979   2.224  24.368  0.00  0.00    -0.261 N 
ATOM     24  C   UNL     1      -0.202   2.202  24.645  0.00  0.00    +0.307 C 
ATOM     25  O   UNL     1       0.457   1.951  24.216  0.00  0.00    -0.252 OA
ENDROOT
BRANCH   5   4
ATOM      4  C   UNL     1       0.461   2.543  25.911  0.00  0.00    +0.127 C 
BRANCH   4   3
ATOM      3  C   UNL     1       0.372   2.532  26.731  0.00  0.00    +0.164 C 
BRANCH   3   2
ATOM      1  C   UNL     1       0.977   2.500  28.025  0.00  0.00    +0.174 C 
ATOM      2  O   UNL     1       1.023   2.671  27.218  0.00  0.00    -0.349 OA
ENDBRANCH   3   2
ENDBRANCH   4   3
ENDBRANCH   5   4
BRANCH   9  10
ATOM     10  C   UNL     1      -3.416   2.473  24.012  0.00  0.00    +0.101 C 
BRANCH  10  11
ATOM     11  C   UNL     1      -3.937   1.906  24.306  0.00  0.00    +0.012 A 
ATOM     12  C   UNL     1      -3.845   1.088  24.250  0.00  0.00    +0.073 A 
ATOM     13  N   UNL     1      -4.492   0.733  24.619  0.00  0.00    -0.324 N 
ATOM     14  C   UNL     1      -4.625  -0.078  24.691  0.00  0.00    +0.130 C 
ATOM     15  C   UNL     1      -4.984   1.331  24.902  0.00  0.00    +0.060 A 
ATOM     16  C   UNL     1      -4.641   2.056  24.709  0.00  0.00    +0.015 A 
ATOM     17  C   UNL     1      -5.014   2.760  24.926  0.00  0.00    +0.001 A 
ATOM     18  C   UNL     1      -5.730   2.738  25.335  0.00  0.00    +0.000 A 
ATOM     19  C   UNL     1      -6.073   2.013  25.527  0.00  0.00    +0.001 A 
ATOM     20  C   UNL     1      -5.701   1.310  25.311  0.00  0.00    +0.017 A 
ENDBRANCH  10  11
ENDBRANCH   9  10
TORSDOF 5
ENDMDL
MODEL 10
REMARK VINA RESULT:      -7.6     16.488     18.942
REMARK  Name = 
REMARK  5 active torsions:
REMARK  status: ('A' for Active; 'I' for Inactive)
REMARK    1  A    between atoms: O_2  and  C_3
REMARK    2  A    between atoms: C_3  and  C_4
REMARK    3  A    between atoms: C_4  and  N_5
REMARK    4  A    between atoms: N_9  and  C_10
REMARK    5  A    between atoms: C_10  and  C_11
REMARK                            x       y       z     vdW  Elec       q    Type
REMARK                         _______ _______ _______ _____ _____    ______ ____
ROOT
ATOM      5  N   UNL     1      14.340   7.776  18.063  0.00  0.00    -0.260 N 
ATOM      6  C   UNL     1      13.774   8.161  18.523  0.00  0.00    +0.116 C 
ATOM      7  C   UNL     1      13.834   7.874  19.294  0.00  0.00    +0.113 C 
ATOM      8  C   UNL     1      13.417   8.051  19.984  0.00  0.00    +0.094 C 
ATOM      9  N   UNL     1      13.603   7.667  20.689  0.00  0.00    -0.266 NA
ATOM     21  C   UNL     1      14.206   7.105  20.705  0.00  0.00    +0.094 C 
ATOM     22  C   UNL     1      14.624   6.926  20.016  0.00  0.00    +0.112 C 
ATOM     23  N   UNL     1      14.437   7.311  19.310  0.00  0.00    -0.261 N 
ATOM     24  C   UNL     1      14.750   7.251  18.549  0.00  0.00    +0.307 C 
ATOM     25  O   UNL     1      15.365   6.753  18.316  0.00  0.00    -0.252 OA
ENDROOT
BRANCH   5   4
ATOM      4  C   UNL     1      14.473   7.895  17.258  0.00  0.00    +0.127 C 
BRANCH   4   3
ATOM      3  C   UNL     1      13.889   8.240  16.789  0.00  0.00    +0.164 C 
BRANCH   3   2
ATOM      1  C   UNL     1      13.701   8.927  15.551  0.00  0.00    +0.174 C 
ATOM      2  O   UNL     1      13.982   8.275  15.970  0.00  0.00    -0.349 OA
ENDBRANCH   3   2
ENDBRANCH   4   3
ENDBRANCH   5   4
BRANCH   9  10
ATOM     10  C   UNL     1      13.186   7.844  21.379  0.00  0.00    +0.101 C 
BRANCH  10  11
ATOM     11  C   UNL     1      12.463   7.479  21.530  0.00  0.00    +0.012 A 
ATOM     12  C   UNL     1      12.277   6.690  21.376  0.00  0.00    +0.073 A 
ATOM     13  N   UNL     1      11.497   6.562  21.612  0.00  0.00    -0.324 N 
ATOM     14  C   UNL     1      11.084   5.849  21.558  0.00  0.00    +0.130 C 
ATOM     15  C   UNL     1      11.200   7.271  21.912  0.00  0.00    +0.060 A 
ATOM     16  C   UNL     1      11.798   7.838  21.861  0.00  0.00    +0.015 A 
ATOM     17  C   UNL     1      11.659   8.608  22.122  0.00  0.00    +0.001 A 
ATOM     18  C   UNL     1      10.923   8.811  22.435  0.00  0.00    +0.000 A 
ATOM     19  C   UNL     1      10.326   8.244  22.486  0.00  0.00    +0.001 A 
ATOM     20  C   UNL     1      10.464   7.475  22.224  0.00  0.00    +0.017 A 
ENDBRANCH  10  11
ENDBRANCH   9  10
TORSDOF 5
ENDMDL
