MODEL 1
REMARK VINA RESULT:     -13.8      0.000      0.000
REMARK  Name = 
REMARK  4 active torsions:
REMARK  status: ('A' for Active; 'I' for Inactive)
REMARK    1  A    between atoms: C_2  and  C_3
REMARK    2  A    between atoms: C_6  and  C_7
REMARK    3  A    between atoms: C_7  and  N_8
REMARK    4  A    between atoms: C_15  and  C_22
REMARK                            x       y       z     vdW  Elec       q    Type
REMARK                         _______ _______ _______ _____ _____    ______ ____
ROOT
ATOM      8  N   UNL     1      -2.510   1.541  24.589  0.00  0.00    -0.266 NA
ATOM      9  C   UNL     1      -1.734   1.307  24.384  0.00  0.00    +0.074 C 
ATOM     10  C   UNL     1      -1.865   0.329  24.333  0.00  0.00    +0.039 C 
ATOM     11  C   UNL     1      -1.806  -0.480  24.251  0.00  0.00    +0.011 C 
ATOM     12  C   UNL     1      -2.302  -0.008  24.409  0.00  0.00    +0.054 C 
ATOM     13  C   UNL     1      -2.160   0.935  24.454  0.00  0.00    +0.078 C 
ATOM     14  C   UNL     1      -3.192   0.056  24.628  0.00  0.00    +0.041 A 
ATOM     15  C   UNL     1      -3.858  -0.417  24.748  0.00  0.00    +0.012 A 
ATOM     16  C   UNL     1      -4.578  -0.070  24.950  0.00  0.00    +0.006 A 
ATOM     17  C   UNL     1      -4.634   0.750  25.032  0.00  0.00    +0.061 A 
ATOM     18  C   UNL     1      -3.968   1.222  24.912  0.00  0.00    +0.261 A 
ATOM     19  O   UNL     1      -4.023   2.041  24.994  0.00  0.00    -0.267 OA
ATOM     20  N   UNL     1      -3.247   0.875  24.710  0.00  0.00    -0.299 N 
ATOM     21  C   UNL     1      -2.794   0.405  24.562  0.00  0.00    +0.110 C 
ENDROOT
BRANCH  15  22
ATOM     22  C   UNL     1      -3.803  -1.236  24.666  0.00  0.00    +0.001 A 
ATOM     23  C   UNL     1      -4.022  -1.595  23.957  0.00  0.00    +0.000 A 
ATOM     24  C   UNL     1      -3.967  -2.414  23.875  0.00  0.00    +0.000 A 
ATOM     25  C   UNL     1      -3.692  -2.874  24.503  0.00  0.00    +0.000 A 
ATOM     26  C   UNL     1      -3.473  -2.515  25.212  0.00  0.00    +0.000 A 
ATOM     27  C   UNL     1      -3.528  -1.696  25.294  0.00  0.00    +0.000 A 
ENDBRANCH  15  22
BRANCH   8   7
ATOM      7  C   UNL     1      -3.137   2.041  24.781  0.00  0.00    +0.138 C 
BRANCH   7   6
ATOM      3  C   UNL     1      -2.572   4.047  25.245  0.00  0.00    +0.156 A 
ATOM      4  C   UNL     1      -3.074   4.168  24.602  0.00  0.00    +0.038 A 
ATOM      5  C   UNL     1      -3.347   3.432  24.350  0.00  0.00    +0.037 A 
ATOM      6  C   UNL     1      -3.013   2.855  24.838  0.00  0.00    +0.139 A 
ATOM     28  O   UNL     1      -2.534   3.235  25.391  0.00  0.00    -0.458 OA
BRANCH   3   2
ATOM      1  O   UNL     1      -1.550   5.042  25.323  0.00  0.00    -0.212 OA
ATOM      2  C   UNL     1      -2.177   4.635  25.669  0.00  0.00    +0.246 C 
ENDBRANCH   3   2
ENDBRANCH   7   6
ENDBRANCH   8   7
TORSDOF 4
ENDMDL
MODEL 2
REMARK VINA RESULT:     -13.1      1.506      4.732
REMARK  Name = 
REMARK  4 active torsions:
REMARK  status: ('A' for Active; 'I' for Inactive)
REMARK    1  A    between atoms: C_2  and  C_3
REMARK    2  A    between atoms: C_6  and  C_7
REMARK    3  A    between atoms: C_7  and  N_8
REMARK    4  A    between atoms: C_15  and  C_22
REMARK                            x       y       z     vdW  Elec       q    Type
REMARK                         _______ _______ _______ _____ _____    ______ ____
ROOT
ATOM      8  N   UNL     1      -3.247   0.847  24.685  0.00  0.00    -0.266 NA
ATOM      9  C   UNL     1      -3.905   1.229  24.339  0.00  0.00    +0.074 C 
ATOM     10  C   UNL     1      -3.581   2.162  24.353  0.00  0.00    +0.039 C 
ATOM     11  C   UNL     1      -3.464   2.966  24.292  0.00  0.00    +0.011 C 
ATOM     12  C   UNL     1      -3.111   2.407  24.528  0.00  0.00    +0.054 C 
ATOM     13  C   UNL     1      -3.438   1.510  24.507  0.00  0.00    +0.078 C 
ATOM     14  C   UNL     1      -2.313   2.170  24.916  0.00  0.00    +0.041 A 
ATOM     15  C   UNL     1      -1.607   2.502  25.184  0.00  0.00    +0.012 A 
ATOM     16  C   UNL     1      -1.023   2.020  25.512  0.00  0.00    +0.006 A 
ATOM     17  C   UNL     1      -1.145   1.206  25.572  0.00  0.00    +0.061 A 
ATOM     18  C   UNL     1      -1.851   0.874  25.304  0.00  0.00    +0.261 A 
ATOM     19  O   UNL     1      -1.972   0.060  25.363  0.00  0.00    -0.267 OA
ATOM     20  N   UNL     1      -2.435   1.356  24.976  0.00  0.00    -0.299 N 
ATOM     21  C   UNL     1      -2.750   1.905  24.759  0.00  0.00    +0.110 C 
ENDROOT
BRANCH  15  22
ATOM     22  C   UNL     1      -1.486   3.316  25.125  0.00  0.00    +0.001 A 
ATOM     23  C   UNL     1      -1.816   3.824  25.684  0.00  0.00    +0.000 A 
ATOM     24  C   UNL     1      -1.694   4.638  25.624  0.00  0.00    +0.000 A 
ATOM     25  C   UNL     1      -1.243   4.944  25.005  0.00  0.00    +0.000 A 
ATOM     26  C   UNL     1      -0.913   4.435  24.446  0.00  0.00    +0.000 A 
ATOM     27  C   UNL     1      -1.034   3.621  24.506  0.00  0.00    +0.000 A 
ENDBRANCH  15  22
BRANCH   8   7
ATOM      7  C   UNL     1      -2.780   0.233  24.979  0.00  0.00    +0.138 C 
BRANCH   7   6
ATOM      3  C   UNL     1      -3.443  -1.759  24.598  0.00  0.00    +0.156 A 
ATOM      4  C   UNL     1      -3.596  -1.693  25.406  0.00  0.00    +0.038 A 
ATOM      5  C   UNL     1      -3.366  -0.938  25.647  0.00  0.00    +0.037 A 
ATOM      6  C   UNL     1      -3.071  -0.538  24.988  0.00  0.00    +0.139 A 
ATOM     28  O   UNL     1      -3.119  -1.046  24.339  0.00  0.00    -0.458 OA
BRANCH   3   2
ATOM      1  O   UNL     1      -4.323  -2.520  23.768  0.00  0.00    -0.212 OA
ATOM      2  C   UNL     1      -3.589  -2.424  24.131  0.00  0.00    +0.246 C 
ENDBRANCH   3   2
ENDBRANCH   7   6
ENDBRANCH   8   7
TORSDOF 4
ENDMDL
