MODEL 1
REMARK VINA RESULT:     -11.7      0.000      0.000
REMARK  Name = 
REMARK  5 active torsions:
REMARK  status: ('A' for Active; 'I' for Inactive)
REMARK    1  A    between atoms: O_2  and  C_3
REMARK    2  A    between atoms: C_6  and  C_7
REMARK    3  A    between atoms: C_7  and  N_8
REMARK    4  A    between atoms: N_12  and  S_18
REMARK    5  A    between atoms: S_18  and  C_21
REMARK                            x       y       z     vdW  Elec       q    Type
REMARK                         _______ _______ _______ _____ _____    ______ ____
ROOT
ATOM      8  N   UNL     1      -4.088   3.167  25.366  0.00  0.00    -0.258 N 
ATOM      9  C   UNL     1      -3.573   2.533  25.245  0.00  0.00    +0.117 C 
ATOM     10  C   UNL     1      -4.027   1.852  25.145  0.00  0.00    +0.114 C 
ATOM     11  C   UNL     1      -3.820   1.065  25.008  0.00  0.00    +0.117 C 
ATOM     12  N   UNL     1      -4.406   0.491  24.930  0.00  0.00    -0.152 NA
ATOM     13  C   UNL     1      -5.201   0.703  24.989  0.00  0.00    +0.117 C 
ATOM     14  C   UNL     1      -5.410   1.489  25.126  0.00  0.00    +0.114 C 
ATOM     15  N   UNL     1      -4.822   2.064  25.204  0.00  0.00    -0.261 N 
ATOM     16  C   UNL     1      -4.860   2.876  25.340  0.00  0.00    +0.308 C 
ATOM     17  O   UNL     1      -5.549   3.321  25.434  0.00  0.00    -0.252 OA
ENDROOT
BRANCH  12  18
ATOM     18  S   UNL     1      -4.199  -0.296  24.793  0.00  0.00    +0.063 S 
ATOM     19  O   UNL     1      -4.073  -0.125  23.997  0.00  0.00    -0.153 OA
ATOM     20  O   UNL     1      -4.325  -0.467  25.591  0.00  0.00    -0.153 OA
BRANCH  18  21
ATOM     21  C   UNL     1      -3.992  -1.083  24.658  0.00  0.00    +0.122 A 
ATOM     22  C   UNL     1      -3.485  -1.472  25.180  0.00  0.00    +0.020 A 
ATOM     23  C   UNL     1      -3.279  -2.260  25.043  0.00  0.00    -0.003 A 
ATOM     24  C   UNL     1      -3.578  -2.657  24.386  0.00  0.00    -0.022 A 
ATOM     25  C   UNL     1      -3.372  -3.444  24.249  0.00  0.00    +0.031 C 
ATOM     26  C   UNL     1      -4.085  -2.267  23.864  0.00  0.00    -0.003 A 
ATOM     27  C   UNL     1      -4.292  -1.480  23.999  0.00  0.00    +0.020 A 
ENDBRANCH  18  21
ENDBRANCH  12  18
BRANCH   8   7
ATOM      7  C   UNL     1      -3.869   3.952  25.490  0.00  0.00    +0.122 C 
BRANCH   7   6
ATOM      3  C   UNL     1      -1.523   4.656  25.134  0.00  0.00    +0.139 A 
ATOM      4  C   UNL     1      -2.068   4.709  24.517  0.00  0.00    +0.037 A 
ATOM      5  C   UNL     1      -2.850   4.475  24.635  0.00  0.00    +0.001 A 
ATOM      6  C   UNL     1      -3.088   4.187  25.371  0.00  0.00    -0.002 A 
ATOM     28  C   UNL     1      -2.543   4.134  25.989  0.00  0.00    +0.001 A 
ATOM     29  C   UNL     1      -1.761   4.368  25.870  0.00  0.00    +0.037 A 
BRANCH   3   2
ATOM      1  C   UNL     1      -0.209   4.383  24.644  0.00  0.00    +0.252 C 
ATOM      2  O   UNL     1      -0.741   4.891  25.017  0.00  0.00    -0.471 OA
ENDBRANCH   3   2
ENDBRANCH   7   6
ENDBRANCH   8   7
TORSDOF 5
ENDMDL
MODEL 2
REMARK VINA RESULT:     -11.3      1.400      5.376
REMARK  Name = 
REMARK  5 active torsions:
REMARK  status: ('A' for Active; 'I' for Inactive)
REMARK    1  A    between atoms: O_2  and  C_3
REMARK    2  A    between atoms: C_6  and  C_7
REMARK    3  A    between atoms: C_7  and  N_8
REMARK    4  A    between atoms: N_12  and  S_18
REMARK    5  A    between atoms: S_18  and  C_21
REMARK                            x       y       z     vdW  Elec       q    Type
REMARK                         _______ _______ _______ _____ _____    ______ ____
ROOT
ATOM      8  N   UNL     1      -4.531   0.444  24.794  0.00  0.00    -0.258 N 
ATOM      9  C   UNL     1      -3.768   0.724  24.656  0.00  0.00    +0.117 C 
ATOM     10  C   UNL     1      -3.754   1.527  24.843  0.00  0.00    +0.114 C 
ATOM     11  C   UNL     1      -3.152   2.091  24.815  0.00  0.00    +0.117 C 
ATOM     12  N   UNL     1      -3.304   2.869  25.040  0.00  0.00    -0.152 NA
ATOM     13  C   UNL     1      -4.059   3.085  25.294  0.00  0.00    +0.117 C 
ATOM     14  C   UNL     1      -4.662   2.522  25.322  0.00  0.00    +0.114 C 
ATOM     15  N   UNL     1      -4.509   1.743  25.096  0.00  0.00    -0.261 N 
ATOM     16  C   UNL     1      -4.989   1.073  25.066  0.00  0.00    +0.308 C 
ATOM     17  O   UNL     1      -5.787   1.039  25.273  0.00  0.00    -0.252 OA
ENDROOT
BRANCH  12  18
ATOM     18  S   UNL     1      -2.702   3.433  25.013  0.00  0.00    +0.063 S 
ATOM     19  O   UNL     1      -2.931   3.640  24.248  0.00  0.00    -0.153 OA
ATOM     20  O   UNL     1      -2.473   3.225  25.778  0.00  0.00    -0.153 OA
BRANCH  18  21
ATOM     21  C   UNL     1      -2.100   3.996  24.986  0.00  0.00    +0.122 A 
ATOM     22  C   UNL     1      -2.267   4.787  25.149  0.00  0.00    +0.020 A 
ATOM     23  C   UNL     1      -1.664   5.350  25.122  0.00  0.00    -0.003 A 
ATOM     24  C   UNL     1      -0.895   5.121  24.933  0.00  0.00    -0.022 A 
ATOM     25  C   UNL     1      -0.291   5.684  24.906  0.00  0.00    +0.031 C 
ATOM     26  C   UNL     1      -0.728   4.330  24.770  0.00  0.00    -0.003 A 
ATOM     27  C   UNL     1      -1.330   3.767  24.796  0.00  0.00    +0.020 A 
ENDBRANCH  18  21
ENDBRANCH  12  18
BRANCH   8   7
ATOM      7  C   UNL     1      -4.791  -0.331  24.680  0.00  0.00    +0.122 C 
BRANCH   7   6
ATOM      3  C   UNL     1      -3.157  -2.188  24.613  0.00  0.00    +0.139 A 
ATOM      4  C   UNL     1      -3.510  -1.925  23.916  0.00  0.00    +0.037 A 
ATOM      5  C   UNL     1      -4.056  -1.306  23.938  0.00  0.00    +0.001 A 
ATOM      6  C   UNL     1      -4.246  -0.950  24.657  0.00  0.00    -0.002 A 
ATOM     28  C   UNL     1      -3.892  -1.213  25.355  0.00  0.00    +0.001 A 
ATOM     29  C   UNL     1      -3.348  -1.832  25.332  0.00  0.00    +0.037 A 
BRANCH   3   2
ATOM      1  C   UNL     1      -1.817  -2.653  24.435  0.00  0.00    +0.252 C 
ATOM      2  O   UNL     1      -2.612  -2.808  24.592  0.00  0.00    -0.471 OA
ENDBRANCH   3   2
ENDBRANCH   7   6
ENDBRANCH   8   7
TORSDOF 5
ENDMDL
MODEL 3
REMARK VINA RESULT:     -11.2      2.444      6.237
REMARK  Name = 
REMARK  5 active torsions:
REMARK  status: ('A' for Active; 'I' for Inactive)
REMARK    1  A    between atoms: O_2  and  C_3
REMARK    2  A    between atoms: C_6  and  C_7
REMARK    3  A    between atoms: C_7  and  N_8
REMARK    4  A    between atoms: N_12  and  S_18
REMARK    5  A    between atoms: S_18  and  C_21
REMARK                            x       y       z     vdW  Elec       q    Type
REMARK                         _______ _______ _______ _____ _____    ______ ____
ROOT
ATOM      8  N   UNL     1      -0.944  -0.727  25.046  0.00  0.00    -0.258 N 
ATOM      9  C   UNL     1      -1.383  -0.083  25.319  0.00  0.00    +0.117 C 
ATOM     10  C   UNL     1      -1.032   0.605  25.028  0.00  0.00    +0.114 C 
ATOM     11  C   UNL     1      -1.224   1.402  25.116  0.00  0.00    +0.117 C 
ATOM     12  N   UNL     1      -0.762   1.980  24.753  0.00  0.00    -0.152 NA
ATOM     13  C   UNL     1      -0.107   1.761  24.301  0.00  0.00    +0.117 C 
ATOM     14  C   UNL     1       0.086   0.964  24.212  0.00  0.00    +0.114 C 
ATOM     15  N   UNL     1      -0.377   0.386  24.576  0.00  0.00    -0.261 N 
ATOM     16  C   UNL     1      -0.323  -0.437  24.588  0.00  0.00    +0.308 C 
ATOM     17  O   UNL     1       0.251  -0.891  24.207  0.00  0.00    -0.252 OA
ENDROOT
BRANCH  12  18
ATOM     18  S   UNL     1      -0.953   2.778  24.841  0.00  0.00    +0.063 S 
ATOM     19  O   UNL     1      -0.513   2.808  25.537  0.00  0.00    -0.153 OA
ATOM     20  O   UNL     1      -1.394   2.748  24.143  0.00  0.00    -0.153 OA
BRANCH  18  21
ATOM     21  C   UNL     1      -1.146   3.576  24.927  0.00  0.00    +0.122 A 
ATOM     22  C   UNL     1      -0.616   4.158  24.679  0.00  0.00    +0.020 A 
ATOM     23  C   UNL     1      -0.810   4.955  24.767  0.00  0.00    -0.003 A 
ATOM     24  C   UNL     1      -1.532   5.170  25.101  0.00  0.00    -0.022 A 
ATOM     25  C   UNL     1      -1.725   5.968  25.189  0.00  0.00    +0.031 C 
ATOM     26  C   UNL     1      -2.061   4.589  25.350  0.00  0.00    -0.003 A 
ATOM     27  C   UNL     1      -1.869   3.791  25.263  0.00  0.00    +0.020 A 
ENDBRANCH  18  21
ENDBRANCH  12  18
BRANCH   8   7
ATOM      7  C   UNL     1      -1.100  -1.521  25.205  0.00  0.00    +0.122 C 
BRANCH   7   6
ATOM      3  C   UNL     1      -3.282  -2.506  24.576  0.00  0.00    +0.139 A 
ATOM      4  C   UNL     1      -3.216  -2.054  25.262  0.00  0.00    +0.037 A 
ATOM      5  C   UNL     1      -2.489  -1.725  25.473  0.00  0.00    +0.001 A 
ATOM      6  C   UNL     1      -1.828  -1.849  24.996  0.00  0.00    -0.002 A 
ATOM     28  C   UNL     1      -1.893  -2.302  24.308  0.00  0.00    +0.001 A 
ATOM     29  C   UNL     1      -2.620  -2.630  24.099  0.00  0.00    +0.037 A 
BRANCH   3   2
ATOM      1  C   UNL     1      -4.447  -2.507  23.749  0.00  0.00    +0.252 C 
ATOM      2  O   UNL     1      -4.009  -2.835  24.365  0.00  0.00    -0.471 OA
ENDBRANCH   3   2
ENDBRANCH   7   6
ENDBRANCH   8   7
TORSDOF 5
ENDMDL
MODEL 4
REMARK VINA RESULT:      -9.9      2.137      2.890
REMARK  Name = 
REMARK  5 active torsions:
REMARK  status: ('A' for Active; 'I' for Inactive)
REMARK    1  A    between atoms: O_2  and  C_3
REMARK    2  A    between atoms: C_6  and  C_7
REMARK    3  A    between atoms: C_7  and  N_8
REMARK    4  A    between atoms: N_12  and  S_18
REMARK    5  A    between atoms: S_18  and  C_21
REMARK                            x       y       z     vdW  Elec       q    Type
REMARK                         _______ _______ _______ _____ _____    ______ ____
ROOT
ATOM      8  N   UNL     1      -0.504   2.031  25.434  0.00  0.00    -0.258 N 
ATOM      9  C   UNL     1      -1.236   1.663  25.532  0.00  0.00    +0.117 C 
ATOM     10  C   UNL     1      -1.216   0.945  25.129  0.00  0.00    +0.114 C 
ATOM     11  C   UNL     1      -1.779   0.349  25.033  0.00  0.00    +0.117 C 
ATOM     12  N   UNL     1      -1.599  -0.323  24.591  0.00  0.00    -0.152 NA
ATOM     13  C   UNL     1      -0.855  -0.400  24.243  0.00  0.00    +0.117 C 
ATOM     14  C   UNL     1      -0.291   0.195  24.338  0.00  0.00    +0.114 C 
ATOM     15  N   UNL     1      -0.472   0.868  24.782  0.00  0.00    -0.261 N 
ATOM     16  C   UNL     1      -0.032   1.539  24.970  0.00  0.00    +0.308 C 
ATOM     17  O   UNL     1       0.744   1.692  24.735  0.00  0.00    -0.252 OA
ENDROOT
BRANCH  12  18
ATOM     18  S   UNL     1      -2.162  -0.918  24.495  0.00  0.00    +0.063 S 
ATOM     19  O   UNL     1      -1.732  -1.407  25.001  0.00  0.00    -0.153 OA
ATOM     20  O   UNL     1      -2.592  -0.428  23.988  0.00  0.00    -0.153 OA
BRANCH  18  21
ATOM     21  C   UNL     1      -2.726  -1.513  24.398  0.00  0.00    +0.122 A 
ATOM     22  C   UNL     1      -2.533  -2.296  24.571  0.00  0.00    +0.020 A 
ATOM     23  C   UNL     1      -3.098  -2.890  24.473  0.00  0.00    -0.003 A 
ATOM     24  C   UNL     1      -3.854  -2.701  24.204  0.00  0.00    -0.022 A 
ATOM     25  C   UNL     1      -4.419  -3.295  24.107  0.00  0.00    +0.031 C 
ATOM     26  C   UNL     1      -4.046  -1.917  24.032  0.00  0.00    -0.003 A 
ATOM     27  C   UNL     1      -3.483  -1.323  24.128  0.00  0.00    +0.020 A 
ENDBRANCH  18  21
ENDBRANCH  12  18
BRANCH   8   7
ATOM      7  C   UNL     1      -0.283   2.763  25.745  0.00  0.00    +0.122 C 
BRANCH   7   6
ATOM      3  C   UNL     1      -1.651   4.772  25.278  0.00  0.00    +0.139 A 
ATOM      4  C   UNL     1      -0.948   4.646  24.865  0.00  0.00    +0.037 A 
ATOM      5  C   UNL     1      -0.492   3.977  25.020  0.00  0.00    +0.001 A 
ATOM      6  C   UNL     1      -0.739   3.432  25.589  0.00  0.00    -0.002 A 
ATOM     28  C   UNL     1      -1.442   3.557  26.002  0.00  0.00    +0.001 A 
ATOM     29  C   UNL     1      -1.898   4.227  25.846  0.00  0.00    +0.037 A 
BRANCH   3   2
ATOM      1  C   UNL     1      -1.747   6.137  24.867  0.00  0.00    +0.252 C 
ATOM      2  O   UNL     1      -2.108   5.441  25.123  0.00  0.00    -0.471 OA
ENDBRANCH   3   2
ENDBRANCH   7   6
ENDBRANCH   8   7
TORSDOF 5
ENDMDL
MODEL 5
REMARK VINA RESULT:      -8.6      2.850      4.397
REMARK  Name = 
REMARK  5 active torsions:
REMARK  status: ('A' for Active; 'I' for Inactive)
REMARK    1  A    between atoms: O_2  and  C_3
REMARK    2  A    between atoms: C_6  and  C_7
REMARK    3  A    between atoms: C_7  and  N_8
REMARK    4  A    between atoms: N_12  and  S_18
REMARK    5  A    between atoms: S_18  and  C_21
REMARK                            x       y       z     vdW  Elec       q    Type
REMARK                         _______ _______ _______ _____ _____    ______ ____
ROOT
ATOM      8  N   UNL     1      -3.804   0.216  24.693  0.00  0.00    -0.258 N 
ATOM      9  C   UNL     1      -3.253   0.551  24.179  0.00  0.00    +0.117 C 
ATOM     10  C   UNL     1      -2.515   0.223  24.347  0.00  0.00    +0.114 C 
ATOM     11  C   UNL     1      -1.769   0.345  24.017  0.00  0.00    +0.117 C 
ATOM     12  N   UNL     1      -1.118  -0.071  24.305  0.00  0.00    -0.152 NA
ATOM     13  C   UNL     1      -1.212  -0.609  24.923  0.00  0.00    +0.117 C 
ATOM     14  C   UNL     1      -1.958  -0.732  25.253  0.00  0.00    +0.114 C 
ATOM     15  N   UNL     1      -2.610  -0.315  24.965  0.00  0.00    -0.261 N 
ATOM     16  C   UNL     1      -3.406  -0.319  25.179  0.00  0.00    +0.308 C 
ATOM     17  O   UNL     1      -3.746  -0.779  25.775  0.00  0.00    -0.252 OA
ENDROOT
BRANCH  12  18
ATOM     18  S   UNL     1      -0.371   0.050  23.975  0.00  0.00    +0.063 S 
ATOM     19  O   UNL     1      -0.281  -0.764  23.879  0.00  0.00    -0.153 OA
ATOM     20  O   UNL     1      -0.462   0.865  24.072  0.00  0.00    -0.153 OA
BRANCH  18  21
ATOM     21  C   UNL     1       0.375   0.172  23.646  0.00  0.00    +0.122 A 
ATOM     22  C   UNL     1       0.827   0.823  23.876  0.00  0.00    +0.020 A 
ATOM     23  C   UNL     1       1.573   0.945  23.546  0.00  0.00    -0.003 A 
ATOM     24  C   UNL     1       1.868   0.416  22.986  0.00  0.00    -0.022 A 
ATOM     25  C   UNL     1       2.614   0.538  22.656  0.00  0.00    +0.031 C 
ATOM     26  C   UNL     1       1.417  -0.234  22.755  0.00  0.00    -0.003 A 
ATOM     27  C   UNL     1       0.670  -0.357  23.085  0.00  0.00    +0.020 A 
ENDBRANCH  18  21
ENDBRANCH  12  18
BRANCH   8   7
ATOM      7  C   UNL     1      -4.611   0.386  24.718  0.00  0.00    +0.122 C 
BRANCH   7   6
ATOM      3  C   UNL     1      -5.379   2.676  25.255  0.00  0.00    +0.139 A 
ATOM      4  C   UNL     1      -4.962   2.534  24.559  0.00  0.00    +0.037 A 
ATOM      5  C   UNL     1      -4.705   1.771  24.379  0.00  0.00    +0.001 A 
ATOM      6  C   UNL     1      -4.867   1.149  24.896  0.00  0.00    -0.002 A 
ATOM     28  C   UNL     1      -5.285   1.291  25.594  0.00  0.00    +0.001 A 
ATOM     29  C   UNL     1      -5.541   2.054  25.773  0.00  0.00    +0.037 A 
BRANCH   3   2
ATOM      1  C   UNL     1      -5.093   4.058  25.479  0.00  0.00    +0.252 C 
ATOM      2  O   UNL     1      -5.636   3.439  25.436  0.00  0.00    -0.471 OA
ENDBRANCH   3   2
ENDBRANCH   7   6
ENDBRANCH   8   7
TORSDOF 5
ENDMDL
MODEL 6
REMARK VINA RESULT:      -8.1      2.388      5.432
REMARK  Name = 
REMARK  5 active torsions:
REMARK  status: ('A' for Active; 'I' for Inactive)
REMARK    1  A    between atoms: O_2  and  C_3
REMARK    2  A    between atoms: C_6  and  C_7
REMARK    3  A    between atoms: C_7  and  N_8
REMARK    4  A    between atoms: N_12  and  S_18
REMARK    5  A    between atoms: S_18  and  C_21
REMARK                            x       y       z     vdW  Elec       q    Type
REMARK                         _______ _______ _______ _____ _____    ______ ____
ROOT
ATOM      8  N   UNL     1      -0.752   0.625  24.634  0.00  0.00    -0.258 N 
ATOM      9  C   UNL     1      -1.553   0.658  24.834  0.00  0.00    +0.117 C 
ATOM     10  C   UNL     1      -1.788   1.448  24.809  0.00  0.00    +0.114 C 
ATOM     11  C   UNL     1      -2.514   1.813  24.955  0.00  0.00    +0.117 C 
ATOM     12  N   UNL     1      -2.586   2.631  24.886  0.00  0.00    -0.152 NA
ATOM     13  C   UNL     1      -1.931   3.086  24.672  0.00  0.00    +0.117 C 
ATOM     14  C   UNL     1      -1.205   2.722  24.526  0.00  0.00    +0.114 C 
ATOM     15  N   UNL     1      -1.134   1.903  24.595  0.00  0.00    -0.261 N 
ATOM     16  C   UNL     1      -0.494   1.394  24.487  0.00  0.00    +0.308 C 
ATOM     17  O   UNL     1       0.271   1.616  24.269  0.00  0.00    -0.252 OA
ENDROOT
BRANCH  12  18
ATOM     18  S   UNL     1      -3.311   2.996  25.031  0.00  0.00    +0.063 S 
ATOM     19  O   UNL     1      -3.552   2.826  24.261  0.00  0.00    -0.153 OA
ATOM     20  O   UNL     1      -3.070   3.166  25.802  0.00  0.00    -0.153 OA
BRANCH  18  21
ATOM     21  C   UNL     1      -4.036   3.361  25.178  0.00  0.00    +0.122 A 
ATOM     22  C   UNL     1      -4.130   4.167  25.030  0.00  0.00    +0.020 A 
ATOM     23  C   UNL     1      -4.856   4.531  25.177  0.00  0.00    -0.003 A 
ATOM     24  C   UNL     1      -5.487   4.090  25.471  0.00  0.00    -0.022 A 
ATOM     25  C   UNL     1      -6.213   4.454  25.618  0.00  0.00    +0.031 C 
ATOM     26  C   UNL     1      -5.393   3.284  25.619  0.00  0.00    -0.003 A 
ATOM     27  C   UNL     1      -4.668   2.919  25.473  0.00  0.00    +0.020 A 
ENDBRANCH  18  21
ENDBRANCH  12  18
BRANCH   8   7
ATOM      7  C   UNL     1      -0.292  -0.058  24.590  0.00  0.00    +0.122 C 
BRANCH   7   6
ATOM      3  C   UNL     1      -1.372  -2.285  24.610  0.00  0.00    +0.139 A 
ATOM      4  C   UNL     1      -1.277  -1.880  23.899  0.00  0.00    +0.037 A 
ATOM      5  C   UNL     1      -0.917  -1.137  23.891  0.00  0.00    +0.001 A 
ATOM      6  C   UNL     1      -0.652  -0.800  24.596  0.00  0.00    -0.002 A 
ATOM     28  C   UNL     1      -0.747  -1.206  25.309  0.00  0.00    +0.001 A 
ATOM     29  C   UNL     1      -1.108  -1.948  25.316  0.00  0.00    +0.037 A 
BRANCH   3   2
ATOM      1  C   UNL     1      -2.552  -3.089  24.551  0.00  0.00    +0.252 C 
ATOM      2  O   UNL     1      -1.733  -3.027  24.618  0.00  0.00    -0.471 OA
ENDBRANCH   3   2
ENDBRANCH   7   6
ENDBRANCH   8   7
TORSDOF 5
ENDMDL
