MODEL 1
REMARK VINA RESULT:     -14.5      0.000      0.000
REMARK  Name = 
REMARK  4 active torsions:
REMARK  status: ('A' for Active; 'I' for Inactive)
REMARK    1  A    between atoms: O_2  and  C_3
REMARK    2  A    between atoms: C_8  and  N_9
REMARK    3  A    between atoms: N_12  and  C_13
REMARK    4  A    between atoms: N_21  and  C_23
REMARK                            x       y       z     vdW  Elec       q    Type
REMARK                         _______ _______ _______ _____ _____    ______ ____
ROOT
ATOM     13  C   UNL     1      -2.821   0.206  24.322  0.00  0.00    +0.131 A 
ATOM     14  C   UNL     1      -3.514   0.278  23.880  0.00  0.00    +0.023 A 
ATOM     15  C   UNL     1      -3.978  -0.387  23.730  0.00  0.00    +0.014 A 
ATOM     16  C   UNL     1      -3.749  -1.124  24.021  0.00  0.00    +0.041 A 
ATOM     17  C   UNL     1      -4.020  -2.002  24.033  0.00  0.00    +0.054 C 
ATOM     18  C   UNL     1      -4.532  -2.424  23.804  0.00  0.00    +0.011 C 
ATOM     19  C   UNL     1      -3.847  -2.491  24.239  0.00  0.00    +0.039 C 
ATOM     20  C   UNL     1      -3.067  -2.772  24.777  0.00  0.00    +0.074 C 
ATOM     21  N   UNL     1      -2.683  -2.035  24.863  0.00  0.00    -0.273 NA
ATOM     22  C   UNL     1      -3.271  -2.289  24.552  0.00  0.00    +0.078 C 
ATOM     29  C   UNL     1      -3.556  -1.576  24.232  0.00  0.00    +0.110 C 
ATOM     30  N   UNL     1      -3.056  -1.196  24.463  0.00  0.00    -0.298 N 
ATOM     31  C   UNL     1      -2.591  -0.530  24.613  0.00  0.00    +0.276 A 
ATOM     32  O   UNL     1      -1.951  -0.113  24.922  0.00  0.00    -0.266 OA
ENDROOT
BRANCH  21  23
ATOM     23  C   UNL     1      -2.114  -1.486  25.101  0.00  0.00    +0.063 C 
ATOM     24  C   UNL     1      -1.467  -1.325  24.616  0.00  0.00    +0.048 C 
ATOM     25  C   UNL     1      -0.899  -0.777  24.854  0.00  0.00    +0.144 C 
ATOM     26  O   UNL     1      -0.977  -0.389  25.579  0.00  0.00    -0.354 OA
ATOM     27  C   UNL     1      -1.624  -0.551  26.064  0.00  0.00    +0.144 C 
ATOM     28  C   UNL     1      -2.193  -1.099  25.826  0.00  0.00    +0.048 C 
ENDBRANCH  21  23
BRANCH  13  12
ATOM      9  N   UNL     1      -3.535   1.679  24.535  0.00  0.00    -0.158 NA
ATOM     10  C   UNL     1      -2.714   1.608  24.578  0.00  0.00    +0.348 C 
ATOM     11  O   UNL     1      -2.249   2.274  24.728  0.00  0.00    -0.248 OA
ATOM     12  N   UNL     1      -2.357   0.872  24.472  0.00  0.00    -0.156 NA
BRANCH   9   8
ATOM      3  C   UNL     1      -4.569   2.483  25.107  0.00  0.00    +0.154 A 
ATOM      4  C   UNL     1      -4.924   3.219  25.214  0.00  0.00    +0.038 A 
ATOM      5  C   UNL     1      -4.602   3.889  24.854  0.00  0.00    +0.003 A 
ATOM      6  C   UNL     1      -3.925   3.821  24.388  0.00  0.00    +0.002 A 
ATOM      7  C   UNL     1      -3.569   3.085  24.282  0.00  0.00    +0.020 A 
ATOM      8  C   UNL     1      -3.891   2.416  24.641  0.00  0.00    +0.109 A 
BRANCH   3   2
ATOM      1  C   UNL     1      -5.626   1.858  25.838  0.00  0.00    +0.253 C 
ATOM      2  O   UNL     1      -4.891   1.814  25.467  0.00  0.00    -0.470 OA
ENDBRANCH   3   2
ENDBRANCH   9   8
ENDBRANCH  13  12
TORSDOF 4
ENDMDL
MODEL 2
REMARK VINA RESULT:     -14.0      1.259      4.424
REMARK  Name = 
REMARK  4 active torsions:
REMARK  status: ('A' for Active; 'I' for Inactive)
REMARK    1  A    between atoms: O_2  and  C_3
REMARK    2  A    between atoms: C_8  and  N_9
REMARK    3  A    between atoms: N_12  and  C_13
REMARK    4  A    between atoms: N_21  and  C_23
REMARK                            x       y       z     vdW  Elec       q    Type
REMARK                         _______ _______ _______ _____ _____    ______ ____
ROOT
ATOM     13  C   UNL     1      -4.122   1.113  24.233  0.00  0.00    +0.131 A 
ATOM     14  C   UNL     1      -4.780   0.734  24.557  0.00  0.00    +0.023 A 
ATOM     15  C   UNL     1      -5.288   1.147  25.058  0.00  0.00    +0.014 A 
ATOM     16  C   UNL     1      -5.139   1.939  25.236  0.00  0.00    +0.041 A 
ATOM     17  C   UNL     1      -5.482   2.638  25.723  0.00  0.00    +0.054 C 
ATOM     18  C   UNL     1      -6.014   2.801  26.152  0.00  0.00    +0.011 C 
ATOM     19  C   UNL     1      -5.363   3.172  25.830  0.00  0.00    +0.039 C 
ATOM     20  C   UNL     1      -4.642   3.785  25.546  0.00  0.00    +0.074 C 
ATOM     21  N   UNL     1      -4.204   3.268  25.057  0.00  0.00    -0.273 NA
ATOM     22  C   UNL     1      -4.792   3.242  25.457  0.00  0.00    +0.078 C 
ATOM     29  C   UNL     1      -4.997   2.448  25.318  0.00  0.00    +0.110 C 
ATOM     30  N   UNL     1      -4.481   2.317  24.912  0.00  0.00    -0.298 N 
ATOM     31  C   UNL     1      -3.973   1.904  24.410  0.00  0.00    +0.276 A 
ATOM     32  O   UNL     1      -3.319   1.801  23.918  0.00  0.00    -0.266 OA
ENDROOT
BRANCH  21  23
ATOM     23  C   UNL     1      -3.607   3.011  24.549  0.00  0.00    +0.063 C 
ATOM     24  C   UNL     1      -2.901   2.717  24.858  0.00  0.00    +0.048 C 
ATOM     25  C   UNL     1      -2.303   2.460  24.350  0.00  0.00    +0.144 C 
ATOM     26  O   UNL     1      -2.412   2.498  23.533  0.00  0.00    -0.354 OA
ATOM     27  C   UNL     1      -3.118   2.792  23.224  0.00  0.00    +0.144 C 
ATOM     28  C   UNL     1      -3.715   3.049  23.731  0.00  0.00    +0.048 C 
ENDBRANCH  21  23
BRANCH  13  12
ATOM      9  N   UNL     1      -3.910  -0.512  24.431  0.00  0.00    -0.158 NA
ATOM     10  C   UNL     1      -3.508  -0.113  23.831  0.00  0.00    +0.348 C 
ATOM     11  O   UNL     1      -2.999  -0.527  23.329  0.00  0.00    -0.248 OA
ATOM     12  N   UNL     1      -3.614   0.699  23.732  0.00  0.00    -0.156 NA
BRANCH   9   8
ATOM      3  C   UNL     1      -3.478  -1.617  25.228  0.00  0.00    +0.154 A 
ATOM      4  C   UNL     1      -3.372  -2.429  25.326  0.00  0.00    +0.038 A 
ATOM      5  C   UNL     1      -3.591  -2.949  24.723  0.00  0.00    +0.003 A 
ATOM      6  C   UNL     1      -3.916  -2.657  24.024  0.00  0.00    +0.002 A 
ATOM      7  C   UNL     1      -4.022  -1.845  23.926  0.00  0.00    +0.020 A 
ATOM      8  C   UNL     1      -3.803  -1.325  24.529  0.00  0.00    +0.109 A 
BRANCH   3   2
ATOM      1  C   UNL     1      -2.971  -1.391  26.545  0.00  0.00    +0.253 C 
ATOM      2  O   UNL     1      -3.260  -1.097  25.831  0.00  0.00    -0.470 OA
ENDBRANCH   3   2
ENDBRANCH   9   8
ENDBRANCH  13  12
TORSDOF 4
ENDMDL
MODEL 3
REMARK VINA RESULT:     -13.8      1.467      4.744
REMARK  Name = 
REMARK  4 active torsions:
REMARK  status: ('A' for Active; 'I' for Inactive)
REMARK    1  A    between atoms: O_2  and  C_3
REMARK    2  A    between atoms: C_8  and  N_9
REMARK    3  A    between atoms: N_12  and  C_13
REMARK    4  A    between atoms: N_21  and  C_23
REMARK                            x       y       z     vdW  Elec       q    Type
REMARK                         _______ _______ _______ _____ _____    ______ ____
ROOT
ATOM     13  C   UNL     1      -3.269   1.999  24.410  0.00  0.00    +0.131 A 
ATOM     14  C   UNL     1      -2.623   1.599  24.087  0.00  0.00    +0.023 A 
ATOM     15  C   UNL     1      -1.874   1.944  24.104  0.00  0.00    +0.014 A 
ATOM     16  C   UNL     1      -1.770   2.688  24.444  0.00  0.00    +0.041 A 
ATOM     17  C   UNL     1      -1.115   3.309  24.614  0.00  0.00    +0.054 C 
ATOM     18  C   UNL     1      -0.427   3.421  24.530  0.00  0.00    +0.011 C 
ATOM     19  C   UNL     1      -1.066   3.813  24.848  0.00  0.00    +0.039 C 
ATOM     20  C   UNL     1      -1.703   4.435  25.277  0.00  0.00    +0.074 C 
ATOM     21  N   UNL     1      -2.406   3.990  25.202  0.00  0.00    -0.273 NA
ATOM     22  C   UNL     1      -1.718   3.921  25.031  0.00  0.00    +0.078 C 
ATOM     29  C   UNL     1      -1.757   3.170  24.675  0.00  0.00    +0.110 C 
ATOM     30  N   UNL     1      -2.415   3.088  24.767  0.00  0.00    -0.298 N 
ATOM     31  C   UNL     1      -3.165   2.743  24.750  0.00  0.00    +0.276 A 
ATOM     32  O   UNL     1      -3.976   2.697  24.890  0.00  0.00    -0.266 OA
ENDROOT
BRANCH  21  23
ATOM     23  C   UNL     1      -3.205   3.796  25.269  0.00  0.00    +0.063 C 
ATOM     24  C   UNL     1      -3.724   3.969  24.651  0.00  0.00    +0.048 C 
ATOM     25  C   UNL     1      -4.524   3.776  24.718  0.00  0.00    +0.144 C 
ATOM     26  O   UNL     1      -4.804   3.410  25.403  0.00  0.00    -0.354 OA
ATOM     27  C   UNL     1      -4.285   3.238  26.020  0.00  0.00    +0.144 C 
ATOM     28  C   UNL     1      -3.486   3.431  25.954  0.00  0.00    +0.048 C 
ENDBRANCH  21  23
BRANCH  13  12
ATOM      9  N   UNL     1      -3.424   0.358  24.494  0.00  0.00    -0.158 NA
ATOM     10  C   UNL     1      -4.096   0.834  24.435  0.00  0.00    +0.348 C 
ATOM     11  O   UNL     1      -4.846   0.489  24.418  0.00  0.00    -0.248 OA
ATOM     12  N   UNL     1      -4.018   1.654  24.393  0.00  0.00    -0.156 NA
BRANCH   9   8
ATOM      3  C   UNL     1      -3.094  -0.887  25.113  0.00  0.00    +0.154 A 
ATOM      4  C   UNL     1      -3.173  -1.707  25.154  0.00  0.00    +0.038 A 
ATOM      5  C   UNL     1      -3.661  -2.102  24.618  0.00  0.00    +0.003 A 
ATOM      6  C   UNL     1      -4.069  -1.677  24.041  0.00  0.00    +0.002 A 
ATOM      7  C   UNL     1      -3.990  -0.857  24.000  0.00  0.00    +0.020 A 
ATOM      8  C   UNL     1      -3.503  -0.462  24.536  0.00  0.00    +0.109 A 
BRANCH   3   2
ATOM      1  C   UNL     1      -2.094  -0.920  26.133  0.00  0.00    +0.253 C 
ATOM      2  O   UNL     1      -2.607  -0.492  25.649  0.00  0.00    -0.470 OA
ENDBRANCH   3   2
ENDBRANCH   9   8
ENDBRANCH  13  12
TORSDOF 4
ENDMDL
MODEL 4
REMARK VINA RESULT:     -13.5      1.440      1.866
REMARK  Name = 
REMARK  4 active torsions:
REMARK  status: ('A' for Active; 'I' for Inactive)
REMARK    1  A    between atoms: O_2  and  C_3
REMARK    2  A    between atoms: C_8  and  N_9
REMARK    3  A    between atoms: N_12  and  C_13
REMARK    4  A    between atoms: N_21  and  C_23
REMARK                            x       y       z     vdW  Elec       q    Type
REMARK                         _______ _______ _______ _____ _____    ______ ____
ROOT
ATOM     13  C   UNL     1      -1.805   0.805  24.369  0.00  0.00    +0.131 A 
ATOM     14  C   UNL     1      -2.379   1.251  23.978  0.00  0.00    +0.023 A 
ATOM     15  C   UNL     1      -3.139   0.946  23.875  0.00  0.00    +0.014 A 
ATOM     16  C   UNL     1      -3.325   0.196  24.164  0.00  0.00    +0.041 A 
ATOM     17  C   UNL     1      -4.026  -0.395  24.215  0.00  0.00    +0.054 C 
ATOM     18  C   UNL     1      -4.700  -0.467  24.032  0.00  0.00    +0.011 C 
ATOM     19  C   UNL     1      -4.131  -0.904  24.418  0.00  0.00    +0.039 C 
ATOM     20  C   UNL     1      -3.591  -1.574  24.903  0.00  0.00    +0.074 C 
ATOM     21  N   UNL     1      -2.864  -1.164  24.945  0.00  0.00    -0.273 NA
ATOM     22  C   UNL     1      -3.518  -1.053  24.684  0.00  0.00    +0.078 C 
ATOM     29  C   UNL     1      -3.393  -0.292  24.370  0.00  0.00    +0.110 C 
ATOM     30  N   UNL     1      -2.751  -0.249  24.556  0.00  0.00    -0.298 N 
ATOM     31  C   UNL     1      -1.991   0.056  24.658  0.00  0.00    +0.276 A 
ATOM     32  O   UNL     1      -1.207   0.053  24.911  0.00  0.00    -0.266 OA
ENDROOT
BRANCH  21  23
ATOM     23  C   UNL     1      -2.074  -1.016  25.130  0.00  0.00    +0.063 C 
ATOM     24  C   UNL     1      -1.481  -1.213  24.592  0.00  0.00    +0.048 C 
ATOM     25  C   UNL     1      -0.690  -1.065  24.777  0.00  0.00    +0.144 C 
ATOM     26  O   UNL     1      -0.493  -0.721  25.501  0.00  0.00    -0.354 OA
ATOM     27  C   UNL     1      -1.087  -0.525  26.039  0.00  0.00    +0.144 C 
ATOM     28  C   UNL     1      -1.877  -0.672  25.854  0.00  0.00    +0.048 C 
ENDBRANCH  21  23
BRANCH  13  12
ATOM      9  N   UNL     1      -1.596   2.414  24.672  0.00  0.00    -0.158 NA
ATOM     10  C   UNL     1      -0.941   1.914  24.622  0.00  0.00    +0.348 C 
ATOM     11  O   UNL     1      -0.180   2.219  24.724  0.00  0.00    -0.248 OA
ATOM     12  N   UNL     1      -1.046   1.110  24.471  0.00  0.00    -0.156 NA
BRANCH   9   8
ATOM      3  C   UNL     1      -2.013   3.617  25.322  0.00  0.00    +0.154 A 
ATOM      4  C   UNL     1      -1.907   4.420  25.474  0.00  0.00    +0.038 A 
ATOM      5  C   UNL     1      -1.278   4.826  25.127  0.00  0.00    +0.003 A 
ATOM      6  C   UNL     1      -0.755   4.428  24.629  0.00  0.00    +0.002 A 
ATOM      7  C   UNL     1      -0.861   3.624  24.477  0.00  0.00    +0.020 A 
ATOM      8  C   UNL     1      -1.490   3.218  24.824  0.00  0.00    +0.109 A 
BRANCH   3   2
ATOM      1  C   UNL     1      -3.195   3.619  26.126  0.00  0.00    +0.253 C 
ATOM      2  O   UNL     1      -2.643   3.211  25.669  0.00  0.00    -0.470 OA
ENDBRANCH   3   2
ENDBRANCH   9   8
ENDBRANCH  13  12
TORSDOF 4
ENDMDL
MODEL 5
REMARK VINA RESULT:     -13.4      1.851      4.350
REMARK  Name = 
REMARK  4 active torsions:
REMARK  status: ('A' for Active; 'I' for Inactive)
REMARK    1  A    between atoms: O_2  and  C_3
REMARK    2  A    between atoms: C_8  and  N_9
REMARK    3  A    between atoms: N_12  and  C_13
REMARK    4  A    between atoms: N_21  and  C_23
REMARK                            x       y       z     vdW  Elec       q    Type
REMARK                         _______ _______ _______ _____ _____    ______ ____
ROOT
ATOM     13  C   UNL     1      -2.846   2.234  24.325  0.00  0.00    +0.131 A 
ATOM     14  C   UNL     1      -3.179   1.536  24.037  0.00  0.00    +0.023 A 
ATOM     15  C   UNL     1      -3.973   1.365  24.184  0.00  0.00    +0.014 A 
ATOM     16  C   UNL     1      -4.434   1.893  24.619  0.00  0.00    +0.041 A 
ATOM     17  C   UNL     1      -5.289   1.997  24.938  0.00  0.00    +0.054 C 
ATOM     18  C   UNL     1      -5.914   1.679  24.951  0.00  0.00    +0.011 C 
ATOM     19  C   UNL     1      -5.583   2.367  25.234  0.00  0.00    +0.039 C 
ATOM     20  C   UNL     1      -5.369   3.236  25.654  0.00  0.00    +0.074 C 
ATOM     21  N   UNL     1      -4.563   3.299  25.444  0.00  0.00    -0.273 NA
ATOM     22  C   UNL     1      -5.098   2.838  25.349  0.00  0.00    +0.078 C 
ATOM     29  C   UNL     1      -4.687   2.267  24.905  0.00  0.00    +0.110 C 
ATOM     30  N   UNL     1      -4.101   2.591  24.907  0.00  0.00    -0.298 N 
ATOM     31  C   UNL     1      -3.307   2.761  24.760  0.00  0.00    +0.276 A 
ATOM     32  O   UNL     1      -2.613   3.204  24.796  0.00  0.00    -0.266 OA
ENDROOT
BRANCH  21  23
ATOM     23  C   UNL     1      -3.804   3.619  25.391  0.00  0.00    +0.063 C 
ATOM     24  C   UNL     1      -3.594   4.075  24.737  0.00  0.00    +0.048 C 
ATOM     25  C   UNL     1      -2.835   4.395  24.684  0.00  0.00    +0.144 C 
ATOM     26  O   UNL     1      -2.287   4.258  25.285  0.00  0.00    -0.354 OA
ATOM     27  C   UNL     1      -2.498   3.802  25.939  0.00  0.00    +0.144 C 
ATOM     28  C   UNL     1      -3.256   3.482  25.992  0.00  0.00    +0.048 C 
ENDBRANCH  21  23
BRANCH  13  12
ATOM      9  N   UNL     1      -1.730   1.018  24.315  0.00  0.00    -0.158 NA
ATOM     10  C   UNL     1      -1.495   1.796  24.172  0.00  0.00    +0.348 C 
ATOM     11  O   UNL     1      -0.701   1.967  24.025  0.00  0.00    -0.248 OA
ATOM     12  N   UNL     1      -2.053   2.404  24.178  0.00  0.00    -0.156 NA
BRANCH   9   8
ATOM      3  C   UNL     1      -1.169  -0.153  24.912  0.00  0.00    +0.154 A 
ATOM      4  C   UNL     1      -0.610  -0.759  24.906  0.00  0.00    +0.038 A 
ATOM      5  C   UNL     1      -0.054  -0.802  24.298  0.00  0.00    +0.003 A 
ATOM      6  C   UNL     1      -0.057  -0.239  23.695  0.00  0.00    +0.002 A 
ATOM      7  C   UNL     1      -0.616   0.368  23.701  0.00  0.00    +0.020 A 
ATOM      8  C   UNL     1      -1.171   0.411  24.309  0.00  0.00    +0.109 A 
BRANCH   3   2
ATOM      1  C   UNL     1      -1.766  -0.710  26.085  0.00  0.00    +0.253 C 
ATOM      2  O   UNL     1      -1.724  -0.109  25.520  0.00  0.00    -0.470 OA
ENDBRANCH   3   2
ENDBRANCH   9   8
ENDBRANCH  13  12
TORSDOF 4
ENDMDL
MODEL 6
REMARK VINA RESULT:     -12.7      1.559      4.382
REMARK  Name = 
REMARK  4 active torsions:
REMARK  status: ('A' for Active; 'I' for Inactive)
REMARK    1  A    between atoms: O_2  and  C_3
REMARK    2  A    between atoms: C_8  and  N_9
REMARK    3  A    between atoms: N_12  and  C_13
REMARK    4  A    between atoms: N_21  and  C_23
REMARK                            x       y       z     vdW  Elec       q    Type
REMARK                         _______ _______ _______ _____ _____    ______ ____
ROOT
ATOM     13  C   UNL     1      -1.567   1.401  24.386  0.00  0.00    +0.131 A 
ATOM     14  C   UNL     1      -2.251   1.199  23.970  0.00  0.00    +0.023 A 
ATOM     15  C   UNL     1      -2.874   1.736  23.914  0.00  0.00    +0.014 A 
ATOM     16  C   UNL     1      -2.813   2.476  24.272  0.00  0.00    +0.041 A 
ATOM     17  C   UNL     1      -3.290   3.253  24.392  0.00  0.00    +0.054 C 
ATOM     18  C   UNL     1      -3.905   3.551  24.232  0.00  0.00    +0.011 C 
ATOM     19  C   UNL     1      -3.229   3.748  24.641  0.00  0.00    +0.039 C 
ATOM     20  C   UNL     1      -2.506   4.165  25.171  0.00  0.00    +0.074 C 
ATOM     21  N   UNL     1      -1.948   3.543  25.159  0.00  0.00    -0.273 NA
ATOM     22  C   UNL     1      -2.601   3.670  24.905  0.00  0.00    +0.078 C 
ATOM     29  C   UNL     1      -2.723   2.940  24.522  0.00  0.00    +0.110 C 
ATOM     30  N   UNL     1      -2.130   2.679  24.688  0.00  0.00    -0.298 N 
ATOM     31  C   UNL     1      -1.507   2.141  24.744  0.00  0.00    +0.276 A 
ATOM     32  O   UNL     1      -0.763   1.871  24.978  0.00  0.00    -0.266 OA
ENDROOT
BRANCH  21  23
ATOM     23  C   UNL     1      -1.246   3.136  25.312  0.00  0.00    +0.063 C 
ATOM     24  C   UNL     1      -0.626   3.166  24.769  0.00  0.00    +0.048 C 
ATOM     25  C   UNL     1       0.075   2.759  24.921  0.00  0.00    +0.144 C 
ATOM     26  O   UNL     1       0.156   2.322  25.617  0.00  0.00    -0.354 OA
ATOM     27  C   UNL     1      -0.465   2.292  26.159  0.00  0.00    +0.144 C 
ATOM     28  C   UNL     1      -1.166   2.699  26.007  0.00  0.00    +0.048 C 
ENDBRANCH  21  23
BRANCH  13  12
ATOM      9  N   UNL     1      -1.881  -0.213  24.528  0.00  0.00    -0.158 NA
ATOM     10  C   UNL     1      -1.102   0.056  24.513  0.00  0.00    +0.348 C 
ATOM     11  O   UNL     1      -0.478  -0.482  24.569  0.00  0.00    -0.248 OA
ATOM     12  N   UNL     1      -0.945   0.863  24.442  0.00  0.00    -0.156 NA
BRANCH   9   8
ATOM      3  C   UNL     1      -2.636  -1.282  25.103  0.00  0.00    +0.154 A 
ATOM      4  C   UNL     1      -2.792  -2.088  25.174  0.00  0.00    +0.038 A 
ATOM      5  C   UNL     1      -2.349  -2.634  24.741  0.00  0.00    +0.003 A 
ATOM      6  C   UNL     1      -1.751  -2.372  24.238  0.00  0.00    +0.002 A 
ATOM      7  C   UNL     1      -1.595  -1.565  24.167  0.00  0.00    +0.020 A 
ATOM      8  C   UNL     1      -2.038  -1.020  24.600  0.00  0.00    +0.109 A 
BRANCH   3   2
ATOM      1  C   UNL     1      -3.690  -0.997  26.026  0.00  0.00    +0.253 C 
ATOM      2  O   UNL     1      -3.079  -0.736  25.536  0.00  0.00    -0.470 OA
ENDBRANCH   3   2
ENDBRANCH   9   8
ENDBRANCH  13  12
TORSDOF 4
ENDMDL
