MODEL 1
REMARK VINA RESULT:     -13.2      0.000      0.000
REMARK  Name = 
REMARK  4 active torsions:
REMARK  status: ('A' for Active; 'I' for Inactive)
REMARK    1  A    between atoms: C_2  and  C_15
REMARK    2  A    between atoms: N_3  and  C_4
REMARK    3  A    between atoms: C_4  and  C_5
REMARK    4  A    between atoms: C_12  and  C_13
REMARK                            x       y       z     vdW  Elec       q    Type
REMARK                         _______ _______ _______ _____ _____    ______ ____
ROOT
ATOM      1  O   UNL     1      -4.771   1.039  25.266  0.00  0.00    -0.268 OA
ATOM      2  C   UNL     1      -4.064   0.743  24.960  0.00  0.00    +0.265 C 
ATOM      3  N   UNL     1      -3.409   1.239  24.877  0.00  0.00    -0.200 NA
ENDROOT
BRANCH   2  15
ATOM     15  C   UNL     1      -4.011  -0.050  24.736  0.00  0.00    +0.055 A 
ATOM     16  C   UNL     1      -3.703  -0.607  25.261  0.00  0.00    +0.005 A 
ATOM     17  C   UNL     1      -3.651  -1.400  25.037  0.00  0.00    +0.000 A 
ATOM     18  C   UNL     1      -3.907  -1.635  24.289  0.00  0.00    +0.000 A 
ATOM     19  C   UNL     1      -3.854  -2.427  24.065  0.00  0.00    +0.000 A 
ATOM     20  C   UNL     1      -3.546  -2.985  24.590  0.00  0.00    +0.000 A 
ATOM     21  C   UNL     1      -3.290  -2.749  25.338  0.00  0.00    +0.000 A 
ATOM     22  C   UNL     1      -3.343  -1.957  25.562  0.00  0.00    +0.000 A 
ATOM     23  C   UNL     1      -4.215  -1.078  23.763  0.00  0.00    +0.000 A 
ATOM     24  C   UNL     1      -4.267  -0.284  23.987  0.00  0.00    +0.005 A 
ENDBRANCH   2  15
BRANCH   3   4
ATOM      4  C   UNL     1      -3.462   2.031  25.100  0.00  0.00    +0.131 C 
BRANCH   4   5
ATOM      5  C   UNL     1      -2.791   2.510  25.081  0.00  0.00    +0.079 C 
ATOM      6  C   UNL     1      -2.022   2.627  25.058  0.00  0.00    +0.019 C 
ATOM      7  C   UNL     1      -1.656   3.348  25.049  0.00  0.00    +0.016 C 
ATOM      8  C   UNL     1      -0.762   3.269  25.022  0.00  0.00    +0.018 C 
ATOM      9  C   UNL     1      -1.379   3.053  25.040  0.00  0.00    +0.072 C 
ATOM     10  N   UNL     1      -2.409   3.241  25.071  0.00  0.00    -0.271 NA
ATOM     11  C   UNL     1      -2.728   4.097  25.083  0.00  0.00    +0.085 C 
ATOM     12  C   UNL     1      -1.969   4.168  25.060  0.00  0.00    +0.081 C 
BRANCH  12  13
ATOM     13  C   UNL     1      -1.533   4.869  25.049  0.00  0.00    -0.078 C 
ATOM     14  C   UNL     1      -1.099   5.570  25.037  0.00  0.00    -0.014 C 
ENDBRANCH  12  13
ENDBRANCH   4   5
ENDBRANCH   3   4
TORSDOF 4
ENDMDL
MODEL 2
REMARK VINA RESULT:     -12.9      0.797      5.353
REMARK  Name = 
REMARK  4 active torsions:
REMARK  status: ('A' for Active; 'I' for Inactive)
REMARK    1  A    between atoms: C_2  and  C_15
REMARK    2  A    between atoms: N_3  and  C_4
REMARK    3  A    between atoms: C_4  and  C_5
REMARK    4  A    between atoms: C_12  and  C_13
REMARK                            x       y       z     vdW  Elec       q    Type
REMARK                         _______ _______ _______ _____ _____    ______ ____
ROOT
ATOM      1  O   UNL     1      -4.591   2.480  24.244  0.00  0.00    -0.268 OA
ATOM      2  C   UNL     1      -3.913   2.335  24.692  0.00  0.00    +0.265 C 
ATOM      3  N   UNL     1      -3.739   1.568  24.941  0.00  0.00    -0.200 NA
ENDROOT
BRANCH   2  15
ATOM     15  C   UNL     1      -3.409   2.958  24.890  0.00  0.00    +0.055 A 
ATOM     16  C   UNL     1      -2.632   2.964  24.611  0.00  0.00    +0.005 A 
ATOM     17  C   UNL     1      -2.127   3.586  24.809  0.00  0.00    +0.000 A 
ATOM     18  C   UNL     1      -2.400   4.202  25.287  0.00  0.00    +0.000 A 
ATOM     19  C   UNL     1      -1.896   4.824  25.485  0.00  0.00    +0.000 A 
ATOM     20  C   UNL     1      -1.119   4.830  25.206  0.00  0.00    +0.000 A 
ATOM     21  C   UNL     1      -0.847   4.215  24.729  0.00  0.00    +0.000 A 
ATOM     22  C   UNL     1      -1.352   3.593  24.530  0.00  0.00    +0.000 A 
ATOM     23  C   UNL     1      -3.176   4.196  25.566  0.00  0.00    +0.000 A 
ATOM     24  C   UNL     1      -3.681   3.573  25.368  0.00  0.00    +0.005 A 
ENDBRANCH   2  15
BRANCH   3   4
ATOM      4  C   UNL     1      -4.243   0.946  24.743  0.00  0.00    +0.131 C 
BRANCH   4   5
ATOM      5  C   UNL     1      -4.033   0.170  24.926  0.00  0.00    +0.079 C 
ATOM      6  C   UNL     1      -3.765  -0.381  25.406  0.00  0.00    +0.019 C 
ATOM      7  C   UNL     1      -3.680  -1.164  25.221  0.00  0.00    +0.016 C 
ATOM      8  C   UNL     1      -3.354  -1.637  25.911  0.00  0.00    +0.018 C 
ATOM      9  C   UNL     1      -3.562  -1.099  25.603  0.00  0.00    +0.072 C 
ATOM     10  N   UNL     1      -3.944  -0.630  24.747  0.00  0.00    -0.271 NA
ATOM     11  C   UNL     1      -4.113  -1.108  23.988  0.00  0.00    +0.085 C 
ATOM     12  C   UNL     1      -3.845  -1.618  24.488  0.00  0.00    +0.081 C 
BRANCH  12  13
ATOM     13  C   UNL     1      -3.734  -2.427  24.366  0.00  0.00    -0.078 C 
ATOM     14  C   UNL     1      -3.624  -3.235  24.243  0.00  0.00    -0.014 C 
ENDBRANCH  12  13
ENDBRANCH   4   5
ENDBRANCH   3   4
TORSDOF 4
ENDMDL
MODEL 3
REMARK VINA RESULT:     -12.2      1.363      5.610
REMARK  Name = 
REMARK  4 active torsions:
REMARK  status: ('A' for Active; 'I' for Inactive)
REMARK    1  A    between atoms: C_2  and  C_15
REMARK    2  A    between atoms: N_3  and  C_4
REMARK    3  A    between atoms: C_4  and  C_5
REMARK    4  A    between atoms: C_12  and  C_13
REMARK                            x       y       z     vdW  Elec       q    Type
REMARK                         _______ _______ _______ _____ _____    ______ ____
ROOT
ATOM      1  O   UNL     1      -0.542   1.296  26.047  0.00  0.00    -0.268 OA
ATOM      2  C   UNL     1      -1.067   1.636  25.509  0.00  0.00    +0.265 C 
ATOM      3  N   UNL     1      -1.648   1.173  25.149  0.00  0.00    -0.200 NA
ENDROOT
BRANCH   2  15
ATOM     15  C   UNL     1      -1.011   2.440  25.330  0.00  0.00    +0.055 A 
ATOM     16  C   UNL     1      -1.600   2.960  25.584  0.00  0.00    +0.005 A 
ATOM     17  C   UNL     1      -1.544   3.765  25.405  0.00  0.00    +0.000 A 
ATOM     18  C   UNL     1      -0.900   4.047  24.973  0.00  0.00    +0.000 A 
ATOM     19  C   UNL     1      -0.845   4.851  24.794  0.00  0.00    +0.000 A 
ATOM     20  C   UNL     1      -1.433   5.372  25.048  0.00  0.00    +0.000 A 
ATOM     21  C   UNL     1      -2.076   5.088  25.480  0.00  0.00    +0.000 A 
ATOM     22  C   UNL     1      -2.131   4.285  25.659  0.00  0.00    +0.000 A 
ATOM     23  C   UNL     1      -0.312   3.527  24.719  0.00  0.00    +0.000 A 
ATOM     24  C   UNL     1      -0.368   2.722  24.898  0.00  0.00    +0.005 A 
ENDBRANCH   2  15
BRANCH   3   4
ATOM      4  C   UNL     1      -1.703   0.370  25.328  0.00  0.00    +0.131 C 
BRANCH   4   5
ATOM      5  C   UNL     1      -2.336  -0.074  25.040  0.00  0.00    +0.079 C 
ATOM      6  C   UNL     1      -3.053  -0.152  24.748  0.00  0.00    +0.019 C 
ATOM      7  C   UNL     1      -3.407  -0.852  24.552  0.00  0.00    +0.016 C 
ATOM      8  C   UNL     1      -4.236  -0.728  24.230  0.00  0.00    +0.018 C 
ATOM      9  C   UNL     1      -3.659  -0.544  24.475  0.00  0.00    +0.072 C 
ATOM     10  N   UNL     1      -2.705  -0.783  24.838  0.00  0.00    -0.271 NA
ATOM     11  C   UNL     1      -2.426  -1.651  24.882  0.00  0.00    +0.085 C 
ATOM     12  C   UNL     1      -3.133  -1.684  24.597  0.00  0.00    +0.081 C 
BRANCH  12  13
ATOM     13  C   UNL     1      -3.551  -2.361  24.377  0.00  0.00    -0.078 C 
ATOM     14  C   UNL     1      -3.970  -3.037  24.158  0.00  0.00    -0.014 C 
ENDBRANCH  12  13
ENDBRANCH   4   5
ENDBRANCH   3   4
TORSDOF 4
ENDMDL
MODEL 4
REMARK VINA RESULT:     -12.1      1.495      1.936
REMARK  Name = 
REMARK  4 active torsions:
REMARK  status: ('A' for Active; 'I' for Inactive)
REMARK    1  A    between atoms: C_2  and  C_15
REMARK    2  A    between atoms: N_3  and  C_4
REMARK    3  A    between atoms: C_4  and  C_5
REMARK    4  A    between atoms: C_12  and  C_13
REMARK                            x       y       z     vdW  Elec       q    Type
REMARK                         _______ _______ _______ _____ _____    ______ ____
ROOT
ATOM      1  O   UNL     1      -0.481  -0.092  24.450  0.00  0.00    -0.268 OA
ATOM      2  C   UNL     1      -1.246  -0.010  24.749  0.00  0.00    +0.265 C 
ATOM      3  N   UNL     1      -1.491   0.713  25.065  0.00  0.00    -0.200 NA
ENDROOT
BRANCH   2  15
ATOM     15  C   UNL     1      -1.766  -0.651  24.733  0.00  0.00    +0.055 A 
ATOM     16  C   UNL     1      -2.493  -0.581  24.348  0.00  0.00    +0.005 A 
ATOM     17  C   UNL     1      -3.014  -1.222  24.332  0.00  0.00    +0.000 A 
ATOM     18  C   UNL     1      -2.806  -1.931  24.700  0.00  0.00    +0.000 A 
ATOM     19  C   UNL     1      -3.326  -2.571  24.684  0.00  0.00    +0.000 A 
ATOM     20  C   UNL     1      -4.054  -2.503  24.299  0.00  0.00    +0.000 A 
ATOM     21  C   UNL     1      -4.260  -1.794  23.932  0.00  0.00    +0.000 A 
ATOM     22  C   UNL     1      -3.740  -1.154  23.948  0.00  0.00    +0.000 A 
ATOM     23  C   UNL     1      -2.080  -2.000  25.085  0.00  0.00    +0.000 A 
ATOM     24  C   UNL     1      -1.559  -1.359  25.101  0.00  0.00    +0.005 A 
ENDBRANCH   2  15
BRANCH   3   4
ATOM      4  C   UNL     1      -0.972   1.352  25.081  0.00  0.00    +0.131 C 
BRANCH   4   5
ATOM      5  C   UNL     1      -1.257   2.112  25.228  0.00  0.00    +0.079 C 
ATOM      6  C   UNL     1      -1.763   2.615  25.538  0.00  0.00    +0.019 C 
ATOM      7  C   UNL     1      -1.729   3.420  25.468  0.00  0.00    +0.016 C 
ATOM      8  C   UNL     1      -2.405   3.822  25.899  0.00  0.00    +0.018 C 
ATOM      9  C   UNL     1      -2.050   3.314  25.690  0.00  0.00    +0.072 C 
ATOM     10  N   UNL     1      -1.229   2.933  25.161  0.00  0.00    -0.271 NA
ATOM     11  C   UNL     1      -0.646   3.493  24.737  0.00  0.00    +0.085 C 
ATOM     12  C   UNL     1      -1.164   3.952  25.058  0.00  0.00    +0.081 C 
BRANCH  12  13
ATOM     13  C   UNL     1      -1.188   4.777  25.025  0.00  0.00    -0.078 C 
ATOM     14  C   UNL     1      -1.211   5.601  24.993  0.00  0.00    -0.014 C 
ENDBRANCH  12  13
ENDBRANCH   4   5
ENDBRANCH   3   4
TORSDOF 4
ENDMDL
MODEL 5
REMARK VINA RESULT:     -10.6      1.488      2.168
REMARK  Name = 
REMARK  4 active torsions:
REMARK  status: ('A' for Active; 'I' for Inactive)
REMARK    1  A    between atoms: C_2  and  C_15
REMARK    2  A    between atoms: N_3  and  C_4
REMARK    3  A    between atoms: C_4  and  C_5
REMARK    4  A    between atoms: C_12  and  C_13
REMARK                            x       y       z     vdW  Elec       q    Type
REMARK                         _______ _______ _______ _____ _____    ______ ____
ROOT
ATOM      1  O   UNL     1      -1.509   0.655  23.979  0.00  0.00    -0.268 OA
ATOM      2  C   UNL     1      -2.200   0.485  24.397  0.00  0.00    +0.265 C 
ATOM      3  N   UNL     1      -2.652   1.099  24.714  0.00  0.00    -0.200 NA
ENDROOT
BRANCH   2  15
ATOM     15  C   UNL     1      -2.439  -0.298  24.498  0.00  0.00    +0.055 A 
ATOM     16  C   UNL     1      -3.127  -0.569  24.132  0.00  0.00    +0.005 A 
ATOM     17  C   UNL     1      -3.366  -1.353  24.234  0.00  0.00    +0.000 A 
ATOM     18  C   UNL     1      -2.917  -1.864  24.701  0.00  0.00    +0.000 A 
ATOM     19  C   UNL     1      -3.156  -2.647  24.802  0.00  0.00    +0.000 A 
ATOM     20  C   UNL     1      -3.844  -2.920  24.436  0.00  0.00    +0.000 A 
ATOM     21  C   UNL     1      -4.292  -2.408  23.970  0.00  0.00    +0.000 A 
ATOM     22  C   UNL     1      -4.053  -1.625  23.868  0.00  0.00    +0.000 A 
ATOM     23  C   UNL     1      -2.229  -1.593  25.067  0.00  0.00    +0.000 A 
ATOM     24  C   UNL     1      -1.989  -0.809  24.965  0.00  0.00    +0.005 A 
ENDBRANCH   2  15
BRANCH   3   4
ATOM      4  C   UNL     1      -2.413   1.882  24.613  0.00  0.00    +0.131 C 
BRANCH   4   5
ATOM      5  C   UNL     1      -2.845   2.493  24.960  0.00  0.00    +0.079 C 
ATOM      6  C   UNL     1      -2.918   3.115  25.422  0.00  0.00    +0.019 C 
ATOM      7  C   UNL     1      -3.600   3.533  25.543  0.00  0.00    +0.016 C 
ATOM      8  C   UNL     1      -3.476   4.216  26.112  0.00  0.00    +0.018 C 
ATOM      9  C   UNL     1      -3.298   3.695  25.760  0.00  0.00    +0.072 C 
ATOM     10  N   UNL     1      -3.535   2.925  25.089  0.00  0.00    -0.271 NA
ATOM     11  C   UNL     1      -4.383   2.833  24.763  0.00  0.00    +0.085 C 
ATOM     12  C   UNL     1      -4.413   3.439  25.226  0.00  0.00    +0.081 C 
BRANCH  12  13
ATOM     13  C   UNL     1      -5.072   3.907  25.394  0.00  0.00    -0.078 C 
ATOM     14  C   UNL     1      -5.730   4.376  25.560  0.00  0.00    -0.014 C 
ENDBRANCH  12  13
ENDBRANCH   4   5
ENDBRANCH   3   4
TORSDOF 4
ENDMDL
MODEL 6
REMARK VINA RESULT:     -10.3      1.852      2.693
REMARK  Name = 
REMARK  4 active torsions:
REMARK  status: ('A' for Active; 'I' for Inactive)
REMARK    1  A    between atoms: C_2  and  C_15
REMARK    2  A    between atoms: N_3  and  C_4
REMARK    3  A    between atoms: C_4  and  C_5
REMARK    4  A    between atoms: C_12  and  C_13
REMARK                            x       y       z     vdW  Elec       q    Type
REMARK                         _______ _______ _______ _____ _____    ______ ____
ROOT
ATOM      1  O   UNL     1      -4.813  -1.059  24.267  0.00  0.00    -0.268 OA
ATOM      2  C   UNL     1      -4.102  -0.735  24.534  0.00  0.00    +0.265 C 
ATOM      3  N   UNL     1      -4.068   0.061  24.751  0.00  0.00    -0.200 NA
ENDROOT
BRANCH   2  15
ATOM     15  C   UNL     1      -3.427  -1.206  24.585  0.00  0.00    +0.055 A 
ATOM     16  C   UNL     1      -2.714  -0.878  24.842  0.00  0.00    +0.005 A 
ATOM     17  C   UNL     1      -2.038  -1.350  24.893  0.00  0.00    +0.000 A 
ATOM     18  C   UNL     1      -2.076  -2.148  24.686  0.00  0.00    +0.000 A 
ATOM     19  C   UNL     1      -1.400  -2.618  24.736  0.00  0.00    +0.000 A 
ATOM     20  C   UNL     1      -0.687  -2.291  24.994  0.00  0.00    +0.000 A 
ATOM     21  C   UNL     1      -0.651  -1.494  25.200  0.00  0.00    +0.000 A 
ATOM     22  C   UNL     1      -1.326  -1.023  25.149  0.00  0.00    +0.000 A 
ATOM     23  C   UNL     1      -2.788  -2.475  24.429  0.00  0.00    +0.000 A 
ATOM     24  C   UNL     1      -3.464  -2.004  24.378  0.00  0.00    +0.005 A 
ENDBRANCH   2  15
BRANCH   3   4
ATOM      4  C   UNL     1      -4.743   0.531  24.701  0.00  0.00    +0.131 C 
BRANCH   4   5
ATOM      5  C   UNL     1      -4.683   1.350  24.783  0.00  0.00    +0.079 C 
ATOM      6  C   UNL     1      -4.305   2.028  24.719  0.00  0.00    +0.019 C 
ATOM      7  C   UNL     1      -4.599   2.751  24.931  0.00  0.00    +0.016 C 
ATOM      8  C   UNL     1      -4.009   3.409  24.779  0.00  0.00    +0.018 C 
ATOM      9  C   UNL     1      -4.224   2.792  24.785  0.00  0.00    +0.072 C 
ATOM     10  N   UNL     1      -4.974   2.091  24.996  0.00  0.00    -0.271 NA
ATOM     11  C   UNL     1      -5.773   2.354  25.351  0.00  0.00    +0.085 C 
ATOM     12  C   UNL     1      -5.370   2.997  25.272  0.00  0.00    +0.081 C 
BRANCH  12  13
ATOM     13  C   UNL     1      -5.608   3.763  25.467  0.00  0.00    -0.078 C 
ATOM     14  C   UNL     1      -5.846   4.528  25.663  0.00  0.00    -0.014 C 
ENDBRANCH  12  13
ENDBRANCH   4   5
ENDBRANCH   3   4
TORSDOF 4
ENDMDL
MODEL 7
REMARK VINA RESULT:      -9.6      2.477      4.017
REMARK  Name = 
REMARK  4 active torsions:
REMARK  status: ('A' for Active; 'I' for Inactive)
REMARK    1  A    between atoms: C_2  and  C_15
REMARK    2  A    between atoms: N_3  and  C_4
REMARK    3  A    between atoms: C_4  and  C_5
REMARK    4  A    between atoms: C_12  and  C_13
REMARK                            x       y       z     vdW  Elec       q    Type
REMARK                         _______ _______ _______ _____ _____    ______ ____
ROOT
ATOM      1  O   UNL     1      -3.461  -0.435  24.680  0.00  0.00    -0.268 OA
ATOM      2  C   UNL     1      -3.290   0.371  24.724  0.00  0.00    +0.265 C 
ATOM      3  N   UNL     1      -2.516   0.636  24.608  0.00  0.00    -0.200 NA
ENDROOT
BRANCH   2  15
ATOM     15  C   UNL     1      -3.892   0.913  24.883  0.00  0.00    +0.055 A 
ATOM     16  C   UNL     1      -3.713   1.714  24.967  0.00  0.00    +0.005 A 
ATOM     17  C   UNL     1      -4.316   2.256  25.126  0.00  0.00    +0.000 A 
ATOM     18  C   UNL     1      -5.095   1.995  25.202  0.00  0.00    +0.000 A 
ATOM     19  C   UNL     1      -5.697   2.537  25.362  0.00  0.00    +0.000 A 
ATOM     20  C   UNL     1      -5.519   3.339  25.445  0.00  0.00    +0.000 A 
ATOM     21  C   UNL     1      -4.740   3.598  25.369  0.00  0.00    +0.000 A 
ATOM     22  C   UNL     1      -4.138   3.057  25.210  0.00  0.00    +0.000 A 
ATOM     23  C   UNL     1      -5.273   1.194  25.119  0.00  0.00    +0.000 A 
ATOM     24  C   UNL     1      -4.671   0.652  24.959  0.00  0.00    +0.005 A 
ENDBRANCH   2  15
BRANCH   3   4
ATOM      4  C   UNL     1      -1.915   0.095  24.449  0.00  0.00    +0.131 C 
BRANCH   4   5
ATOM      5  C   UNL     1      -1.164   0.363  24.239  0.00  0.00    +0.079 C 
ATOM      6  C   UNL     1      -0.597   0.895  24.223  0.00  0.00    +0.019 C 
ATOM      7  C   UNL     1       0.126   0.802  23.872  0.00  0.00    +0.016 C 
ATOM      8  C   UNL     1       0.639   1.533  23.963  0.00  0.00    +0.018 C 
ATOM      9  C   UNL     1       0.100   1.170  24.040  0.00  0.00    +0.072 C 
ATOM     10  N   UNL     1      -0.425   0.276  23.884  0.00  0.00    -0.271 NA
ATOM     11  C   UNL     1      -0.045  -0.416  23.425  0.00  0.00    +0.085 C 
ATOM     12  C   UNL     1       0.485   0.133  23.431  0.00  0.00    +0.081 C 
BRANCH  12  13
ATOM     13  C   UNL     1       1.238   0.104  23.095  0.00  0.00    -0.078 C 
ATOM     14  C   UNL     1       1.991   0.074  22.758  0.00  0.00    -0.014 C 
ENDBRANCH  12  13
ENDBRANCH   4   5
ENDBRANCH   3   4
TORSDOF 4
ENDMDL
MODEL 8
REMARK VINA RESULT:      -9.6      1.703      5.334
REMARK  Name = 
REMARK  4 active torsions:
REMARK  status: ('A' for Active; 'I' for Inactive)
REMARK    1  A    between atoms: C_2  and  C_15
REMARK    2  A    between atoms: N_3  and  C_4
REMARK    3  A    between atoms: C_4  and  C_5
REMARK    4  A    between atoms: C_12  and  C_13
REMARK                            x       y       z     vdW  Elec       q    Type
REMARK                         _______ _______ _______ _____ _____    ______ ____
ROOT
ATOM      1  O   UNL     1      -2.678   1.892  23.370  0.00  0.00    -0.268 OA
ATOM      2  C   UNL     1      -3.322   1.757  23.868  0.00  0.00    +0.265 C 
ATOM      3  N   UNL     1      -3.585   0.986  24.003  0.00  0.00    -0.200 NA
ENDROOT
BRANCH   2  15
ATOM     15  C   UNL     1      -3.703   2.392  24.232  0.00  0.00    +0.055 A 
ATOM     16  C   UNL     1      -4.423   2.274  24.619  0.00  0.00    +0.005 A 
ATOM     17  C   UNL     1      -4.804   2.909  24.983  0.00  0.00    +0.000 A 
ATOM     18  C   UNL     1      -4.465   3.661  24.959  0.00  0.00    +0.000 A 
ATOM     19  C   UNL     1      -4.847   4.296  25.323  0.00  0.00    +0.000 A 
ATOM     20  C   UNL     1      -5.566   4.179  25.710  0.00  0.00    +0.000 A 
ATOM     21  C   UNL     1      -5.904   3.427  25.733  0.00  0.00    +0.000 A 
ATOM     22  C   UNL     1      -5.523   2.792  25.369  0.00  0.00    +0.000 A 
ATOM     23  C   UNL     1      -3.746   3.779  24.573  0.00  0.00    +0.000 A 
ATOM     24  C   UNL     1      -3.364   3.144  24.209  0.00  0.00    +0.005 A 
ENDBRANCH   2  15
BRANCH   3   4
ATOM      4  C   UNL     1      -3.204   0.351  23.639  0.00  0.00    +0.131 C 
BRANCH   4   5
ATOM      5  C   UNL     1      -3.464  -0.419  23.776  0.00  0.00    +0.079 C 
ATOM      6  C   UNL     1      -3.965  -1.008  23.690  0.00  0.00    +0.019 C 
ATOM      7  C   UNL     1      -3.891  -1.742  24.022  0.00  0.00    +0.016 C 
ATOM      8  C   UNL     1      -4.575  -2.279  23.802  0.00  0.00    +0.018 C 
ATOM      9  C   UNL     1      -4.230  -1.724  23.802  0.00  0.00    +0.072 C 
ATOM     10  N   UNL     1      -3.396  -1.170  24.111  0.00  0.00    -0.271 NA
ATOM     11  C   UNL     1      -2.763  -1.542  24.653  0.00  0.00    +0.085 C 
ATOM     12  C   UNL     1      -3.279  -2.093  24.544  0.00  0.00    +0.081 C 
BRANCH  12  13
ATOM     13  C   UNL     1      -3.264  -2.859  24.851  0.00  0.00    -0.078 C 
ATOM     14  C   UNL     1      -3.250  -3.625  25.157  0.00  0.00    -0.014 C 
ENDBRANCH  12  13
ENDBRANCH   4   5
ENDBRANCH   3   4
TORSDOF 4
ENDMDL
