MODEL 1
REMARK VINA RESULT:     -14.4      0.000      0.000
REMARK  Name = 
REMARK  4 active torsions:
REMARK  status: ('A' for Active; 'I' for Inactive)
REMARK    1  A    between atoms: N_4  and  C_5
REMARK    2  A    between atoms: C_8  and  S_11
REMARK    3  A    between atoms: S_11  and  N_14
REMARK    4  A    between atoms: C_23  and  C_24
REMARK                            x       y       z     vdW  Elec       q    Type
REMARK                         _______ _______ _______ _____ _____    ______ ____
ROOT
ATOM     14  N   UNL     1      -1.488   2.852  24.659  0.00  0.00    -0.155 NA
ATOM     15  C   UNL     1      -0.771   3.280  24.650  0.00  0.00    +0.098 C 
ATOM     16  C   UNL     1      -1.094   4.153  24.980  0.00  0.00    +0.041 C 
ATOM     17  C   UNL     1      -1.199   4.920  25.235  0.00  0.00    +0.011 C 
ATOM     18  C   UNL     1      -1.593   4.348  25.137  0.00  0.00    +0.056 C 
ATOM     19  C   UNL     1      -1.265   3.510  24.817  0.00  0.00    +0.102 C 
ATOM     20  C   UNL     1      -2.458   4.047  25.213  0.00  0.00    +0.041 A 
ATOM     21  C   UNL     1      -3.208   4.304  25.438  0.00  0.00    +0.013 A 
ATOM     22  C   UNL     1      -3.850   3.786  25.404  0.00  0.00    +0.009 A 
ATOM     23  C   UNL     1      -3.740   3.010  25.145  0.00  0.00    +0.091 A 
ATOM     29  C   UNL     1      -2.990   2.753  24.920  0.00  0.00    +0.264 A 
ATOM     30  O   UNL     1      -2.880   1.977  24.662  0.00  0.00    -0.267 OA
ATOM     31  N   UNL     1      -2.349   3.271  24.954  0.00  0.00    -0.299 N 
ATOM     32  C   UNL     1      -1.995   3.830  25.057  0.00  0.00    +0.110 C 
ENDROOT
BRANCH  23  24
ATOM     24  C   UNL     1      -4.382   2.493  25.112  0.00  0.00    +0.150 A 
ATOM     25  C   UNL     1      -4.924   2.433  24.493  0.00  0.00    +0.041 A 
ATOM     26  C   UNL     1      -5.471   1.848  24.688  0.00  0.00    +0.044 A 
ATOM     27  C   UNL     1      -5.267   1.547  25.430  0.00  0.00    +0.180 A 
ATOM     28  O   UNL     1      -4.594   1.945  25.691  0.00  0.00    -0.450 OA
ENDBRANCH  23  24
BRANCH  14  11
ATOM     11  S   UNL     1      -2.007   2.217  24.565  0.00  0.00    +0.063 S 
ATOM     12  O   UNL     1      -2.163   2.458  23.791  0.00  0.00    -0.153 OA
ATOM     13  O   UNL     1      -1.851   1.976  25.339  0.00  0.00    -0.153 OA
BRANCH  11   8
ATOM      5  C   UNL     1      -3.562   0.312  24.285  0.00  0.00    +0.073 A 
ATOM      6  C   UNL     1      -3.177   0.428  25.005  0.00  0.00    +0.018 A 
ATOM      7  C   UNL     1      -2.659   1.063  25.099  0.00  0.00    +0.021 A 
ATOM      8  C   UNL     1      -2.525   1.582  24.472  0.00  0.00    +0.122 A 
ATOM      9  C   UNL     1      -2.909   1.466  23.751  0.00  0.00    +0.021 A 
ATOM     10  C   UNL     1      -3.428   0.831  23.658  0.00  0.00    +0.018 A 
BRANCH   5   4
ATOM      1  C   UNL     1      -4.302  -1.717  23.968  0.00  0.00    +0.097 C 
ATOM      2  C   UNL     1      -3.784  -1.082  24.062  0.00  0.00    +0.246 C 
ATOM      3  O   UNL     1      -2.969  -1.206  24.026  0.00  0.00    -0.273 OA
ATOM      4  N   UNL     1      -4.080  -0.323  24.191  0.00  0.00    -0.179 NA
ENDBRANCH   5   4
ENDBRANCH  11   8
ENDBRANCH  14  11
TORSDOF 4
ENDMDL
MODEL 2
REMARK VINA RESULT:     -14.1      1.577      4.615
REMARK  Name = 
REMARK  4 active torsions:
REMARK  status: ('A' for Active; 'I' for Inactive)
REMARK    1  A    between atoms: N_4  and  C_5
REMARK    2  A    between atoms: C_8  and  S_11
REMARK    3  A    between atoms: S_11  and  N_14
REMARK    4  A    between atoms: C_23  and  C_24
REMARK                            x       y       z     vdW  Elec       q    Type
REMARK                         _______ _______ _______ _____ _____    ______ ____
ROOT
ATOM     14  N   UNL     1      -4.022  -1.218  24.193  0.00  0.00    -0.155 NA
ATOM     15  C   UNL     1      -4.475  -1.909  24.068  0.00  0.00    +0.098 C 
ATOM     16  C   UNL     1      -3.793  -2.593  24.274  0.00  0.00    +0.041 C 
ATOM     17  C   UNL     1      -3.356  -3.267  24.409  0.00  0.00    +0.011 C 
ATOM     18  C   UNL     1      -3.258  -2.573  24.430  0.00  0.00    +0.056 C 
ATOM     19  C   UNL     1      -3.928  -1.923  24.228  0.00  0.00    +0.102 C 
ATOM     20  C   UNL     1      -2.616  -1.941  24.611  0.00  0.00    +0.041 A 
ATOM     21  C   UNL     1      -1.827  -1.877  24.841  0.00  0.00    +0.013 A 
ATOM     22  C   UNL     1      -1.483  -1.133  24.933  0.00  0.00    +0.009 A 
ATOM     23  C   UNL     1      -1.929  -0.452  24.796  0.00  0.00    +0.091 A 
ATOM     29  C   UNL     1      -2.718  -0.516  24.566  0.00  0.00    +0.264 A 
ATOM     30  O   UNL     1      -3.164   0.165  24.429  0.00  0.00    -0.267 OA
ATOM     31  N   UNL     1      -3.062  -1.260  24.474  0.00  0.00    -0.299 N 
ATOM     32  C   UNL     1      -3.129  -1.926  24.461  0.00  0.00    +0.110 C 
ENDROOT
BRANCH  23  24
ATOM     24  C   UNL     1      -1.584   0.291  24.889  0.00  0.00    +0.150 A 
ATOM     25  C   UNL     1      -1.138   0.693  24.323  0.00  0.00    +0.041 A 
ATOM     26  C   UNL     1      -0.903   1.413  24.646  0.00  0.00    +0.044 A 
ATOM     27  C   UNL     1      -1.204   1.458  25.414  0.00  0.00    +0.180 A 
ATOM     28  O   UNL     1      -1.624   0.764  25.563  0.00  0.00    -0.450 OA
ENDBRANCH  23  24
BRANCH  14  11
ATOM     11  S   UNL     1      -3.841  -0.414  24.237  0.00  0.00    +0.063 S 
ATOM     12  O   UNL     1      -4.068  -0.407  25.031  0.00  0.00    -0.153 OA
ATOM     13  O   UNL     1      -3.614  -0.421  23.444  0.00  0.00    -0.153 OA
BRANCH  11   8
ATOM      5  C   UNL     1      -3.297   1.997  24.371  0.00  0.00    +0.073 A 
ATOM      6  C   UNL     1      -3.595   1.604  25.032  0.00  0.00    +0.018 A 
ATOM      7  C   UNL     1      -3.776   0.800  24.988  0.00  0.00    +0.021 A 
ATOM      8  C   UNL     1      -3.660   0.390  24.282  0.00  0.00    +0.122 A 
ATOM      9  C   UNL     1      -3.363   0.783  23.620  0.00  0.00    +0.021 A 
ATOM     10  C   UNL     1      -3.181   1.587  23.665  0.00  0.00    +0.018 A 
BRANCH   5   4
ATOM      1  C   UNL     1      -3.530   4.167  24.365  0.00  0.00    +0.097 C 
ATOM      2  C   UNL     1      -3.712   3.363  24.321  0.00  0.00    +0.246 C 
ATOM      3  O   UNL     1      -4.488   3.123  24.183  0.00  0.00    -0.273 OA
ATOM      4  N   UNL     1      -3.116   2.801  24.415  0.00  0.00    -0.179 NA
ENDBRANCH   5   4
ENDBRANCH  11   8
ENDBRANCH  14  11
TORSDOF 4
ENDMDL
MODEL 3
REMARK VINA RESULT:     -14.1      1.346      4.136
REMARK  Name = 
REMARK  4 active torsions:
REMARK  status: ('A' for Active; 'I' for Inactive)
REMARK    1  A    between atoms: N_4  and  C_5
REMARK    2  A    between atoms: C_8  and  S_11
REMARK    3  A    between atoms: S_11  and  N_14
REMARK    4  A    between atoms: C_23  and  C_24
REMARK                            x       y       z     vdW  Elec       q    Type
REMARK                         _______ _______ _______ _____ _____    ______ ____
ROOT
ATOM     14  N   UNL     1      -1.923  -1.060  24.759  0.00  0.00    -0.155 NA
ATOM     15  C   UNL     1      -1.690  -1.860  24.820  0.00  0.00    +0.098 C 
ATOM     16  C   UNL     1      -2.559  -2.299  24.651  0.00  0.00    +0.041 C 
ATOM     17  C   UNL     1      -3.186  -2.805  24.533  0.00  0.00    +0.011 C 
ATOM     18  C   UNL     1      -3.073  -2.112  24.544  0.00  0.00    +0.056 C 
ATOM     19  C   UNL     1      -2.226  -1.703  24.709  0.00  0.00    +0.102 C 
ATOM     20  C   UNL     1      -3.508  -1.309  24.442  0.00  0.00    +0.041 A 
ATOM     21  C   UNL     1      -4.257  -1.001  24.285  0.00  0.00    +0.013 A 
ATOM     22  C   UNL     1      -4.368  -0.185  24.248  0.00  0.00    +0.009 A 
ATOM     23  C   UNL     1      -3.730   0.324  24.369  0.00  0.00    +0.091 A 
ATOM     29  C   UNL     1      -2.981   0.017  24.526  0.00  0.00    +0.264 A 
ATOM     30  O   UNL     1      -2.343   0.526  24.647  0.00  0.00    -0.267 OA
ATOM     31  N   UNL     1      -2.870  -0.800  24.563  0.00  0.00    -0.299 N 
ATOM     32  C   UNL     1      -3.004  -1.455  24.546  0.00  0.00    +0.110 C 
ENDROOT
BRANCH  23  24
ATOM     24  C   UNL     1      -3.841   1.140  24.332  0.00  0.00    +0.150 A 
ATOM     25  C   UNL     1      -4.136   1.617  24.938  0.00  0.00    +0.041 A 
ATOM     26  C   UNL     1      -4.155   2.395  24.665  0.00  0.00    +0.044 A 
ATOM     27  C   UNL     1      -3.873   2.399  23.889  0.00  0.00    +0.180 A 
ATOM     28  O   UNL     1      -3.679   1.624  23.684  0.00  0.00    -0.450 OA
ENDBRANCH  23  24
BRANCH  14  11
ATOM     11  S   UNL     1      -1.858  -0.237  24.758  0.00  0.00    +0.063 S 
ATOM     12  O   UNL     1      -2.026  -0.223  25.566  0.00  0.00    -0.153 OA
ATOM     13  O   UNL     1      -1.689  -0.251  23.951  0.00  0.00    -0.153 OA
BRANCH  11   8
ATOM      5  C   UNL     1      -1.663   2.230  24.756  0.00  0.00    +0.073 A 
ATOM      6  C   UNL     1      -1.840   1.831  25.456  0.00  0.00    +0.018 A 
ATOM      7  C   UNL     1      -1.905   1.008  25.457  0.00  0.00    +0.021 A 
ATOM      8  C   UNL     1      -1.793   0.586  24.758  0.00  0.00    +0.122 A 
ATOM      9  C   UNL     1      -1.615   0.984  24.058  0.00  0.00    +0.021 A 
ATOM     10  C   UNL     1      -1.550   1.807  24.057  0.00  0.00    +0.018 A 
BRANCH   5   4
ATOM      1  C   UNL     1      -0.824   4.233  24.978  0.00  0.00    +0.097 C 
ATOM      2  C   UNL     1      -0.889   3.410  24.978  0.00  0.00    +0.246 C 
ATOM      3  O   UNL     1      -0.245   2.946  25.202  0.00  0.00    -0.273 OA
ATOM      4  N   UNL     1      -1.598   3.053  24.755  0.00  0.00    -0.179 NA
ENDBRANCH   5   4
ENDBRANCH  11   8
ENDBRANCH  14  11
TORSDOF 4
ENDMDL
MODEL 4
REMARK VINA RESULT:     -13.9      1.101      2.303
REMARK  Name = 
REMARK  4 active torsions:
REMARK  status: ('A' for Active; 'I' for Inactive)
REMARK    1  A    between atoms: N_4  and  C_5
REMARK    2  A    between atoms: C_8  and  S_11
REMARK    3  A    between atoms: S_11  and  N_14
REMARK    4  A    between atoms: C_23  and  C_24
REMARK                            x       y       z     vdW  Elec       q    Type
REMARK                         _______ _______ _______ _____ _____    ______ ____
ROOT
ATOM     14  N   UNL     1      -3.062   3.002  24.768  0.00  0.00    -0.155 NA
ATOM     15  C   UNL     1      -3.293   3.804  24.780  0.00  0.00    +0.098 C 
ATOM     16  C   UNL     1      -2.453   4.214  25.100  0.00  0.00    +0.041 C 
ATOM     17  C   UNL     1      -1.847   4.698  25.351  0.00  0.00    +0.011 C 
ATOM     18  C   UNL     1      -1.953   4.012  25.241  0.00  0.00    +0.056 C 
ATOM     19  C   UNL     1      -2.772   3.631  24.932  0.00  0.00    +0.102 C 
ATOM     20  C   UNL     1      -1.525   3.200  25.291  0.00  0.00    +0.041 A 
ATOM     21  C   UNL     1      -0.796   2.872  25.493  0.00  0.00    +0.013 A 
ATOM     22  C   UNL     1      -0.683   2.056  25.441  0.00  0.00    +0.009 A 
ATOM     23  C   UNL     1      -1.299   1.570  25.186  0.00  0.00    +0.091 A 
ATOM     29  C   UNL     1      -2.028   1.898  24.984  0.00  0.00    +0.264 A 
ATOM     30  O   UNL     1      -2.644   1.412  24.729  0.00  0.00    -0.267 OA
ATOM     31  N   UNL     1      -2.141   2.714  25.037  0.00  0.00    -0.299 N 
ATOM     32  C   UNL     1      -2.015   3.361  25.149  0.00  0.00    +0.110 C 
ENDROOT
BRANCH  23  24
ATOM     24  C   UNL     1      -1.185   0.755  25.133  0.00  0.00    +0.150 A 
ATOM     25  C   UNL     1      -1.262   0.213  25.752  0.00  0.00    +0.041 A 
ATOM     26  C   UNL     1      -1.099  -0.538  25.455  0.00  0.00    +0.044 A 
ATOM     27  C   UNL     1      -0.920  -0.462  24.653  0.00  0.00    +0.180 A 
ATOM     28  O   UNL     1      -0.973   0.337  24.455  0.00  0.00    -0.450 OA
ENDBRANCH  23  24
BRANCH  14  11
ATOM     11  S   UNL     1      -3.119   2.185  24.659  0.00  0.00    +0.063 S 
ATOM     12  O   UNL     1      -3.380   2.100  25.438  0.00  0.00    -0.153 OA
ATOM     13  O   UNL     1      -2.858   2.271  23.881  0.00  0.00    -0.153 OA
BRANCH  11   8
ATOM      5  C   UNL     1      -3.292  -0.262  24.333  0.00  0.00    +0.073 A 
ATOM      6  C   UNL     1      -3.054   0.221  23.709  0.00  0.00    +0.018 A 
ATOM      7  C   UNL     1      -2.996   1.038  23.817  0.00  0.00    +0.021 A 
ATOM      8  C   UNL     1      -3.177   1.369  24.551  0.00  0.00    +0.122 A 
ATOM      9  C   UNL     1      -3.415   0.886  25.175  0.00  0.00    +0.021 A 
ATOM     10  C   UNL     1      -3.473   0.070  25.066  0.00  0.00    +0.018 A 
BRANCH   5   4
ATOM      1  C   UNL     1      -4.137  -2.236  23.943  0.00  0.00    +0.097 C 
ATOM      2  C   UNL     1      -4.080  -1.420  24.052  0.00  0.00    +0.246 C 
ATOM      3  O   UNL     1      -4.752  -0.948  23.988  0.00  0.00    -0.273 OA
ATOM      4  N   UNL     1      -3.350  -1.078  24.225  0.00  0.00    -0.179 NA
ENDBRANCH   5   4
ENDBRANCH  11   8
ENDBRANCH  14  11
TORSDOF 4
ENDMDL
MODEL 5
REMARK VINA RESULT:     -13.8      1.476      2.726
REMARK  Name = 
REMARK  4 active torsions:
REMARK  status: ('A' for Active; 'I' for Inactive)
REMARK    1  A    between atoms: N_4  and  C_5
REMARK    2  A    between atoms: C_8  and  S_11
REMARK    3  A    between atoms: S_11  and  N_14
REMARK    4  A    between atoms: C_23  and  C_24
REMARK                            x       y       z     vdW  Elec       q    Type
REMARK                         _______ _______ _______ _____ _____    ______ ____
ROOT
ATOM     14  N   UNL     1      -3.610   3.094  24.943  0.00  0.00    -0.155 NA
ATOM     15  C   UNL     1      -3.866   3.881  25.056  0.00  0.00    +0.098 C 
ATOM     16  C   UNL     1      -4.810   3.716  25.296  0.00  0.00    +0.041 C 
ATOM     17  C   UNL     1      -5.596   3.749  25.506  0.00  0.00    +0.011 C 
ATOM     18  C   UNL     1      -5.121   3.256  25.352  0.00  0.00    +0.056 C 
ATOM     19  C   UNL     1      -4.211   3.432  25.121  0.00  0.00    +0.102 C 
ATOM     20  C   UNL     1      -5.026   2.345  25.274  0.00  0.00    +0.041 A 
ATOM     21  C   UNL     1      -5.459   1.647  25.348  0.00  0.00    +0.013 A 
ATOM     22  C   UNL     1      -5.096   0.920  25.210  0.00  0.00    +0.009 A 
ATOM     23  C   UNL     1      -4.299   0.890  24.997  0.00  0.00    +0.091 A 
ATOM     29  C   UNL     1      -3.866   1.588  24.923  0.00  0.00    +0.264 A 
ATOM     30  O   UNL     1      -3.069   1.558  24.710  0.00  0.00    -0.267 OA
ATOM     31  N   UNL     1      -4.229   2.315  25.061  0.00  0.00    -0.299 N 
ATOM     32  C   UNL     1      -4.701   2.765  25.212  0.00  0.00    +0.110 C 
ENDROOT
BRANCH  23  24
ATOM     24  C   UNL     1      -3.937   0.162  24.859  0.00  0.00    +0.150 A 
ATOM     25  C   UNL     1      -3.958  -0.264  24.153  0.00  0.00    +0.041 A 
ATOM     26  C   UNL     1      -3.524  -0.957  24.259  0.00  0.00    +0.044 A 
ATOM     27  C   UNL     1      -3.234  -0.959  25.032  0.00  0.00    +0.180 A 
ATOM     28  O   UNL     1      -3.489  -0.268  25.402  0.00  0.00    -0.450 OA
ENDBRANCH  23  24
BRANCH  14  11
ATOM     11  S   UNL     1      -3.101   2.467  24.772  0.00  0.00    +0.063 S 
ATOM     12  O   UNL     1      -3.323   2.504  23.977  0.00  0.00    -0.153 OA
ATOM     13  O   UNL     1      -2.880   2.430  25.566  0.00  0.00    -0.153 OA
BRANCH  11   8
ATOM      5  C   UNL     1      -1.576   0.587  24.259  0.00  0.00    +0.073 A 
ATOM      6  C   UNL     1      -1.646   0.861  25.034  0.00  0.00    +0.018 A 
ATOM      7  C   UNL     1      -2.155   1.488  25.205  0.00  0.00    +0.021 A 
ATOM      8  C   UNL     1      -2.593   1.840  24.601  0.00  0.00    +0.122 A 
ATOM      9  C   UNL     1      -2.523   1.565  23.826  0.00  0.00    +0.021 A 
ATOM     10  C   UNL     1      -2.014   0.938  23.655  0.00  0.00    +0.018 A 
BRANCH   5   4
ATOM      1  C   UNL     1       0.232  -0.519  23.734  0.00  0.00    +0.097 C 
ATOM      2  C   UNL     1      -0.277   0.108  23.905  0.00  0.00    +0.246 C 
ATOM      3  O   UNL     1       0.006   0.883  23.893  0.00  0.00    -0.273 OA
ATOM      4  N   UNL     1      -1.067  -0.040  24.088  0.00  0.00    -0.179 NA
ENDBRANCH   5   4
ENDBRANCH  11   8
ENDBRANCH  14  11
TORSDOF 4
ENDMDL
