REMARK  Name = 
REMARK  2 active torsions:
REMARK  status: ('A' for Active; 'I' for Inactive)
REMARK    1  A    between atoms: N_6  and  C_7
REMARK    2  A    between atoms: C_7  and  C_8
REMARK                            x       y       z     vdW  Elec       q    Type
REMARK                         _______ _______ _______ _____ _____    ______ ____
ROOT
ATOM      1  C   UNL     1      -0.171  -0.698   0.000  0.00  0.00    +0.117 C 
ATOM      2  N   UNL     1       0.654  -0.698   0.000  0.00  0.00    -0.261 N 
ATOM      3  C   UNL     1       1.139  -0.030   0.000  0.00  0.00    +0.116 C 
ATOM      4  C   UNL     1       1.923  -0.285   0.000  0.00  0.00    +0.113 C 
ATOM      5  C   UNL     1       2.638   0.127   0.000  0.00  0.00    +0.094 C 
ATOM      6  N   UNL     1       3.352  -0.285   0.000  0.00  0.00    -0.270 NA
ATOM     11  C   UNL     1       3.352  -1.110   0.000  0.00  0.00    +0.094 C 
ATOM     12  C   UNL     1       2.638  -1.523   0.000  0.00  0.00    +0.112 C 
ATOM     13  N   UNL     1       1.923  -1.110   0.000  0.00  0.00    -0.261 N 
ATOM     14  C   UNL     1       1.139  -1.365   0.000  0.00  0.00    +0.307 C 
ATOM     15  O   UNL     1       0.884  -2.150   0.000  0.00  0.00    -0.252 OA
ENDROOT
BRANCH   6   7
ATOM      7  C   UNL     1       4.067   0.127   0.000  0.00  0.00    +0.072 C 
BRANCH   7   8
ATOM      8  C   UNL     1       4.781  -0.285   0.000  0.00  0.00    +0.016 C 
ATOM      9  C   UNL     1       5.606  -0.285   0.000  0.00  0.00    +0.001 C 
ATOM     10  C   UNL     1       5.194  -1.000   0.000  0.00  0.00    +0.001 C 
ENDBRANCH   7   8
ENDBRANCH   6   7
TORSDOF 2
