REMARK  Name = 
REMARK  7 active torsions:
REMARK  status: ('A' for Active; 'I' for Inactive)
REMARK    1  A    between atoms: C_2  and  C_4
REMARK    2  A    between atoms: C_4  and  C_5
REMARK    3  A    between atoms: C_7  and  C_8
REMARK    4  A    between atoms: C_8  and  C_9
REMARK    5  A    between atoms: C_9  and  N_13
REMARK    6  A    between atoms: N_13  and  C_14
REMARK    7  A    between atoms: C_14  and  C_15
REMARK                            x       y       z     vdW  Elec       q    Type
REMARK                         _______ _______ _______ _____ _____    ______ ____
ROOT
ATOM      9  C   UNL     1       1.841  -2.304   0.000  0.00  0.00    +0.120 C 
ATOM     10  C   UNL     1       2.425  -2.888   0.000  0.00  0.00    +0.161 C 
ATOM     11  O   UNL     1       1.841  -3.471   0.000  0.00  0.00    -0.351 OA
ATOM     12  C   UNL     1       1.258  -2.888   0.000  0.00  0.00    +0.161 C 
ENDROOT
BRANCH   9   8
ATOM      8  C   UNL     1       1.258  -1.721   0.000  0.00  0.00    +0.070 C 
BRANCH   8   7
ATOM      5  C   UNL     1      -0.872  -1.864   0.000  0.00  0.00    +0.154 A 
ATOM      6  C   UNL     1      -0.180  -1.415   0.000  0.00  0.00    +0.054 A 
ATOM      7  C   UNL     1       0.461  -1.934   0.000  0.00  0.00    +0.102 A 
ATOM     21  N   UNL     1       0.166  -2.704   0.000  0.00  0.00    -0.082 NA
ATOM     22  O   UNL     1      -0.658  -2.661   0.000  0.00  0.00    -0.358 OA
BRANCH   5   4
ATOM      4  C   UNL     1      -1.642  -1.569   0.000  0.00  0.00    +0.067 C 
BRANCH   4   2
ATOM      1  C   UNL     1      -3.053  -1.792   0.000  0.00  0.00    +0.000 C 
ATOM      2  C   UNL     1      -2.283  -2.088   0.000  0.00  0.00    +0.008 C 
ATOM      3  C   UNL     1      -2.154  -2.903   0.000  0.00  0.00    +0.000 C 
ENDBRANCH   4   2
ENDBRANCH   5   4
ENDBRANCH   8   7
ENDBRANCH   9   8
BRANCH   9  13
ATOM     13  N   UNL     1       2.425  -1.721   0.000  0.00  0.00    -0.211 NA
BRANCH  13  14
ATOM     14  C   UNL     1       2.211  -0.924   0.000  0.00  0.00    +0.117 C 
BRANCH  14  15
ATOM     15  C   UNL     1       2.795  -0.341   0.000  0.00  0.00    +0.014 A 
ATOM     16  C   UNL     1       2.581   0.456   0.000  0.00  0.00    +0.000 A 
ATOM     17  C   UNL     1       3.164   1.040   0.000  0.00  0.00    +0.020 A 
ATOM     18  C   UNL     1       3.961   0.826   0.000  0.00  0.00    +0.099 A 
ATOM     19  N   UNL     1       4.175   0.029   0.000  0.00  0.00    -0.243 NA
ATOM     20  C   UNL     1       3.591  -0.554   0.000  0.00  0.00    +0.096 A 
ENDBRANCH  14  15
ENDBRANCH  13  14
ENDBRANCH   9  13
TORSDOF 7
