REMARK  Name = 
REMARK  7 active torsions:
REMARK  status: ('A' for Active; 'I' for Inactive)
REMARK    1  A    between atoms: C_5  and  S_8
REMARK    2  A    between atoms: S_8  and  N_11
REMARK    3  A    between atoms: C_16  and  C_17
REMARK    4  A    between atoms: N_19  and  C_20
REMARK    5  A    between atoms: C_27  and  C_29
REMARK    6  A    between atoms: C_29  and  S_30
REMARK    7  A    between atoms: S_30  and  C_33
REMARK                            x       y       z     vdW  Elec       q    Type
REMARK                         _______ _______ _______ _____ _____    ______ ____
ROOT
ATOM     11  N   UNL     1       1.429  -9.900   0.000  0.00  0.00    -0.145 NA
ATOM     12  C   UNL     1       2.143 -10.312   0.000  0.00  0.00    +0.118 C 
ATOM     13  C   UNL     1       2.143 -11.137   0.000  0.00  0.00    +0.113 C 
ATOM     14  N   UNL     1       1.429 -11.550   0.000  0.00  0.00    -0.275 N 
ATOM     15  C   UNL     1       0.715 -11.137   0.000  0.00  0.00    +0.120 C 
ATOM     16  C   UNL     1       0.715 -10.312   0.000  0.00  0.00    +0.177 C 
ATOM     27  C   UNL     1       1.429 -12.375   0.000  0.00  0.00    +0.250 C 
ATOM     28  O   UNL     1       0.715 -12.787   0.000  0.00  0.00    -0.273 OA
ENDROOT
BRANCH  11   8
ATOM      8  S   UNL     1       1.429  -9.075   0.000  0.00  0.00    +0.064 S 
ATOM      9  O   UNL     1       0.604  -9.075   0.000  0.00  0.00    -0.153 OA
ATOM     10  O   UNL     1       2.254  -9.075   0.000  0.00  0.00    -0.153 OA
BRANCH   8   5
ATOM      1  F   UNL     1       1.429  -5.775   0.000  0.00  0.00    -0.204 F 
ATOM      2  C   UNL     1       1.429  -6.600   0.000  0.00  0.00    +0.140 A 
ATOM      3  C   UNL     1       2.143  -7.013   0.000  0.00  0.00    +0.031 A 
ATOM      4  C   UNL     1       2.143  -7.838   0.000  0.00  0.00    +0.022 A 
ATOM      5  C   UNL     1       1.429  -8.250   0.000  0.00  0.00    +0.122 A 
ATOM      6  C   UNL     1       0.715  -7.838   0.000  0.00  0.00    +0.022 A 
ATOM      7  C   UNL     1       0.715  -7.013   0.000  0.00  0.00    +0.031 A 
ENDBRANCH   8   5
ENDBRANCH  11   8
BRANCH  16  17
ATOM     17  C   UNL     1       0.000  -9.900   0.000  0.00  0.00    +0.260 C 
ATOM     18  O   UNL     1       0.000  -9.075   0.000  0.00  0.00    -0.272 OA
ATOM     19  N   UNL     1      -0.715 -10.312   0.000  0.00  0.00    -0.197 NA
BRANCH  19  20
ATOM     20  C   UNL     1      -1.429  -9.900   0.000  0.00  0.00    +0.173 C 
ATOM     21  C   UNL     1      -2.143 -10.312   0.000  0.00  0.00    +0.033 C 
ATOM     22  C   UNL     1      -2.858  -9.900   0.000  0.00  0.00    +0.026 C 
ATOM     23  C   UNL     1      -2.858  -9.075   0.000  0.00  0.00    +0.115 C 
ATOM     24  N   UNL     1      -2.143  -8.662   0.000  0.00  0.00    -0.204 NA
ATOM     25  C   UNL     1      -1.429  -9.075   0.000  0.00  0.00    +0.261 C 
ATOM     26  O   UNL     1      -0.715  -8.662   0.000  0.00  0.00    -0.271 OA
ENDBRANCH  19  20
ENDBRANCH  16  17
BRANCH  27  29
ATOM     29  C   UNL     1       2.143 -12.787   0.000  0.00  0.00    +0.240 C 
BRANCH  29  30
ATOM     30  S   UNL     1       2.143 -13.613   0.000  0.00  0.00    +0.018 S 
ATOM     31  O   UNL     1       1.318 -13.613   0.000  0.00  0.00    -0.168 OA
ATOM     32  O   UNL     1       2.968 -13.613   0.000  0.00  0.00    -0.168 OA
BRANCH  30  33
ATOM     33  C   UNL     1       2.143 -14.438   0.000  0.00  0.00    +0.106 A 
ATOM     34  C   UNL     1       2.858 -14.850   0.000  0.00  0.00    +0.018 A 
ATOM     35  C   UNL     1       2.858 -15.675   0.000  0.00  0.00    +0.001 A 
ATOM     36  C   UNL     1       2.143 -16.087   0.000  0.00  0.00    +0.000 A 
ATOM     37  C   UNL     1       1.429 -15.675   0.000  0.00  0.00    +0.001 A 
ATOM     38  C   UNL     1       1.429 -14.850   0.000  0.00  0.00    +0.018 A 
ENDBRANCH  30  33
ENDBRANCH  29  30
ENDBRANCH  27  29
TORSDOF 7
