MODEL 1
REMARK VINA RESULT:      -9.8      0.000      0.000
REMARK  Name = 
REMARK  8 active torsions:
REMARK  status: ('A' for Active; 'I' for Inactive)
REMARK    1  A    between atoms: C_2  and  O_3
REMARK    2  A    between atoms: O_3  and  C_4
REMARK    3  A    between atoms: C_4  and  C_5
REMARK    4  A    between atoms: C_5  and  N_6
REMARK    5  A    between atoms: C_7  and  C_13
REMARK    6  A    between atoms: C_13  and  C_15
REMARK    7  A    between atoms: C_18  and  N_19
REMARK    8  A    between atoms: C_20  and  C_22
REMARK                            x       y       z     vdW  Elec       q    Type
REMARK                         _______ _______ _______ _____ _____    ______ ____
ROOT
ATOM     13  C   UNL     1      -3.970   2.677  24.147  0.00  0.00    +0.195 C 
ATOM     14  O   UNL     1      -3.804   3.144  23.488  0.00  0.00    -0.216 OA
ENDROOT
BRANCH  13   7
ATOM      6  N   UNL     1      -3.714   3.475  25.304  0.00  0.00    -0.271 N 
ATOM      7  C   UNL     1      -4.235   3.028  24.845  0.00  0.00    +0.139 C 
ATOM      8  C   UNL     1      -5.018   2.933  25.083  0.00  0.00    +0.165 C 
ATOM      9  O   UNL     1      -5.283   3.285  25.781  0.00  0.00    -0.343 OA
ATOM     10  C   UNL     1      -4.764   3.731  26.241  0.00  0.00    +0.227 C 
ATOM     11  C   UNL     1      -3.979   3.826  26.002  0.00  0.00    +0.256 C 
ATOM     12  O   UNL     1      -3.460   4.273  26.462  0.00  0.00    -0.272 OA
BRANCH   6   5
ATOM      5  C   UNL     1      -2.931   3.570  25.066  0.00  0.00    +0.126 C 
BRANCH   5   4
ATOM      4  C   UNL     1      -2.498   4.223  25.323  0.00  0.00    +0.164 C 
BRANCH   4   3
ATOM      3  O   UNL     1      -1.687   4.265  25.175  0.00  0.00    -0.352 OA
BRANCH   3   2
ATOM      1  C   UNL     1      -0.588   5.047  24.703  0.00  0.00    +0.035 C 
ATOM      2  C   UNL     1      -1.323   4.999  25.072  0.00  0.00    +0.142 C 
ENDBRANCH   3   2
ENDBRANCH   4   3
ENDBRANCH   5   4
ENDBRANCH   6   5
ENDBRANCH  13   7
BRANCH  13  15
ATOM     15  C   UNL     1      -3.872   1.859  24.109  0.00  0.00    +0.010 A 
ATOM     16  C   UNL     1      -3.169   1.541  23.814  0.00  0.00    -0.000 A 
ATOM     17  C   UNL     1      -3.072   0.723  23.776  0.00  0.00    +0.016 A 
ATOM     18  C   UNL     1      -3.675   0.222  24.032  0.00  0.00    +0.074 A 
ATOM     27  C   UNL     1      -4.378   0.541  24.327  0.00  0.00    +0.016 A 
ATOM     28  C   UNL     1      -4.476   1.358  24.365  0.00  0.00    -0.000 A 
BRANCH  18  19
ATOM     19  N   UNL     1      -3.577  -0.596  23.994  0.00  0.00    -0.175 NA
ATOM     20  C   UNL     1      -3.237  -1.000  24.628  0.00  0.00    +0.275 C 
ATOM     21  O   UNL     1      -2.995  -0.586  25.300  0.00  0.00    -0.267 OA
BRANCH  20  22
ATOM     22  C   UNL     1      -3.139  -1.818  24.591  0.00  0.00    +0.085 A 
ATOM     23  C   UNL     1      -3.743  -2.379  24.576  0.00  0.00    +0.012 A 
ATOM     24  C   UNL     1      -3.396  -3.127  24.539  0.00  0.00    +0.008 A 
ATOM     25  C   UNL     1      -2.577  -3.028  24.530  0.00  0.00    +0.036 A 
ATOM     26  S   UNL     1      -2.418  -2.219  24.563  0.00  0.00    -0.082 S 
ENDBRANCH  20  22
ENDBRANCH  18  19
ENDBRANCH  13  15
TORSDOF 8
ENDMDL
MODEL 2
REMARK VINA RESULT:      -8.7      0.916      2.207
REMARK  Name = 
REMARK  8 active torsions:
REMARK  status: ('A' for Active; 'I' for Inactive)
REMARK    1  A    between atoms: C_2  and  O_3
REMARK    2  A    between atoms: O_3  and  C_4
REMARK    3  A    between atoms: C_4  and  C_5
REMARK    4  A    between atoms: C_5  and  N_6
REMARK    5  A    between atoms: C_7  and  C_13
REMARK    6  A    between atoms: C_13  and  C_15
REMARK    7  A    between atoms: C_18  and  N_19
REMARK    8  A    between atoms: C_20  and  C_22
REMARK                            x       y       z     vdW  Elec       q    Type
REMARK                         _______ _______ _______ _____ _____    ______ ____
ROOT
ATOM     13  C   UNL     1      -2.748   2.709  24.047  0.00  0.00    +0.195 C 
ATOM     14  O   UNL     1      -3.016   3.132  23.391  0.00  0.00    -0.216 OA
ENDROOT
BRANCH  13   7
ATOM      6  N   UNL     1      -2.920   3.568  25.175  0.00  0.00    -0.271 N 
ATOM      7  C   UNL     1      -2.431   3.109  24.695  0.00  0.00    +0.139 C 
ATOM      8  C   UNL     1      -1.626   3.050  24.862  0.00  0.00    +0.165 C 
ATOM      9  O   UNL     1      -1.309   3.451  25.509  0.00  0.00    -0.343 OA
ATOM     10  C   UNL     1      -1.797   3.910  25.990  0.00  0.00    +0.227 C 
ATOM     11  C   UNL     1      -2.603   3.969  25.823  0.00  0.00    +0.256 C 
ATOM     12  O   UNL     1      -3.091   4.428  26.304  0.00  0.00    -0.272 OA
BRANCH   6   5
ATOM      5  C   UNL     1      -3.725   3.627  25.008  0.00  0.00    +0.126 C 
BRANCH   5   4
ATOM      4  C   UNL     1      -4.278   3.583  25.619  0.00  0.00    +0.164 C 
BRANCH   4   3
ATOM      3  O   UNL     1      -5.082   3.523  25.445  0.00  0.00    -0.352 OA
BRANCH   3   2
ATOM      1  C   UNL     1      -6.096   2.543  25.676  0.00  0.00    +0.035 C 
ATOM      2  C   UNL     1      -5.589   3.127  25.962  0.00  0.00    +0.142 C 
ENDBRANCH   3   2
ENDBRANCH   4   3
ENDBRANCH   5   4
ENDBRANCH   6   5
ENDBRANCH  13   7
BRANCH  13  15
ATOM     15  C   UNL     1      -2.798   1.886  24.055  0.00  0.00    +0.010 A 
ATOM     16  C   UNL     1      -3.349   1.501  23.575  0.00  0.00    -0.000 A 
ATOM     17  C   UNL     1      -3.398   0.677  23.583  0.00  0.00    +0.016 A 
ATOM     18  C   UNL     1      -2.898   0.238  24.071  0.00  0.00    +0.074 A 
ATOM     27  C   UNL     1      -2.348   0.624  24.551  0.00  0.00    +0.016 A 
ATOM     28  C   UNL     1      -2.298   1.446  24.543  0.00  0.00    -0.000 A 
BRANCH  18  19
ATOM     19  N   UNL     1      -2.948  -0.585  24.080  0.00  0.00    -0.175 NA
ATOM     20  C   UNL     1      -3.516  -0.959  24.546  0.00  0.00    +0.275 C 
ATOM     21  O   UNL     1      -4.036  -0.509  25.004  0.00  0.00    -0.267 OA
BRANCH  20  22
ATOM     22  C   UNL     1      -3.567  -1.782  24.556  0.00  0.00    +0.085 A 
ATOM     23  C   UNL     1      -3.965  -2.250  24.006  0.00  0.00    +0.012 A 
ATOM     24  C   UNL     1      -3.872  -3.039  24.227  0.00  0.00    +0.008 A 
ATOM     25  C   UNL     1      -3.415  -3.059  24.915  0.00  0.00    +0.036 A 
ATOM     26  S   UNL     1      -3.226  -2.282  25.118  0.00  0.00    -0.082 S 
ENDBRANCH  20  22
ENDBRANCH  18  19
ENDBRANCH  13  15
TORSDOF 8
ENDMDL
MODEL 3
REMARK VINA RESULT:      -8.2      2.409      5.963
REMARK  Name = 
REMARK  8 active torsions:
REMARK  status: ('A' for Active; 'I' for Inactive)
REMARK    1  A    between atoms: C_2  and  O_3
REMARK    2  A    between atoms: O_3  and  C_4
REMARK    3  A    between atoms: C_4  and  C_5
REMARK    4  A    between atoms: C_5  and  N_6
REMARK    5  A    between atoms: C_7  and  C_13
REMARK    6  A    between atoms: C_13  and  C_15
REMARK    7  A    between atoms: C_18  and  N_19
REMARK    8  A    between atoms: C_20  and  C_22
REMARK                            x       y       z     vdW  Elec       q    Type
REMARK                         _______ _______ _______ _____ _____    ______ ____
ROOT
ATOM     13  C   UNL     1      -1.734  -0.347  25.615  0.00  0.00    +0.195 C 
ATOM     14  O   UNL     1      -2.271  -0.561  26.204  0.00  0.00    -0.216 OA
ENDROOT
BRANCH  13   7
ATOM      6  N   UNL     1      -1.714  -1.588  24.906  0.00  0.00    -0.271 N 
ATOM      7  C   UNL     1      -1.317  -0.930  25.207  0.00  0.00    +0.139 C 
ATOM      8  C   UNL     1      -0.503  -0.855  25.100  0.00  0.00    +0.165 C 
ATOM      9  O   UNL     1      -0.085  -1.437  24.691  0.00  0.00    -0.343 OA
ATOM     10  C   UNL     1      -0.481  -2.095  24.390  0.00  0.00    +0.227 C 
ATOM     11  C   UNL     1      -1.296  -2.170  24.498  0.00  0.00    +0.256 C 
ATOM     12  O   UNL     1      -1.692  -2.828  24.197  0.00  0.00    -0.272 OA
BRANCH   6   5
ATOM      5  C   UNL     1      -2.528  -1.663  25.013  0.00  0.00    +0.126 C 
BRANCH   5   4
ATOM      4  C   UNL     1      -2.996  -1.980  24.413  0.00  0.00    +0.164 C 
BRANCH   4   3
ATOM      3  O   UNL     1      -3.808  -2.072  24.526  0.00  0.00    -0.352 OA
BRANCH   3   2
ATOM      1  C   UNL     1      -4.795  -2.482  23.578  0.00  0.00    +0.035 C 
ATOM      2  C   UNL     1      -4.334  -1.889  23.917  0.00  0.00    +0.142 C 
ENDBRANCH   3   2
ENDBRANCH   4   3
ENDBRANCH   5   4
ENDBRANCH   6   5
ENDBRANCH  13   7
BRANCH  13  15
ATOM     15  C   UNL     1      -1.615   0.448  25.434  0.00  0.00    +0.010 A 
ATOM     16  C   UNL     1      -2.143   0.842  24.936  0.00  0.00    -0.000 A 
ATOM     17  C   UNL     1      -2.023   1.638  24.755  0.00  0.00    +0.016 A 
ATOM     18  C   UNL     1      -1.377   2.041  25.072  0.00  0.00    +0.074 A 
ATOM     27  C   UNL     1      -0.849   1.647  25.571  0.00  0.00    +0.016 A 
ATOM     28  C   UNL     1      -0.969   0.852  25.751  0.00  0.00    -0.000 A 
BRANCH  18  19
ATOM     19  N   UNL     1      -1.257   2.837  24.892  0.00  0.00    -0.175 NA
ATOM     20  C   UNL     1      -1.551   3.422  25.394  0.00  0.00    +0.275 C 
ATOM     21  O   UNL     1      -1.965   3.211  26.076  0.00  0.00    -0.267 OA
BRANCH  20  22
ATOM     22  C   UNL     1      -1.432   4.218  25.214  0.00  0.00    +0.085 A 
ATOM     23  C   UNL     1      -0.749   4.545  24.888  0.00  0.00    +0.012 A 
ATOM     24  C   UNL     1      -0.870   5.357  24.802  0.00  0.00    +0.008 A 
ATOM     25  C   UNL     1      -1.630   5.531  25.076  0.00  0.00    +0.036 A 
ATOM     26  S   UNL     1      -1.977   4.828  25.330  0.00  0.00    -0.082 S 
ENDBRANCH  20  22
ENDBRANCH  18  19
ENDBRANCH  13  15
TORSDOF 8
ENDMDL
MODEL 4
REMARK VINA RESULT:      -8.1      2.998      5.139
REMARK  Name = 
REMARK  8 active torsions:
REMARK  status: ('A' for Active; 'I' for Inactive)
REMARK    1  A    between atoms: C_2  and  O_3
REMARK    2  A    between atoms: O_3  and  C_4
REMARK    3  A    between atoms: C_4  and  C_5
REMARK    4  A    between atoms: C_5  and  N_6
REMARK    5  A    between atoms: C_7  and  C_13
REMARK    6  A    between atoms: C_13  and  C_15
REMARK    7  A    between atoms: C_18  and  N_19
REMARK    8  A    between atoms: C_20  and  C_22
REMARK                            x       y       z     vdW  Elec       q    Type
REMARK                         _______ _______ _______ _____ _____    ______ ____
ROOT
ATOM     13  C   UNL     1      -0.563   1.224  24.631  0.00  0.00    +0.195 C 
ATOM     14  O   UNL     1       0.143   1.586  24.406  0.00  0.00    -0.216 OA
ENDROOT
BRANCH  13   7
ATOM      6  N   UNL     1      -0.232  -0.104  24.223  0.00  0.00    -0.271 N 
ATOM      7  C   UNL     1      -0.585   0.410  24.763  0.00  0.00    +0.139 C 
ATOM      8  C   UNL     1      -0.960   0.111  25.433  0.00  0.00    +0.165 C 
ATOM      9  O   UNL     1      -0.982  -0.703  25.566  0.00  0.00    -0.343 OA
ATOM     10  C   UNL     1      -0.629  -1.218  25.027  0.00  0.00    +0.227 C 
ATOM     11  C   UNL     1      -0.253  -0.919  24.355  0.00  0.00    +0.256 C 
ATOM     12  O   UNL     1       0.100  -1.434  23.817  0.00  0.00    -0.272 OA
BRANCH   6   5
ATOM      5  C   UNL     1       0.143   0.194  23.553  0.00  0.00    +0.126 C 
BRANCH   5   4
ATOM      4  C   UNL     1       0.832  -0.162  23.272  0.00  0.00    +0.164 C 
BRANCH   4   3
ATOM      3  O   UNL     1       1.281   0.210  22.687  0.00  0.00    -0.352 OA
BRANCH   3   2
ATOM      1  C   UNL     1       2.676   0.279  22.387  0.00  0.00    +0.035 C 
ATOM      2  C   UNL     1       1.970  -0.146  22.406  0.00  0.00    +0.142 C 
ENDBRANCH   3   2
ENDBRANCH   4   3
ENDBRANCH   5   4
ENDBRANCH   6   5
ENDBRANCH  13   7
BRANCH  13  15
ATOM     15  C   UNL     1      -1.247   1.675  24.723  0.00  0.00    +0.010 A 
ATOM     16  C   UNL     1      -1.364   2.111  25.415  0.00  0.00    -0.000 A 
ATOM     17  C   UNL     1      -2.049   2.562  25.508  0.00  0.00    +0.016 A 
ATOM     18  C   UNL     1      -2.616   2.578  24.910  0.00  0.00    +0.074 A 
ATOM     27  C   UNL     1      -2.500   2.142  24.218  0.00  0.00    +0.016 A 
ATOM     28  C   UNL     1      -1.816   1.691  24.126  0.00  0.00    -0.000 A 
BRANCH  18  19
ATOM     19  N   UNL     1      -3.301   3.029  25.002  0.00  0.00    -0.175 NA
ATOM     20  C   UNL     1      -3.998   2.672  25.261  0.00  0.00    +0.275 C 
ATOM     21  O   UNL     1      -4.010   1.863  25.428  0.00  0.00    -0.267 OA
BRANCH  20  22
ATOM     22  C   UNL     1      -4.683   3.121  25.354  0.00  0.00    +0.085 A 
ATOM     23  C   UNL     1      -4.729   3.945  25.339  0.00  0.00    +0.012 A 
ATOM     24  C   UNL     1      -5.517   4.159  25.454  0.00  0.00    +0.008 A 
ATOM     25  C   UNL     1      -5.959   3.467  25.539  0.00  0.00    +0.036 A 
ATOM     26  S   UNL     1      -5.444   2.826  25.478  0.00  0.00    -0.082 S 
ENDBRANCH  20  22
ENDBRANCH  18  19
ENDBRANCH  13  15
TORSDOF 8
ENDMDL
MODEL 5
REMARK VINA RESULT:      -7.9      2.044      5.391
REMARK  Name = 
REMARK  8 active torsions:
REMARK  status: ('A' for Active; 'I' for Inactive)
REMARK    1  A    between atoms: C_2  and  O_3
REMARK    2  A    between atoms: O_3  and  C_4
REMARK    3  A    between atoms: C_4  and  C_5
REMARK    4  A    between atoms: C_5  and  N_6
REMARK    5  A    between atoms: C_7  and  C_13
REMARK    6  A    between atoms: C_13  and  C_15
REMARK    7  A    between atoms: C_18  and  N_19
REMARK    8  A    between atoms: C_20  and  C_22
REMARK                            x       y       z     vdW  Elec       q    Type
REMARK                         _______ _______ _______ _____ _____    ______ ____
ROOT
ATOM     13  C   UNL     1      -3.296  -0.368  25.404  0.00  0.00    +0.195 C 
ATOM     14  O   UNL     1      -3.199  -0.688  26.158  0.00  0.00    -0.216 OA
ENDROOT
BRANCH  13   7
ATOM      6  N   UNL     1      -3.357  -1.574  24.640  0.00  0.00    -0.271 N 
ATOM      7  C   UNL     1      -3.645  -0.819  24.807  0.00  0.00    +0.139 C 
ATOM      8  C   UNL     1      -4.280  -0.514  24.378  0.00  0.00    +0.165 C 
ATOM      9  O   UNL     1      -4.628  -0.965  23.781  0.00  0.00    -0.343 OA
ATOM     10  C   UNL     1      -4.341  -1.720  23.613  0.00  0.00    +0.227 C 
ATOM     11  C   UNL     1      -3.705  -2.025  24.043  0.00  0.00    +0.256 C 
ATOM     12  O   UNL     1      -3.419  -2.779  23.875  0.00  0.00    -0.272 OA
BRANCH   6   5
ATOM      5  C   UNL     1      -2.722  -1.878  25.068  0.00  0.00    +0.126 C 
BRANCH   5   4
ATOM      4  C   UNL     1      -2.108  -2.265  24.677  0.00  0.00    +0.164 C 
BRANCH   4   3
ATOM      3  O   UNL     1      -1.454  -2.535  25.101  0.00  0.00    -0.352 OA
BRANCH   3   2
ATOM      1  C   UNL     1      -0.056  -2.260  25.219  0.00  0.00    +0.035 C 
ATOM      2  C   UNL     1      -0.701  -2.502  24.765  0.00  0.00    +0.142 C 
ENDBRANCH   3   2
ENDBRANCH   4   3
ENDBRANCH   5   4
ENDBRANCH   6   5
ENDBRANCH  13   7
BRANCH  13  15
ATOM     15  C   UNL     1      -3.046   0.401  25.246  0.00  0.00    +0.010 A 
ATOM     16  C   UNL     1      -3.579   1.029  25.306  0.00  0.00    -0.000 A 
ATOM     17  C   UNL     1      -3.328   1.799  25.148  0.00  0.00    +0.016 A 
ATOM     18  C   UNL     1      -2.545   1.942  24.931  0.00  0.00    +0.074 A 
ATOM     27  C   UNL     1      -2.012   1.314  24.871  0.00  0.00    +0.016 A 
ATOM     28  C   UNL     1      -2.263   0.545  25.029  0.00  0.00    -0.000 A 
BRANCH  18  19
ATOM     19  N   UNL     1      -2.294   2.712  24.773  0.00  0.00    -0.175 NA
ATOM     20  C   UNL     1      -1.836   3.117  25.327  0.00  0.00    +0.275 C 
ATOM     21  O   UNL     1      -1.628   2.752  26.038  0.00  0.00    -0.267 OA
BRANCH  20  22
ATOM     22  C   UNL     1      -1.584   3.887  25.170  0.00  0.00    +0.085 A 
ATOM     23  C   UNL     1      -2.013   4.576  25.313  0.00  0.00    +0.012 A 
ATOM     24  C   UNL     1      -1.553   5.218  25.074  0.00  0.00    +0.008 A 
ATOM     25  C   UNL     1      -0.838   4.924  24.783  0.00  0.00    +0.036 A 
ATOM     26  S   UNL     1      -0.857   4.102  24.843  0.00  0.00    -0.082 S 
ENDBRANCH  20  22
ENDBRANCH  18  19
ENDBRANCH  13  15
TORSDOF 8
ENDMDL
