MODEL 1
REMARK VINA RESULT:     -12.2      0.000      0.000
REMARK  Name = 
REMARK  3 active torsions:
REMARK  status: ('A' for Active; 'I' for Inactive)
REMARK    1  A    between atoms: N_5  and  C_8
REMARK    2  A    between atoms: C_14  and  N_15
REMARK    3  A    between atoms: N_18  and  C_19
REMARK                            x       y       z     vdW  Elec       q    Type
REMARK                         _______ _______ _______ _____ _____    ______ ____
ROOT
ATOM      8  C   UNL     1      -3.465   2.414  24.791  0.00  0.00    +0.147 C 
ATOM      9  C   UNL     1      -3.605   3.140  24.162  0.00  0.00    +0.253 C 
ATOM     10  O   UNL     1      -3.073   3.834  24.042  0.00  0.00    -0.327 OA
ATOM     11  C   UNL     1      -3.305   3.209  24.329  0.00  0.00    +0.176 C 
ATOM     12  C   UNL     1      -3.862   2.666  24.320  0.00  0.00    +0.170 C 
ATOM     13  O   UNL     1      -4.317   2.896  23.823  0.00  0.00    -0.327 OA
ATOM     14  C   UNL     1      -3.741   1.965  24.918  0.00  0.00    +0.158 C 
ATOM     26  C   UNL     1      -3.026   2.212  25.257  0.00  0.00    +0.194 C 
ATOM     27  O   UNL     1      -2.359   2.210  25.742  0.00  0.00    -0.220 OA
ENDROOT
BRANCH   8   5
ATOM      1  C   UNL     1      -0.986   4.580  25.011  0.00  0.00    +0.090 C 
ATOM      2  N   UNL     1      -1.606   4.039  24.957  0.00  0.00    -0.269 NA
ATOM      3  C   UNL     1      -1.558   3.411  24.425  0.00  0.00    +0.090 C 
ATOM      4  C   UNL     1      -2.178   2.869  24.370  0.00  0.00    +0.090 C 
ATOM      5  N   UNL     1      -2.846   2.956  24.846  0.00  0.00    -0.265 NA
ATOM      6  C   UNL     1      -2.893   3.585  25.378  0.00  0.00    +0.090 C 
ATOM      7  C   UNL     1      -2.273   4.127  25.434  0.00  0.00    +0.090 C 
ENDBRANCH   8   5
BRANCH  14  15
ATOM     15  N   UNL     1      -4.205   1.299  25.067  0.00  0.00    -0.183 NA
ATOM     16  C   UNL     1      -3.930   0.549  24.858  0.00  0.00    +0.344 C 
ATOM     17  O   UNL     1      -3.191   0.466  24.501  0.00  0.00    -0.249 OA
ATOM     18  N   UNL     1      -4.394  -0.116  25.007  0.00  0.00    -0.161 NA
BRANCH  18  19
ATOM     19  C   UNL     1      -4.119  -0.865  24.799  0.00  0.00    +0.075 A 
ATOM     20  C   UNL     1      -4.301  -1.181  24.059  0.00  0.00    +0.019 A 
ATOM     21  C   UNL     1      -4.025  -1.931  23.850  0.00  0.00    +0.031 A 
ATOM     22  C   UNL     1      -3.568  -2.364  24.383  0.00  0.00    +0.140 A 
ATOM     23  F   UNL     1      -3.294  -3.113  24.175  0.00  0.00    -0.204 F 
ATOM     24  C   UNL     1      -3.386  -2.049  25.124  0.00  0.00    +0.031 A 
ATOM     25  C   UNL     1      -3.662  -1.300  25.331  0.00  0.00    +0.019 A 
ENDBRANCH  18  19
ENDBRANCH  14  15
TORSDOF 3
ENDMDL
MODEL 2
REMARK VINA RESULT:     -11.2      1.935      4.732
REMARK  Name = 
REMARK  3 active torsions:
REMARK  status: ('A' for Active; 'I' for Inactive)
REMARK    1  A    between atoms: N_5  and  C_8
REMARK    2  A    between atoms: C_14  and  N_15
REMARK    3  A    between atoms: N_18  and  C_19
REMARK                            x       y       z     vdW  Elec       q    Type
REMARK                         _______ _______ _______ _____ _____    ______ ____
ROOT
ATOM      8  C   UNL     1      -3.778   0.575  24.567  0.00  0.00    +0.147 C 
ATOM      9  C   UNL     1      -4.449   0.220  25.173  0.00  0.00    +0.253 C 
ATOM     10  O   UNL     1      -4.529  -0.622  25.425  0.00  0.00    -0.327 OA
ATOM     11  C   UNL     1      -4.248  -0.051  25.076  0.00  0.00    +0.176 C 
ATOM     12  C   UNL     1      -4.304   0.715  24.949  0.00  0.00    +0.170 C 
ATOM     13  O   UNL     1      -4.863   0.913  25.343  0.00  0.00    -0.327 OA
ATOM     14  C   UNL     1      -3.668   1.067  24.370  0.00  0.00    +0.158 C 
ATOM     26  C   UNL     1      -3.254   0.370  24.201  0.00  0.00    +0.194 C 
ATOM     27  O   UNL     1      -2.690  -0.134  23.871  0.00  0.00    -0.220 OA
ENDROOT
BRANCH   8   5
ATOM      1  C   UNL     1      -3.338  -2.674  24.950  0.00  0.00    +0.090 C 
ATOM      2  N   UNL     1      -3.448  -1.862  24.854  0.00  0.00    -0.269 NA
ATOM      3  C   UNL     1      -3.096  -1.333  25.380  0.00  0.00    +0.090 C 
ATOM      4  C   UNL     1      -3.206  -0.521  25.284  0.00  0.00    +0.090 C 
ATOM      5  N   UNL     1      -3.668  -0.237  24.662  0.00  0.00    -0.265 NA
ATOM      6  C   UNL     1      -4.020  -0.767  24.136  0.00  0.00    +0.090 C 
ATOM      7  C   UNL     1      -3.910  -1.579  24.232  0.00  0.00    +0.090 C 
ENDBRANCH   8   5
BRANCH  14  15
ATOM     15  N   UNL     1      -3.552   1.841  24.105  0.00  0.00    -0.183 NA
ATOM     16  C   UNL     1      -2.948   2.301  24.428  0.00  0.00    +0.344 C 
ATOM     17  O   UNL     1      -2.460   1.988  25.015  0.00  0.00    -0.249 OA
ATOM     18  N   UNL     1      -2.831   3.073  24.163  0.00  0.00    -0.161 NA
BRANCH  18  19
ATOM     19  C   UNL     1      -2.228   3.533  24.485  0.00  0.00    +0.075 A 
ATOM     20  C   UNL     1      -1.448   3.420  24.242  0.00  0.00    +0.019 A 
ATOM     21  C   UNL     1      -0.843   3.881  24.564  0.00  0.00    +0.031 A 
ATOM     22  C   UNL     1      -1.020   4.454  25.130  0.00  0.00    +0.140 A 
ATOM     23  F   UNL     1      -0.416   4.914  25.453  0.00  0.00    -0.204 F 
ATOM     24  C   UNL     1      -1.800   4.568  25.374  0.00  0.00    +0.031 A 
ATOM     25  C   UNL     1      -2.404   4.107  25.052  0.00  0.00    +0.019 A 
ENDBRANCH  18  19
ENDBRANCH  14  15
TORSDOF 3
ENDMDL
MODEL 3
REMARK VINA RESULT:     -11.0      2.578      5.179
REMARK  Name = 
REMARK  3 active torsions:
REMARK  status: ('A' for Active; 'I' for Inactive)
REMARK    1  A    between atoms: N_5  and  C_8
REMARK    2  A    between atoms: C_14  and  N_15
REMARK    3  A    between atoms: N_18  and  C_19
REMARK                            x       y       z     vdW  Elec       q    Type
REMARK                         _______ _______ _______ _____ _____    ______ ____
ROOT
ATOM      8  C   UNL     1      -1.356  -0.173  25.163  0.00  0.00    +0.147 C 
ATOM      9  C   UNL     1      -0.960  -0.785  24.521  0.00  0.00    +0.253 C 
ATOM     10  O   UNL     1      -1.352  -1.491  24.165  0.00  0.00    -0.327 OA
ATOM     11  C   UNL     1      -1.285  -0.900  24.582  0.00  0.00    +0.176 C 
ATOM     12  C   UNL     1      -0.815  -0.322  24.805  0.00  0.00    +0.170 C 
ATOM     13  O   UNL     1      -0.214  -0.441  24.443  0.00  0.00    -0.327 OA
ATOM     14  C   UNL     1      -1.181   0.271  25.419  0.00  0.00    +0.158 C 
ATOM     26  C   UNL     1      -1.930  -0.076  25.497  0.00  0.00    +0.194 C 
ATOM     27  O   UNL     1      -2.704  -0.196  25.757  0.00  0.00    -0.220 OA
ENDROOT
BRANCH   8   5
ATOM      1  C   UNL     1      -3.529  -2.526  24.369  0.00  0.00    +0.090 C 
ATOM      2  N   UNL     1      -2.985  -1.938  24.568  0.00  0.00    -0.269 NA
ATOM      3  C   UNL     1      -2.990  -1.220  24.163  0.00  0.00    +0.090 C 
ATOM      4  C   UNL     1      -2.446  -0.632  24.361  0.00  0.00    +0.090 C 
ATOM      5  N   UNL     1      -1.899  -0.762  24.965  0.00  0.00    -0.265 NA
ATOM      6  C   UNL     1      -1.896  -1.481  25.370  0.00  0.00    +0.090 C 
ATOM      7  C   UNL     1      -2.439  -2.069  25.172  0.00  0.00    +0.090 C 
ENDBRANCH   8   5
BRANCH  14  15
ATOM     15  N   UNL     1      -0.859   0.940  25.779  0.00  0.00    -0.183 NA
ATOM     16  C   UNL     1      -1.095   1.693  25.538  0.00  0.00    +0.344 C 
ATOM     17  O   UNL     1      -1.655   1.777  24.938  0.00  0.00    -0.249 OA
ATOM     18  N   UNL     1      -0.773   2.361  25.898  0.00  0.00    -0.161 NA
BRANCH  18  19
ATOM     19  C   UNL     1      -1.010   3.114  25.657  0.00  0.00    +0.075 A 
ATOM     20  C   UNL     1      -1.708   3.440  25.949  0.00  0.00    +0.019 A 
ATOM     21  C   UNL     1      -1.945   4.194  25.708  0.00  0.00    +0.031 A 
ATOM     22  C   UNL     1      -1.482   4.619  25.175  0.00  0.00    +0.140 A 
ATOM     23  F   UNL     1      -1.719   5.372  24.934  0.00  0.00    -0.204 F 
ATOM     24  C   UNL     1      -0.783   4.293  24.881  0.00  0.00    +0.031 A 
ATOM     25  C   UNL     1      -0.548   3.540  25.123  0.00  0.00    +0.019 A 
ENDBRANCH  18  19
ENDBRANCH  14  15
TORSDOF 3
ENDMDL
MODEL 4
REMARK VINA RESULT:     -11.0      1.890      2.462
REMARK  Name = 
REMARK  3 active torsions:
REMARK  status: ('A' for Active; 'I' for Inactive)
REMARK    1  A    between atoms: N_5  and  C_8
REMARK    2  A    between atoms: C_14  and  N_15
REMARK    3  A    between atoms: N_18  and  C_19
REMARK                            x       y       z     vdW  Elec       q    Type
REMARK                         _______ _______ _______ _____ _____    ______ ____
ROOT
ATOM      8  C   UNL     1      -0.659   1.479  25.082  0.00  0.00    +0.147 C 
ATOM      9  C   UNL     1      -0.050   1.857  24.427  0.00  0.00    +0.253 C 
ATOM     10  O   UNL     1       0.014   2.710  24.210  0.00  0.00    -0.327 OA
ATOM     11  C   UNL     1      -0.236   2.125  24.557  0.00  0.00    +0.176 C 
ATOM     12  C   UNL     1      -0.177   1.354  24.641  0.00  0.00    +0.170 C 
ATOM     13  O   UNL     1       0.335   1.171  24.180  0.00  0.00    -0.327 OA
ATOM     14  C   UNL     1      -0.754   0.977  25.264  0.00  0.00    +0.158 C 
ATOM     26  C   UNL     1      -1.139   1.668  25.510  0.00  0.00    +0.194 C 
ATOM     27  O   UNL     1      -1.659   2.159  25.922  0.00  0.00    -0.220 OA
ENDROOT
BRANCH   8   5
ATOM      1  C   UNL     1      -1.093   4.745  24.908  0.00  0.00    +0.090 C 
ATOM      2  N   UNL     1      -0.985   3.928  24.951  0.00  0.00    -0.269 NA
ATOM      3  C   UNL     1      -0.470   3.611  25.511  0.00  0.00    +0.090 C 
ATOM      4  C   UNL     1      -0.361   2.794  25.555  0.00  0.00    +0.090 C 
ATOM      5  N   UNL     1      -0.767   2.295  25.039  0.00  0.00    -0.265 NA
ATOM      6  C   UNL     1      -1.283   2.614  24.478  0.00  0.00    +0.090 C 
ATOM      7  C   UNL     1      -1.392   3.431  24.435  0.00  0.00    +0.090 C 
ENDBRANCH   8   5
BRANCH  14  15
ATOM     15  N   UNL     1      -0.852   0.192  25.502  0.00  0.00    -0.183 NA
ATOM     16  C   UNL     1      -1.494  -0.245  25.224  0.00  0.00    +0.344 C 
ATOM     17  O   UNL     1      -2.037   0.101  24.709  0.00  0.00    -0.249 OA
ATOM     18  N   UNL     1      -1.592  -1.029  25.461  0.00  0.00    -0.161 NA
BRANCH  18  19
ATOM     19  C   UNL     1      -2.233  -1.467  25.183  0.00  0.00    +0.075 A 
ATOM     20  C   UNL     1      -2.980  -1.363  25.518  0.00  0.00    +0.019 A 
ATOM     21  C   UNL     1      -3.622  -1.801  25.240  0.00  0.00    +0.031 A 
ATOM     22  C   UNL     1      -3.515  -2.343  24.627  0.00  0.00    +0.140 A 
ATOM     23  F   UNL     1      -4.157  -2.781  24.350  0.00  0.00    -0.204 F 
ATOM     24  C   UNL     1      -2.769  -2.448  24.292  0.00  0.00    +0.031 A 
ATOM     25  C   UNL     1      -2.128  -2.010  24.571  0.00  0.00    +0.019 A 
ENDBRANCH  18  19
ENDBRANCH  14  15
TORSDOF 3
ENDMDL
MODEL 5
REMARK VINA RESULT:     -11.0      1.286      2.033
REMARK  Name = 
REMARK  3 active torsions:
REMARK  status: ('A' for Active; 'I' for Inactive)
REMARK    1  A    between atoms: N_5  and  C_8
REMARK    2  A    between atoms: C_14  and  N_15
REMARK    3  A    between atoms: N_18  and  C_19
REMARK                            x       y       z     vdW  Elec       q    Type
REMARK                         _______ _______ _______ _____ _____    ______ ____
ROOT
ATOM      8  C   UNL     1      -3.589   2.064  24.601  0.00  0.00    +0.147 C 
ATOM      9  C   UNL     1      -3.116   2.712  25.148  0.00  0.00    +0.253 C 
ATOM     10  O   UNL     1      -3.470   3.420  25.539  0.00  0.00    -0.327 OA
ATOM     11  C   UNL     1      -3.451   2.815  25.138  0.00  0.00    +0.176 C 
ATOM     12  C   UNL     1      -3.003   2.243  24.860  0.00  0.00    +0.170 C 
ATOM     13  O   UNL     1      -2.356   2.393  25.116  0.00  0.00    -0.327 OA
ATOM     14  C   UNL     1      -3.443   1.615  24.335  0.00  0.00    +0.158 C 
ATOM     26  C   UNL     1      -4.206   1.937  24.368  0.00  0.00    +0.194 C 
ATOM     27  O   UNL     1      -5.015   2.025  24.233  0.00  0.00    -0.220 OA
ENDROOT
BRANCH   8   5
ATOM      1  C   UNL     1      -5.686   4.383  25.656  0.00  0.00    +0.090 C 
ATOM      2  N   UNL     1      -5.162   3.804  25.392  0.00  0.00    -0.269 NA
ATOM      3  C   UNL     1      -5.079   3.100  25.814  0.00  0.00    +0.090 C 
ATOM      4  C   UNL     1      -4.555   2.520  25.550  0.00  0.00    +0.090 C 
ATOM      5  N   UNL     1      -4.113   2.644  24.864  0.00  0.00    -0.265 NA
ATOM      6  C   UNL     1      -4.196   3.348  24.442  0.00  0.00    +0.090 C 
ATOM      7  C   UNL     1      -4.721   3.928  24.706  0.00  0.00    +0.090 C 
ENDBRANCH   8   5
BRANCH  14  15
ATOM     15  N   UNL     1      -3.160   0.942  23.950  0.00  0.00    -0.183 NA
ATOM     16  C   UNL     1      -3.326   0.193  24.253  0.00  0.00    +0.344 C 
ATOM     17  O   UNL     1      -3.776   0.117  24.941  0.00  0.00    -0.249 OA
ATOM     18  N   UNL     1      -3.043  -0.480  23.869  0.00  0.00    -0.161 NA
BRANCH  18  19
ATOM     19  C   UNL     1      -3.210  -1.229  24.172  0.00  0.00    +0.075 A 
ATOM     20  C   UNL     1      -2.716  -1.563  24.741  0.00  0.00    +0.019 A 
ATOM     21  C   UNL     1      -2.882  -2.313  25.044  0.00  0.00    +0.031 A 
ATOM     22  C   UNL     1      -3.544  -2.727  24.778  0.00  0.00    +0.140 A 
ATOM     23  F   UNL     1      -3.711  -3.475  25.080  0.00  0.00    -0.204 F 
ATOM     24  C   UNL     1      -4.040  -2.392  24.208  0.00  0.00    +0.031 A 
ATOM     25  C   UNL     1      -3.872  -1.643  23.906  0.00  0.00    +0.019 A 
ENDBRANCH  18  19
ENDBRANCH  14  15
TORSDOF 3
ENDMDL
