REMARK  Name = 
REMARK  8 active torsions:
REMARK  status: ('A' for Active; 'I' for Inactive)
REMARK    1  A    between atoms: O_2  and  C_3
REMARK    2  A    between atoms: C_4  and  C_9
REMARK    3  A    between atoms: N_11  and  C_12
REMARK    4  A    between atoms: C_12  and  C_13
REMARK    5  A    between atoms: C_17  and  C_18
REMARK    6  A    between atoms: C_18  and  C_19
REMARK    7  A    between atoms: N_21  and  C_22
REMARK    8  A    between atoms: C_28  and  C_29
REMARK                            x       y       z     vdW  Elec       q    Type
REMARK                         _______ _______ _______ _____ _____    ______ ____
ROOT
ATOM     13  C   UNL     1      -0.107   8.065   0.000  0.00  0.00    +0.043 C 
ATOM     14  C   UNL     1       0.608   8.478   0.000  0.00  0.00    -0.033 C 
ATOM     15  C   UNL     1       1.322   8.065   0.000  0.00  0.00    -0.048 C 
ATOM     16  C   UNL     1       2.037   8.478   0.000  0.00  0.00    +0.026 C 
ATOM     17  C   UNL     1       1.322   7.240   0.000  0.00  0.00    +0.027 C 
ATOM     27  C   UNL     1       0.608   6.828   0.000  0.00  0.00    +0.005 C 
ATOM     28  C   UNL     1      -0.107   7.240   0.000  0.00  0.00    +0.006 C 
ENDROOT
BRANCH  28  29
ATOM     29  C   UNL     1      -0.821   6.828   0.000  0.00  0.00    +0.000 C 
ATOM     30  C   UNL     1      -1.536   7.240   0.000  0.00  0.00    +0.000 C 
ATOM     31  C   UNL     1      -0.821   6.003   0.000  0.00  0.00    +0.000 C 
ENDBRANCH  28  29
BRANCH  13  12
ATOM     12  C   UNL     1      -0.821   8.478   0.000  0.00  0.00    +0.120 C 
BRANCH  12  11
ATOM      9  C   UNL     1      -2.250   8.478   0.000  0.00  0.00    +0.268 C 
ATOM     10  O   UNL     1      -2.250   9.303   0.000  0.00  0.00    -0.268 OA
ATOM     11  N   UNL     1      -1.536   8.065   0.000  0.00  0.00    -0.201 NA
BRANCH   9   4
ATOM      3  C   UNL     1      -3.679   8.478   0.000  0.00  0.00    +0.143 A 
ATOM      4  C   UNL     1      -2.965   8.065   0.000  0.00  0.00    +0.089 A 
ATOM      5  C   UNL     1      -2.965   7.240   0.000  0.00  0.00    +0.008 A 
ATOM      6  C   UNL     1      -3.679   6.828   0.000  0.00  0.00    +0.000 A 
ATOM      7  C   UNL     1      -4.394   7.240   0.000  0.00  0.00    +0.003 A 
ATOM      8  C   UNL     1      -4.394   8.065   0.000  0.00  0.00    +0.037 A 
BRANCH   3   2
ATOM      1  C   UNL     1      -4.394   9.715   0.000  0.00  0.00    +0.252 C 
ATOM      2  O   UNL     1      -3.679   9.303   0.000  0.00  0.00    -0.471 OA
ENDBRANCH   3   2
ENDBRANCH   9   4
ENDBRANCH  12  11
ENDBRANCH  13  12
BRANCH  17  18
ATOM     18  C   UNL     1       2.037   6.828   0.000  0.00  0.00    +0.091 C 
BRANCH  18  19
ATOM     19  C   UNL     1       2.037   6.003   0.000  0.00  0.00    +0.242 C 
ATOM     20  O   UNL     1       1.322   5.590   0.000  0.00  0.00    -0.273 OA
ATOM     21  N   UNL     1       2.751   5.590   0.000  0.00  0.00    -0.207 NA
BRANCH  21  22
ATOM     22  C   UNL     1       2.751   4.765   0.000  0.00  0.00    +0.095 C 
ATOM     23  C   UNL     1       3.419   4.280   0.000  0.00  0.00    +0.022 C 
ATOM     24  C   UNL     1       3.164   3.496   0.000  0.00  0.00    +0.002 C 
ATOM     25  C   UNL     1       2.339   3.496   0.000  0.00  0.00    +0.002 C 
ATOM     26  C   UNL     1       2.084   4.280   0.000  0.00  0.00    +0.022 C 
ENDBRANCH  21  22
ENDBRANCH  18  19
ENDBRANCH  17  18
TORSDOF 8
