MODEL 1
REMARK VINA RESULT:     -13.6      0.000      0.000
REMARK  Name = 
REMARK  3 active torsions:
REMARK  status: ('A' for Active; 'I' for Inactive)
REMARK    1  A    between atoms: O_2  and  C_3
REMARK    2  A    between atoms: C_6  and  C_9
REMARK    3  A    between atoms: C_17  and  C_19
REMARK                            x       y       z     vdW  Elec       q    Type
REMARK                         _______ _______ _______ _____ _____    ______ ____
ROOT
ATOM      9  C   UNL     1      -3.722   0.387  24.754  0.00  0.00    +0.012 A 
ATOM     10  C   UNL     1      -2.978   0.736  24.826  0.00  0.00    +0.041 A 
ATOM     11  C   UNL     1      -2.085   0.519  24.831  0.00  0.00    +0.058 C 
ATOM     12  C   UNL     1      -1.652  -0.031  24.776  0.00  0.00    +0.011 C 
ATOM     13  C   UNL     1      -1.592   0.775  24.881  0.00  0.00    +0.043 C 
ATOM     14  C   UNL     1      -1.317   1.715  25.011  0.00  0.00    +0.096 C 
ATOM     15  N   UNL     1      -2.069   2.080  25.030  0.00  0.00    -0.275 N 
ATOM     16  C   UNL     1      -1.803   1.423  24.956  0.00  0.00    +0.100 C 
ATOM     17  C   UNL     1      -2.631   2.681  25.086  0.00  0.00    +0.255 C 
ATOM     18  O   UNL     1      -3.435   2.500  25.034  0.00  0.00    -0.269 OA
ATOM     24  C   UNL     1      -2.523   1.012  24.877  0.00  0.00    +0.110 C 
ATOM     25  N   UNL     1      -2.914   1.552  24.932  0.00  0.00    -0.299 N 
ATOM     26  C   UNL     1      -3.593   2.018  24.967  0.00  0.00    +0.261 A 
ATOM     27  O   UNL     1      -3.786   2.815  25.061  0.00  0.00    -0.267 OA
ATOM     28  C   UNL     1      -4.337   1.669  24.895  0.00  0.00    +0.061 A 
ATOM     29  C   UNL     1      -4.401   0.853  24.789  0.00  0.00    +0.006 A 
ENDROOT
BRANCH   9   6
ATOM      3  C   UNL     1      -3.914  -2.060  24.436  0.00  0.00    +0.139 A 
ATOM      4  C   UNL     1      -3.826  -1.749  25.194  0.00  0.00    +0.037 A 
ATOM      5  C   UNL     1      -3.762  -0.933  25.300  0.00  0.00    +0.003 A 
ATOM      6  C   UNL     1      -3.786  -0.429  24.648  0.00  0.00    +0.001 A 
ATOM      7  C   UNL     1      -3.874  -0.740  23.889  0.00  0.00    +0.003 A 
ATOM      8  C   UNL     1      -3.938  -1.556  23.783  0.00  0.00    +0.037 A 
BRANCH   3   2
ATOM      1  C   UNL     1      -3.309  -3.355  24.396  0.00  0.00    +0.252 C 
ATOM      2  O   UNL     1      -3.978  -2.875  24.330  0.00  0.00    -0.471 OA
ENDBRANCH   3   2
ENDBRANCH   9   6
BRANCH  17  19
ATOM     19  C   UNL     1      -2.390   3.462  25.194  0.00  0.00    +0.083 A 
ATOM     20  C   UNL     1      -2.315   3.851  25.918  0.00  0.00    +0.012 A 
ATOM     21  C   UNL     1      -2.060   4.621  25.768  0.00  0.00    +0.008 A 
ATOM     22  C   UNL     1      -1.978   4.709  24.952  0.00  0.00    +0.036 A 
ATOM     23  S   UNL     1      -2.182   3.993  24.597  0.00  0.00    -0.082 S 
ENDBRANCH  17  19
TORSDOF 3
ENDMDL
MODEL 2
REMARK VINA RESULT:     -13.3      1.800      4.707
REMARK  Name = 
REMARK  3 active torsions:
REMARK  status: ('A' for Active; 'I' for Inactive)
REMARK    1  A    between atoms: O_2  and  C_3
REMARK    2  A    between atoms: C_6  and  C_9
REMARK    3  A    between atoms: C_17  and  C_19
REMARK                            x       y       z     vdW  Elec       q    Type
REMARK                         _______ _______ _______ _____ _____    ______ ____
ROOT
ATOM      9  C   UNL     1      -1.403   1.630  25.200  0.00  0.00    +0.012 A 
ATOM     10  C   UNL     1      -2.084   1.307  24.864  0.00  0.00    +0.041 A 
ATOM     11  C   UNL     1      -2.832   1.552  24.391  0.00  0.00    +0.058 C 
ATOM     12  C   UNL     1      -3.148   2.114  24.112  0.00  0.00    +0.011 C 
ATOM     13  C   UNL     1      -3.286   1.313  24.172  0.00  0.00    +0.043 C 
ATOM     14  C   UNL     1      -3.625   0.386  24.137  0.00  0.00    +0.096 C 
ATOM     15  N   UNL     1      -3.015  -0.002  24.556  0.00  0.00    -0.275 N 
ATOM     16  C   UNL     1      -3.173   0.661  24.349  0.00  0.00    +0.100 C 
ATOM     17  C   UNL     1      -2.593  -0.619  24.905  0.00  0.00    +0.255 C 
ATOM     18  O   UNL     1      -1.879  -0.466  25.290  0.00  0.00    -0.269 OA
ATOM     24  C   UNL     1      -2.507   1.047  24.666  0.00  0.00    +0.110 C 
ATOM     25  N   UNL     1      -2.227   0.496  24.922  0.00  0.00    -0.299 N 
ATOM     26  C   UNL     1      -1.690   0.009  25.316  0.00  0.00    +0.261 A 
ATOM     27  O   UNL     1      -1.609  -0.791  25.501  0.00  0.00    -0.267 OA
ATOM     28  C   UNL     1      -1.010   0.333  25.651  0.00  0.00    +0.061 A 
ATOM     29  C   UNL     1      -0.866   1.143  25.593  0.00  0.00    +0.006 A 
ENDROOT
BRANCH   9   6
ATOM      3  C   UNL     1      -0.974   4.062  25.026  0.00  0.00    +0.139 A 
ATOM      4  C   UNL     1      -1.408   3.764  25.660  0.00  0.00    +0.037 A 
ATOM      5  C   UNL     1      -1.552   2.954  25.718  0.00  0.00    +0.003 A 
ATOM      6  C   UNL     1      -1.260   2.441  25.142  0.00  0.00    +0.001 A 
ATOM      7  C   UNL     1      -0.826   2.738  24.507  0.00  0.00    +0.003 A 
ATOM      8  C   UNL     1      -0.682   3.549  24.449  0.00  0.00    +0.037 A 
BRANCH   3   2
ATOM      1  C   UNL     1      -1.456   5.407  25.030  0.00  0.00    +0.252 C 
ATOM      2  O   UNL     1      -0.831   4.871  24.968  0.00  0.00    -0.471 OA
ENDBRANCH   3   2
ENDBRANCH   9   6
BRANCH  17  19
ATOM     19  C   UNL     1      -2.885  -1.390  24.870  0.00  0.00    +0.083 A 
ATOM     20  C   UNL     1      -3.434  -1.724  25.388  0.00  0.00    +0.012 A 
ATOM     21  C   UNL     1      -3.568  -2.503  25.148  0.00  0.00    +0.008 A 
ATOM     22  C   UNL     1      -3.102  -2.649  24.484  0.00  0.00    +0.036 A 
ATOM     23  S   UNL     1      -2.680  -1.962  24.311  0.00  0.00    -0.082 S 
ENDBRANCH  17  19
TORSDOF 3
ENDMDL
MODEL 3
REMARK VINA RESULT:     -13.3      1.050      1.724
REMARK  Name = 
REMARK  3 active torsions:
REMARK  status: ('A' for Active; 'I' for Inactive)
REMARK    1  A    between atoms: O_2  and  C_3
REMARK    2  A    between atoms: C_6  and  C_9
REMARK    3  A    between atoms: C_17  and  C_19
REMARK                            x       y       z     vdW  Elec       q    Type
REMARK                         _______ _______ _______ _____ _____    ______ ____
ROOT
ATOM      9  C   UNL     1      -2.121   0.038  25.218  0.00  0.00    +0.012 A 
ATOM     10  C   UNL     1      -2.476   0.721  24.920  0.00  0.00    +0.041 A 
ATOM     11  C   UNL     1      -3.224   0.995  24.463  0.00  0.00    +0.058 C 
ATOM     12  C   UNL     1      -3.814   0.748  24.173  0.00  0.00    +0.011 C 
ATOM     13  C   UNL     1      -3.447   1.469  24.270  0.00  0.00    +0.043 C 
ATOM     14  C   UNL     1      -3.165   2.416  24.285  0.00  0.00    +0.096 C 
ATOM     15  N   UNL     1      -2.443   2.341  24.698  0.00  0.00    -0.275 N 
ATOM     16  C   UNL     1      -2.966   1.915  24.470  0.00  0.00    +0.100 C 
ATOM     17  C   UNL     1      -1.735   2.565  25.057  0.00  0.00    +0.255 C 
ATOM     18  O   UNL     1      -1.252   1.996  25.410  0.00  0.00    -0.269 OA
ATOM     24  C   UNL     1      -2.661   1.192  24.747  0.00  0.00    +0.110 C 
ATOM     25  N   UNL     1      -2.107   1.453  25.016  0.00  0.00    -0.299 N 
ATOM     26  C   UNL     1      -1.384   1.502  25.410  0.00  0.00    +0.261 A 
ATOM     27  O   UNL     1      -0.841   2.085  25.625  0.00  0.00    -0.267 OA
ATOM     28  C   UNL     1      -1.030   0.819  25.708  0.00  0.00    +0.061 A 
ATOM     29  C   UNL     1      -1.398   0.087  25.612  0.00  0.00    +0.006 A 
ENDROOT
BRANCH   9   6
ATOM      3  C   UNL     1      -3.228  -2.157  24.930  0.00  0.00    +0.139 A 
ATOM      4  C   UNL     1      -2.674  -1.899  24.376  0.00  0.00    +0.037 A 
ATOM      5  C   UNL     1      -2.306  -1.167  24.472  0.00  0.00    +0.003 A 
ATOM      6  C   UNL     1      -2.490  -0.694  25.122  0.00  0.00    +0.001 A 
ATOM      7  C   UNL     1      -3.044  -0.952  25.676  0.00  0.00    +0.003 A 
ATOM      8  C   UNL     1      -3.413  -1.684  25.579  0.00  0.00    +0.037 A 
BRANCH   3   2
ATOM      1  C   UNL     1      -3.969  -3.073  24.120  0.00  0.00    +0.252 C 
ATOM      2  O   UNL     1      -3.597  -2.888  24.833  0.00  0.00    -0.471 OA
ENDBRANCH   3   2
ENDBRANCH   9   6
BRANCH  17  19
ATOM     19  C   UNL     1      -1.510   3.359  25.064  0.00  0.00    +0.083 A 
ATOM     20  C   UNL     1      -1.830   3.950  25.543  0.00  0.00    +0.012 A 
ATOM     21  C   UNL     1      -1.442   4.657  25.367  0.00  0.00    +0.008 A 
ATOM     22  C   UNL     1      -0.883   4.504  24.781  0.00  0.00    +0.036 A 
ATOM     23  S   UNL     1      -0.924   3.702  24.593  0.00  0.00    -0.082 S 
ENDBRANCH  17  19
TORSDOF 3
ENDMDL
MODEL 4
REMARK VINA RESULT:     -11.7      1.908      4.366
REMARK  Name = 
REMARK  3 active torsions:
REMARK  status: ('A' for Active; 'I' for Inactive)
REMARK    1  A    between atoms: O_2  and  C_3
REMARK    2  A    between atoms: C_6  and  C_9
REMARK    3  A    between atoms: C_17  and  C_19
REMARK                            x       y       z     vdW  Elec       q    Type
REMARK                         _______ _______ _______ _____ _____    ______ ____
ROOT
ATOM      9  C   UNL     1      -2.989   1.681  24.682  0.00  0.00    +0.012 A 
ATOM     10  C   UNL     1      -3.248   0.914  24.837  0.00  0.00    +0.041 A 
ATOM     11  C   UNL     1      -4.000   0.454  25.098  0.00  0.00    +0.058 C 
ATOM     12  C   UNL     1      -4.671   0.553  25.277  0.00  0.00    +0.011 C 
ATOM     13  C   UNL     1      -4.155  -0.073  25.198  0.00  0.00    +0.043 C 
ATOM     14  C   UNL     1      -3.691  -0.944  25.160  0.00  0.00    +0.096 C 
ATOM     15  N   UNL     1      -2.933  -0.689  24.918  0.00  0.00    -0.275 N 
ATOM     16  C   UNL     1      -3.565  -0.396  25.066  0.00  0.00    +0.100 C 
ATOM     17  C   UNL     1      -2.138  -0.735  24.699  0.00  0.00    +0.255 C 
ATOM     18  O   UNL     1      -1.722  -0.049  24.508  0.00  0.00    -0.269 OA
ATOM     24  C   UNL     1      -3.365   0.399  24.925  0.00  0.00    +0.110 C 
ATOM     25  N   UNL     1      -2.728   0.278  24.758  0.00  0.00    -0.299 N 
ATOM     26  C   UNL     1      -1.948   0.410  24.523  0.00  0.00    +0.261 A 
ATOM     27  O   UNL     1      -1.268  -0.034  24.378  0.00  0.00    -0.267 OA
ATOM     28  C   UNL     1      -1.688   1.177  24.368  0.00  0.00    +0.061 A 
ATOM     29  C   UNL     1      -2.209   1.813  24.447  0.00  0.00    +0.006 A 
ENDROOT
BRANCH   9   6
ATOM      3  C   UNL     1      -4.549   3.588  24.920  0.00  0.00    +0.139 A 
ATOM      4  C   UNL     1      -4.501   3.181  24.204  0.00  0.00    +0.037 A 
ATOM      5  C   UNL     1      -3.981   2.546  24.124  0.00  0.00    +0.003 A 
ATOM      6  C   UNL     1      -3.509   2.317  24.761  0.00  0.00    +0.001 A 
ATOM      7  C   UNL     1      -3.557   2.723  25.477  0.00  0.00    +0.003 A 
ATOM      8  C   UNL     1      -4.078   3.358  25.556  0.00  0.00    +0.037 A 
BRANCH   3   2
ATOM      1  C   UNL     1      -5.719   4.164  25.505  0.00  0.00    +0.252 C 
ATOM      2  O   UNL     1      -5.069   4.222  24.999  0.00  0.00    -0.471 OA
ENDBRANCH   3   2
ENDBRANCH   9   6
BRANCH  17  19
ATOM     19  C   UNL     1      -1.761  -1.468  24.670  0.00  0.00    +0.083 A 
ATOM     20  C   UNL     1      -1.883  -2.055  24.104  0.00  0.00    +0.012 A 
ATOM     21  C   UNL     1      -1.392  -2.692  24.287  0.00  0.00    +0.008 A 
ATOM     22  C   UNL     1      -0.967  -2.500  24.967  0.00  0.00    +0.036 A 
ATOM     23  S   UNL     1      -1.194  -1.743  25.205  0.00  0.00    -0.082 S 
ENDBRANCH  17  19
TORSDOF 3
ENDMDL
