MODEL 1
REMARK VINA RESULT:      -9.1      0.000      0.000
REMARK  Name = 
REMARK  5 active torsions:
REMARK  status: ('A' for Active; 'I' for Inactive)
REMARK    1  A    between atoms: C_2  and  C_4
REMARK    2  A    between atoms: C_7  and  N_8
REMARK    3  A    between atoms: N_11  and  C_12
REMARK    4  A    between atoms: C_16  and  N_20
REMARK    5  A    between atoms: C_23  and  C_27
REMARK                            x       y       z     vdW  Elec       q    Type
REMARK                         _______ _______ _______ _____ _____    ______ ____
ROOT
ATOM     12  C   UNL     1       0.404   0.854  23.479  0.00  0.00    +0.156 C 
ATOM     13  C   UNL     1       0.528   1.595  23.819  0.00  0.00    +0.166 C 
ATOM     14  O   UNL     1      -0.152   1.800  24.238  0.00  0.00    -0.350 OA
ATOM     15  C   UNL     1      -0.696   1.186  24.158  0.00  0.00    +0.166 C 
ATOM     16  C   UNL     1      -1.453   0.932  24.367  0.00  0.00    +0.154 C 
ATOM     17  C   UNL     1      -1.577   0.191  24.027  0.00  0.00    +0.166 C 
ATOM     18  O   UNL     1      -0.897  -0.014  23.607  0.00  0.00    -0.350 OA
ATOM     19  C   UNL     1      -0.352   0.601  23.688  0.00  0.00    +0.166 C 
ENDROOT
BRANCH  16  20
ATOM     20  N   UNL     1      -1.992   1.347  24.834  0.00  0.00    -0.200 NA
ATOM     21  C   UNL     1      -2.719   1.579  24.520  0.00  0.00    +0.237 A 
ATOM     22  N   UNL     1      -3.257   1.993  24.987  0.00  0.00    -0.209 NA
ATOM     23  C   UNL     1      -3.984   2.225  24.673  0.00  0.00    +0.120 A 
ATOM     24  C   UNL     1      -4.173   2.040  23.891  0.00  0.00    +0.043 A 
ATOM     25  C   UNL     1      -3.634   1.625  23.424  0.00  0.00    +0.104 A 
ATOM     26  N   UNL     1      -2.907   1.394  23.739  0.00  0.00    -0.211 NA
BRANCH  23  27
ATOM     27  C   UNL     1      -4.522   2.639  25.140  0.00  0.00    +0.163 A 
ATOM     28  C   UNL     1      -5.186   2.322  25.513  0.00  0.00    +0.042 A 
ATOM     29  C   UNL     1      -5.566   2.931  25.920  0.00  0.00    +0.044 A 
ATOM     30  C   UNL     1      -5.137   3.625  25.798  0.00  0.00    +0.180 A 
ATOM     31  O   UNL     1      -4.492   3.444  25.316  0.00  0.00    -0.449 OA
ENDBRANCH  23  27
ENDBRANCH  16  20
BRANCH  12  11
ATOM      8  N   UNL     1       2.287   0.054  22.718  0.00  0.00    -0.161 NA
ATOM      9  C   UNL     1       1.749   0.469  23.185  0.00  0.00    +0.344 C 
ATOM     10  O   UNL     1       2.016   0.915  23.826  0.00  0.00    -0.249 OA
ATOM     11  N   UNL     1       0.942   0.439  23.011  0.00  0.00    -0.184 NA
BRANCH   8   7
ATOM      4  C   UNL     1       4.705   0.142  23.238  0.00  0.00    +0.035 A 
ATOM      5  C   UNL     1       4.259  -0.517  23.458  0.00  0.00    +0.004 A 
ATOM      6  C   UNL     1       3.453  -0.546  23.284  0.00  0.00    +0.017 A 
ATOM      7  C   UNL     1       3.093   0.084  22.891  0.00  0.00    +0.075 A 
ATOM     32  C   UNL     1       3.538   0.742  22.671  0.00  0.00    +0.017 A 
ATOM     33  C   UNL     1       4.344   0.772  22.845  0.00  0.00    +0.004 A 
BRANCH   4   2
ATOM      1  C   UNL     1       5.772   0.560  24.091  0.00  0.00    +0.077 C 
ATOM      2  C   UNL     1       5.511   0.171  23.411  0.00  0.00    +0.173 C 
ATOM      3  O   UNL     1       6.055  -0.188  22.906  0.00  0.00    -0.291 OA
ENDBRANCH   4   2
ENDBRANCH   8   7
ENDBRANCH  12  11
TORSDOF 5
ENDMDL
MODEL 2
REMARK VINA RESULT:      -8.8      0.917      7.485
REMARK  Name = 
REMARK  5 active torsions:
REMARK  status: ('A' for Active; 'I' for Inactive)
REMARK    1  A    between atoms: C_2  and  C_4
REMARK    2  A    between atoms: C_7  and  N_8
REMARK    3  A    between atoms: N_11  and  C_12
REMARK    4  A    between atoms: C_16  and  N_20
REMARK    5  A    between atoms: C_23  and  C_27
REMARK                            x       y       z     vdW  Elec       q    Type
REMARK                         _______ _______ _______ _____ _____    ______ ____
ROOT
ATOM     12  C   UNL     1      -1.184   1.540  23.592  0.00  0.00    +0.156 C 
ATOM     13  C   UNL     1      -0.819   2.155  24.003  0.00  0.00    +0.166 C 
ATOM     14  O   UNL     1      -0.026   1.954  24.110  0.00  0.00    -0.350 OA
ATOM     15  C   UNL     1       0.099   1.216  23.764  0.00  0.00    +0.166 C 
ATOM     16  C   UNL     1       0.665   0.635  23.616  0.00  0.00    +0.154 C 
ATOM     17  C   UNL     1       0.300   0.021  23.204  0.00  0.00    +0.166 C 
ATOM     18  O   UNL     1      -0.492   0.222  23.098  0.00  0.00    -0.350 OA
ATOM     19  C   UNL     1      -0.617   0.960  23.444  0.00  0.00    +0.166 C 
ENDROOT
BRANCH  16  20
ATOM     20  N   UNL     1       1.459   0.664  23.841  0.00  0.00    -0.200 NA
ATOM     21  C   UNL     1       2.049   0.465  23.299  0.00  0.00    +0.237 A 
ATOM     22  N   UNL     1       2.842   0.494  23.523  0.00  0.00    -0.209 NA
ATOM     23  C   UNL     1       3.432   0.295  22.982  0.00  0.00    +0.120 A 
ATOM     24  C   UNL     1       3.228   0.067  22.216  0.00  0.00    +0.043 A 
ATOM     25  C   UNL     1       2.435   0.039  21.991  0.00  0.00    +0.104 A 
ATOM     26  N   UNL     1       1.845   0.237  22.533  0.00  0.00    -0.211 NA
BRANCH  23  27
ATOM     27  C   UNL     1       4.225   0.324  23.206  0.00  0.00    +0.163 A 
ATOM     28  C   UNL     1       4.709  -0.327  23.363  0.00  0.00    +0.042 A 
ATOM     29  C   UNL     1       5.456  -0.045  23.567  0.00  0.00    +0.044 A 
ATOM     30  C   UNL     1       5.435   0.779  23.536  0.00  0.00    +0.180 A 
ATOM     31  O   UNL     1       4.674   1.006  23.313  0.00  0.00    -0.449 OA
ENDBRANCH  23  27
ENDBRANCH  16  20
BRANCH  12  11
ATOM      8  N   UNL     1      -3.360   1.700  23.678  0.00  0.00    -0.161 NA
ATOM      9  C   UNL     1      -2.567   1.728  23.902  0.00  0.00    +0.344 C 
ATOM     10  O   UNL     1      -2.361   1.974  24.663  0.00  0.00    -0.249 OA
ATOM     11  N   UNL     1      -1.978   1.511  23.367  0.00  0.00    -0.184 NA
BRANCH   8   7
ATOM      4  C   UNL     1      -5.126   2.349  25.285  0.00  0.00    +0.035 A 
ATOM      5  C   UNL     1      -4.904   1.557  25.214  0.00  0.00    +0.004 A 
ATOM      6  C   UNL     1      -4.315   1.341  24.679  0.00  0.00    +0.017 A 
ATOM      7  C   UNL     1      -3.949   1.916  24.214  0.00  0.00    +0.075 A 
ATOM     32  C   UNL     1      -4.171   2.707  24.285  0.00  0.00    +0.017 A 
ATOM     33  C   UNL     1      -4.760   2.924  24.821  0.00  0.00    +0.004 A 
BRANCH   4   2
ATOM      1  C   UNL     1      -6.225   1.991  26.127  0.00  0.00    +0.077 C 
ATOM      2  C   UNL     1      -5.715   2.564  25.821  0.00  0.00    +0.173 C 
ATOM      3  O   UNL     1      -5.796   3.352  26.052  0.00  0.00    -0.291 OA
ENDBRANCH   4   2
ENDBRANCH   8   7
ENDBRANCH  12  11
TORSDOF 5
ENDMDL
MODEL 3
REMARK VINA RESULT:      -5.7     15.465     16.854
REMARK  Name = 
REMARK  5 active torsions:
REMARK  status: ('A' for Active; 'I' for Inactive)
REMARK    1  A    between atoms: C_2  and  C_4
REMARK    2  A    between atoms: C_7  and  N_8
REMARK    3  A    between atoms: N_11  and  C_12
REMARK    4  A    between atoms: C_16  and  N_20
REMARK    5  A    between atoms: C_23  and  C_27
REMARK                            x       y       z     vdW  Elec       q    Type
REMARK                         _______ _______ _______ _____ _____    ______ ____
ROOT
ATOM     12  C   UNL     1      13.017  -6.284  31.594  0.00  0.00    +0.156 C 
ATOM     13  C   UNL     1      12.506  -5.940  31.047  0.00  0.00    +0.166 C 
ATOM     14  O   UNL     1      11.745  -6.222  31.196  0.00  0.00    -0.350 OA
ATOM     15  C   UNL     1      11.787  -6.740  31.836  0.00  0.00    +0.166 C 
ATOM     16  C   UNL     1      11.343  -7.236  32.324  0.00  0.00    +0.154 C 
ATOM     17  C   UNL     1      11.855  -7.580  32.872  0.00  0.00    +0.166 C 
ATOM     18  O   UNL     1      12.615  -7.297  32.723  0.00  0.00    -0.350 OA
ATOM     19  C   UNL     1      12.573  -6.778  32.082  0.00  0.00    +0.166 C 
ENDROOT
BRANCH  16  20
ATOM     20  N   UNL     1      10.529  -7.364  32.273  0.00  0.00    -0.200 NA
ATOM     21  C   UNL     1      10.236  -8.133  32.218  0.00  0.00    +0.237 A 
ATOM     22  N   UNL     1       9.423  -8.262  32.167  0.00  0.00    -0.209 NA
ATOM     23  C   UNL     1       9.129  -9.031  32.112  0.00  0.00    +0.120 A 
ATOM     24  C   UNL     1       9.649  -9.671  32.107  0.00  0.00    +0.043 A 
ATOM     25  C   UNL     1      10.462  -9.543  32.158  0.00  0.00    +0.104 A 
ATOM     26  N   UNL     1      10.755  -8.774  32.213  0.00  0.00    -0.211 NA
BRANCH  23  27
ATOM     27  C   UNL     1       8.316  -9.159  32.061  0.00  0.00    +0.163 A 
ATOM     28  C   UNL     1       7.866  -9.150  31.369  0.00  0.00    +0.042 A 
ATOM     29  C   UNL     1       7.082  -9.305  31.573  0.00  0.00    +0.044 A 
ATOM     30  C   UNL     1       7.047  -9.410  32.390  0.00  0.00    +0.180 A 
ATOM     31  O   UNL     1       7.810  -9.320  32.691  0.00  0.00    -0.449 OA
ENDBRANCH  23  27
ENDBRANCH  16  20
BRANCH  12  11
ATOM      8  N   UNL     1      14.948  -5.266  31.602  0.00  0.00    -0.161 NA
ATOM      9  C   UNL     1      14.135  -5.394  31.551  0.00  0.00    +0.344 C 
ATOM     10  O   UNL     1      13.625  -4.762  31.405  0.00  0.00    -0.249 OA
ATOM     11  N   UNL     1      13.831  -6.155  31.645  0.00  0.00    -0.184 NA
BRANCH   8   7
ATOM      4  C   UNL     1      15.862  -2.983  31.317  0.00  0.00    +0.035 A 
ATOM      5  C   UNL     1      15.885  -3.518  30.689  0.00  0.00    +0.004 A 
ATOM      6  C   UNL     1      15.581  -4.279  30.785  0.00  0.00    +0.017 A 
ATOM      7  C   UNL     1      15.253  -4.505  31.507  0.00  0.00    +0.075 A 
ATOM     32  C   UNL     1      15.230  -3.970  32.134  0.00  0.00    +0.017 A 
ATOM     33  C   UNL     1      15.534  -3.209  32.040  0.00  0.00    +0.004 A 
BRANCH   4   2
ATOM      1  C   UNL     1      16.353  -1.945  30.467  0.00  0.00    +0.077 C 
ATOM      2  C   UNL     1      16.167  -2.222  31.222  0.00  0.00    +0.173 C 
ATOM      3  O   UNL     1      16.285  -1.739  31.880  0.00  0.00    -0.291 OA
ENDBRANCH   4   2
ENDBRANCH   8   7
ENDBRANCH  12  11
TORSDOF 5
ENDMDL
MODEL 4
REMARK VINA RESULT:      -5.6      1.615      7.388
REMARK  Name = 
REMARK  5 active torsions:
REMARK  status: ('A' for Active; 'I' for Inactive)
REMARK    1  A    between atoms: C_2  and  C_4
REMARK    2  A    between atoms: C_7  and  N_8
REMARK    3  A    between atoms: N_11  and  C_12
REMARK    4  A    between atoms: C_16  and  N_20
REMARK    5  A    between atoms: C_23  and  C_27
REMARK                            x       y       z     vdW  Elec       q    Type
REMARK                         _______ _______ _______ _____ _____    ______ ____
ROOT
ATOM     12  C   UNL     1      -2.921  -0.064  24.509  0.00  0.00    +0.156 C 
ATOM     13  C   UNL     1      -2.900  -0.140  23.688  0.00  0.00    +0.166 C 
ATOM     14  O   UNL     1      -2.120  -0.287  23.466  0.00  0.00    -0.350 OA
ATOM     15  C   UNL     1      -1.658  -0.303  24.148  0.00  0.00    +0.166 C 
ATOM     16  C   UNL     1      -0.891  -0.405  24.434  0.00  0.00    +0.154 C 
ATOM     17  C   UNL     1      -0.911  -0.329  25.255  0.00  0.00    +0.166 C 
ATOM     18  O   UNL     1      -1.692  -0.182  25.477  0.00  0.00    -0.350 OA
ATOM     19  C   UNL     1      -2.153  -0.166  24.793  0.00  0.00    +0.166 C 
ENDROOT
BRANCH  16  20
ATOM     20  N   UNL     1      -0.220  -0.555  23.977  0.00  0.00    -0.200 NA
ATOM     21  C   UNL     1       0.324   0.049  23.831  0.00  0.00    +0.237 A 
ATOM     22  N   UNL     1       0.994  -0.101  23.375  0.00  0.00    -0.209 NA
ATOM     23  C   UNL     1       1.538   0.502  23.229  0.00  0.00    +0.120 A 
ATOM     24  C   UNL     1       1.411   1.256  23.540  0.00  0.00    +0.043 A 
ATOM     25  C   UNL     1       0.740   1.406  23.997  0.00  0.00    +0.104 A 
ATOM     26  N   UNL     1       0.197   0.802  24.142  0.00  0.00    -0.211 NA
BRANCH  23  27
ATOM     27  C   UNL     1       2.208   0.352  22.773  0.00  0.00    +0.163 A 
ATOM     28  C   UNL     1       2.984   0.550  22.972  0.00  0.00    +0.042 A 
ATOM     29  C   UNL     1       3.476   0.299  22.360  0.00  0.00    +0.044 A 
ATOM     30  C   UNL     1       3.005  -0.055  21.783  0.00  0.00    +0.180 A 
ATOM     31  O   UNL     1       2.221  -0.021  22.038  0.00  0.00    -0.449 OA
ENDBRANCH  23  27
ENDBRANCH  16  20
BRANCH  12  11
ATOM      8  N   UNL     1      -4.583   0.996  25.445  0.00  0.00    -0.161 NA
ATOM      9  C   UNL     1      -3.913   0.845  24.989  0.00  0.00    +0.344 C 
ATOM     10  O   UNL     1      -3.563   1.455  24.556  0.00  0.00    -0.249 OA
ATOM     11  N   UNL     1      -3.591   0.086  24.966  0.00  0.00    -0.184 NA
BRANCH   8   7
ATOM      4  C   UNL     1      -5.548   3.274  25.517  0.00  0.00    +0.035 A 
ATOM      5  C   UNL     1      -4.789   3.138  25.811  0.00  0.00    +0.004 A 
ATOM      6  C   UNL     1      -4.468   2.378  25.786  0.00  0.00    +0.017 A 
ATOM      7  C   UNL     1      -4.905   1.755  25.469  0.00  0.00    +0.075 A 
ATOM     32  C   UNL     1      -5.664   1.891  25.176  0.00  0.00    +0.017 A 
ATOM     33  C   UNL     1      -5.985   2.651  25.200  0.00  0.00    +0.004 A 
BRANCH   4   2
ATOM      1  C   UNL     1      -5.453   4.667  25.215  0.00  0.00    +0.077 C 
ATOM      2  C   UNL     1      -5.869   4.034  25.541  0.00  0.00    +0.173 C 
ATOM      3  O   UNL     1      -6.605   4.160  25.891  0.00  0.00    -0.291 OA
ENDBRANCH   4   2
ENDBRANCH   8   7
ENDBRANCH  12  11
TORSDOF 5
ENDMDL
MODEL 5
REMARK VINA RESULT:      -5.6     15.113     17.513
REMARK  Name = 
REMARK  5 active torsions:
REMARK  status: ('A' for Active; 'I' for Inactive)
REMARK    1  A    between atoms: C_2  and  C_4
REMARK    2  A    between atoms: C_7  and  N_8
REMARK    3  A    between atoms: N_11  and  C_12
REMARK    4  A    between atoms: C_16  and  N_20
REMARK    5  A    between atoms: C_23  and  C_27
REMARK                            x       y       z     vdW  Elec       q    Type
REMARK                         _______ _______ _______ _____ _____    ______ ____
ROOT
ATOM     12  C   UNL     1      11.401  -7.142  32.114  0.00  0.00    +0.156 C 
ATOM     13  C   UNL     1      11.736  -7.432  31.419  0.00  0.00    +0.166 C 
ATOM     14  O   UNL     1      12.268  -6.868  31.139  0.00  0.00    -0.350 OA
ATOM     15  C   UNL     1      12.262  -6.230  31.660  0.00  0.00    +0.166 C 
ATOM     16  C   UNL     1      12.587  -5.486  31.810  0.00  0.00    +0.154 C 
ATOM     17  C   UNL     1      12.251  -5.196  32.505  0.00  0.00    +0.166 C 
ATOM     18  O   UNL     1      11.719  -5.760  32.785  0.00  0.00    -0.350 OA
ATOM     19  C   UNL     1      11.726  -6.399  32.263  0.00  0.00    +0.166 C 
ENDROOT
BRANCH  16  20
ATOM     20  N   UNL     1      13.149  -5.100  31.344  0.00  0.00    -0.200 NA
ATOM     21  C   UNL     1      13.827  -4.785  31.693  0.00  0.00    +0.237 A 
ATOM     22  N   UNL     1      14.389  -4.400  31.229  0.00  0.00    -0.209 NA
ATOM     23  C   UNL     1      15.067  -4.085  31.577  0.00  0.00    +0.120 A 
ATOM     24  C   UNL     1      15.183  -4.155  32.391  0.00  0.00    +0.043 A 
ATOM     25  C   UNL     1      14.621  -4.541  32.856  0.00  0.00    +0.104 A 
ATOM     26  N   UNL     1      13.943  -4.856  32.507  0.00  0.00    -0.211 NA
BRANCH  23  27
ATOM     27  C   UNL     1      15.629  -3.700  31.113  0.00  0.00    +0.163 A 
ATOM     28  C   UNL     1      16.189  -4.063  30.627  0.00  0.00    +0.042 A 
ATOM     29  C   UNL     1      16.636  -3.471  30.267  0.00  0.00    +0.044 A 
ATOM     30  C   UNL     1      16.353  -2.743  30.529  0.00  0.00    +0.180 A 
ATOM     31  O   UNL     1      15.731  -2.884  31.052  0.00  0.00    -0.449 OA
ENDBRANCH  23  27
ENDBRANCH  16  20
BRANCH  12  11
ATOM      8  N   UNL     1       9.621  -8.268  32.690  0.00  0.00    -0.161 NA
ATOM      9  C   UNL     1      10.183  -7.883  32.226  0.00  0.00    +0.344 C 
ATOM     10  O   UNL     1      10.091  -7.852  31.406  0.00  0.00    -0.249 OA
ATOM     11  N   UNL     1      10.838  -7.527  32.580  0.00  0.00    -0.184 NA
BRANCH   8   7
ATOM      4  C   UNL     1       7.656  -9.335  31.628  0.00  0.00    +0.035 A 
ATOM      5  C   UNL     1       8.344  -9.772  31.757  0.00  0.00    +0.004 A 
ATOM      6  C   UNL     1       8.999  -9.416  32.111  0.00  0.00    +0.017 A 
ATOM      7  C   UNL     1       8.966  -8.623  32.336  0.00  0.00    +0.075 A 
ATOM     32  C   UNL     1       8.279  -8.186  32.207  0.00  0.00    +0.017 A 
ATOM     33  C   UNL     1       7.624  -8.542  31.853  0.00  0.00    +0.004 A 
BRANCH   4   2
ATOM      1  C   UNL     1       6.631  -9.327  30.632  0.00  0.00    +0.077 C 
ATOM      2  C   UNL     1       7.002  -9.691  31.274  0.00  0.00    +0.173 C 
ATOM      3  O   UNL     1       6.718 -10.410  31.561  0.00  0.00    -0.291 OA
ENDBRANCH   4   2
ENDBRANCH   8   7
ENDBRANCH  12  11
TORSDOF 5
ENDMDL
