MODEL 1
REMARK VINA RESULT:      -9.5      0.000      0.000
REMARK  Name = 
REMARK  5 active torsions:
REMARK  status: ('A' for Active; 'I' for Inactive)
REMARK    1  A    between atoms: O_2  and  C_3
REMARK    2  A    between atoms: C_4  and  C_10
REMARK    3  A    between atoms: C_25  and  C_27
REMARK    4  A    between atoms: C_27  and  O_28
REMARK    5  A    between atoms: O_28  and  C_29
REMARK                            x       y       z     vdW  Elec       q    Type
REMARK                         _______ _______ _______ _____ _____    ______ ____
ROOT
ATOM     10  C   UNL     1      -2.743   2.162  24.820  0.00  0.00    +0.003 A 
ATOM     11  C   UNL     1      -1.953   2.195  24.585  0.00  0.00    +0.006 A 
ATOM     12  C   UNL     1      -1.554   1.500  24.386  0.00  0.00    +0.069 A 
ATOM     13  C   UNL     1      -1.946   0.775  24.421  0.00  0.00    +0.078 A 
ATOM     14  N   UNL     1      -1.652   0.023  24.247  0.00  0.00    -0.178 NA
ATOM     15  C   UNL     1      -0.895  -0.188  23.994  0.00  0.00    +0.265 C 
ATOM     16  O   UNL     1      -0.773  -0.993  23.865  0.00  0.00    -0.271 OA
ATOM     17  C   UNL     1      -0.245   0.300  23.854  0.00  0.00    +0.174 C 
ATOM     18  C   UNL     1       0.411  -0.135  23.607  0.00  0.00    +0.123 C 
ATOM     19  N   UNL     1       1.120   0.249  23.437  0.00  0.00    -0.273 N 
ATOM     20  C   UNL     1       1.175   1.068  23.514  0.00  0.00    +0.115 C 
ATOM     21  C   UNL     1       0.519   1.504  23.761  0.00  0.00    +0.116 C 
ATOM     22  N   UNL     1      -0.190   1.119  23.931  0.00  0.00    -0.266 N 
ATOM     23  C   UNL     1      -0.774   1.654  24.168  0.00  0.00    +0.251 C 
ATOM     24  O   UNL     1      -0.545   2.446  24.190  0.00  0.00    -0.270 OA
ATOM     25  C   UNL     1       1.776  -0.187  23.189  0.00  0.00    +0.270 C 
ATOM     26  O   UNL     1       1.721  -1.007  23.112  0.00  0.00    -0.271 OA
ATOM     35  C   UNL     1      -2.735   0.743  24.655  0.00  0.00    +0.017 A 
ATOM     36  C   UNL     1      -3.135   1.437  24.855  0.00  0.00    +0.001 A 
ENDROOT
BRANCH  10   4
ATOM      3  C   UNL     1      -3.661   3.203  24.480  0.00  0.00    +0.139 A 
ATOM      4  C   UNL     1      -3.143   2.856  25.020  0.00  0.00    +0.035 A 
ATOM      5  C   UNL     1      -3.023   3.202  25.760  0.00  0.00    +0.014 A 
ATOM      6  C   UNL     1      -3.423   3.896  25.959  0.00  0.00    +0.058 A 
ATOM      7 CL   UNL     1      -3.303   4.242  26.699  0.00  0.00    -0.082 Cl
ATOM      8  C   UNL     1      -3.941   4.244  25.420  0.00  0.00    +0.015 A 
ATOM      9  C   UNL     1      -4.060   3.897  24.680  0.00  0.00    +0.038 A 
BRANCH   3   2
ATOM      1  C   UNL     1      -4.228   3.249  23.170  0.00  0.00    +0.252 C 
ATOM      2  O   UNL     1      -3.781   2.858  23.741  0.00  0.00    -0.471 OA
ENDBRANCH   3   2
ENDBRANCH  10   4
BRANCH  25  27
ATOM     27  C   UNL     1       2.486   0.197  23.019  0.00  0.00    +0.290 C 
BRANCH  27  28
ATOM     28  O   UNL     1       3.142  -0.238  22.771  0.00  0.00    -0.466 OA
BRANCH  28  29
ATOM     29  C   UNL     1       3.897  -0.029  23.027  0.00  0.00    +0.139 A 
ATOM     30  C   UNL     1       4.200   0.719  22.854  0.00  0.00    +0.037 A 
ATOM     31  C   UNL     1       4.955   0.928  23.110  0.00  0.00    +0.003 A 
ATOM     32  C   UNL     1       5.408   0.390  23.540  0.00  0.00    +0.000 A 
ATOM     33  C   UNL     1       5.106  -0.358  23.713  0.00  0.00    +0.003 A 
ATOM     34  C   UNL     1       4.351  -0.567  23.457  0.00  0.00    +0.037 A 
ENDBRANCH  28  29
ENDBRANCH  27  28
ENDBRANCH  25  27
TORSDOF 5
ENDMDL
MODEL 2
REMARK VINA RESULT:      -9.5      1.020      1.164
REMARK  Name = 
REMARK  5 active torsions:
REMARK  status: ('A' for Active; 'I' for Inactive)
REMARK    1  A    between atoms: O_2  and  C_3
REMARK    2  A    between atoms: C_4  and  C_10
REMARK    3  A    between atoms: C_25  and  C_27
REMARK    4  A    between atoms: C_27  and  O_28
REMARK    5  A    between atoms: O_28  and  C_29
REMARK                            x       y       z     vdW  Elec       q    Type
REMARK                         _______ _______ _______ _____ _____    ______ ____
ROOT
ATOM     10  C   UNL     1      -3.695   1.696  25.069  0.00  0.00    +0.003 A 
ATOM     11  C   UNL     1      -2.928   1.797  24.783  0.00  0.00    +0.006 A 
ATOM     12  C   UNL     1      -2.460   1.137  24.620  0.00  0.00    +0.069 A 
ATOM     13  C   UNL     1      -2.758   0.378  24.744  0.00  0.00    +0.078 A 
ATOM     14  N   UNL     1      -2.386  -0.348  24.619  0.00  0.00    -0.178 NA
ATOM     15  C   UNL     1      -1.624  -0.494  24.339  0.00  0.00    +0.265 C 
ATOM     16  O   UNL     1      -1.412  -1.288  24.274  0.00  0.00    -0.271 OA
ATOM     17  C   UNL     1      -1.046   0.050  24.115  0.00  0.00    +0.174 C 
ATOM     18  C   UNL     1      -0.356  -0.328  23.865  0.00  0.00    +0.123 C 
ATOM     19  N   UNL     1       0.292   0.117  23.617  0.00  0.00    -0.273 N 
ATOM     20  C   UNL     1       0.252   0.941  23.618  0.00  0.00    +0.115 C 
ATOM     21  C   UNL     1      -0.438   1.320  23.867  0.00  0.00    +0.116 C 
ATOM     22  N   UNL     1      -1.086   0.874  24.115  0.00  0.00    -0.266 N 
ATOM     23  C   UNL     1      -1.716   1.358  24.341  0.00  0.00    +0.251 C 
ATOM     24  O   UNL     1      -1.584   2.170  24.278  0.00  0.00    -0.270 OA
ATOM     25  C   UNL     1       0.982  -0.261  23.368  0.00  0.00    +0.270 C 
ATOM     26  O   UNL     1       1.022  -1.086  23.367  0.00  0.00    -0.271 OA
ATOM     35  C   UNL     1      -3.525   0.278  25.031  0.00  0.00    +0.017 A 
ATOM     36  C   UNL     1      -3.994   0.937  25.193  0.00  0.00    +0.001 A 
ENDROOT
BRANCH  10   4
ATOM      3  C   UNL     1      -4.969   2.344  25.050  0.00  0.00    +0.139 A 
ATOM      4  C   UNL     1      -4.165   2.355  25.232  0.00  0.00    +0.035 A 
ATOM      5  C   UNL     1      -3.828   3.025  25.577  0.00  0.00    +0.014 A 
ATOM      6  C   UNL     1      -4.297   3.684  25.739  0.00  0.00    +0.058 A 
ATOM      7 CL   UNL     1      -3.961   4.354  26.084  0.00  0.00    -0.082 Cl
ATOM      8  C   UNL     1      -5.102   3.673  25.558  0.00  0.00    +0.015 A 
ATOM      9  C   UNL     1      -5.438   3.003  25.213  0.00  0.00    +0.038 A 
BRANCH   3   2
ATOM      1  C   UNL     1      -6.123   1.624  24.612  0.00  0.00    +0.252 C 
ATOM      2  O   UNL     1      -5.305   1.674  24.705  0.00  0.00    -0.471 OA
ENDBRANCH   3   2
ENDBRANCH  10   4
BRANCH  25  27
ATOM     27  C   UNL     1       1.630   0.184  23.120  0.00  0.00    +0.290 C 
BRANCH  27  28
ATOM     28  O   UNL     1       2.260  -0.184  22.733  0.00  0.00    -0.466 OA
BRANCH  28  29
ATOM     29  C   UNL     1       3.022   0.125  22.800  0.00  0.00    +0.139 A 
ATOM     30  C   UNL     1       3.191   0.875  22.504  0.00  0.00    +0.037 A 
ATOM     31  C   UNL     1       3.954   1.184  22.571  0.00  0.00    +0.003 A 
ATOM     32  C   UNL     1       4.547   0.740  22.934  0.00  0.00    +0.000 A 
ATOM     33  C   UNL     1       4.378  -0.010  23.231  0.00  0.00    +0.003 A 
ATOM     34  C   UNL     1       3.615  -0.319  23.164  0.00  0.00    +0.037 A 
ENDBRANCH  28  29
ENDBRANCH  27  28
ENDBRANCH  25  27
TORSDOF 5
ENDMDL
MODEL 3
REMARK VINA RESULT:      -8.5      2.084      3.175
REMARK  Name = 
REMARK  5 active torsions:
REMARK  status: ('A' for Active; 'I' for Inactive)
REMARK    1  A    between atoms: O_2  and  C_3
REMARK    2  A    between atoms: C_4  and  C_10
REMARK    3  A    between atoms: C_25  and  C_27
REMARK    4  A    between atoms: C_27  and  O_28
REMARK    5  A    between atoms: O_28  and  C_29
REMARK                            x       y       z     vdW  Elec       q    Type
REMARK                         _______ _______ _______ _____ _____    ______ ____
ROOT
ATOM     10  C   UNL     1      -2.513  -0.367  24.513  0.00  0.00    +0.003 A 
ATOM     11  C   UNL     1      -1.748  -0.551  24.266  0.00  0.00    +0.006 A 
ATOM     12  C   UNL     1      -1.192   0.052  24.166  0.00  0.00    +0.069 A 
ATOM     13  C   UNL     1      -1.403   0.835  24.313  0.00  0.00    +0.078 A 
ATOM     14  N   UNL     1      -0.936   1.513  24.248  0.00  0.00    -0.178 NA
ATOM     15  C   UNL     1      -0.146   1.575  24.019  0.00  0.00    +0.265 C 
ATOM     16  O   UNL     1       0.166   2.338  24.009  0.00  0.00    -0.271 OA
ATOM     17  C   UNL     1       0.374   0.973  23.800  0.00  0.00    +0.174 C 
ATOM     18  C   UNL     1       1.119   1.273  23.611  0.00  0.00    +0.123 C 
ATOM     19  N   UNL     1       1.722   0.761  23.377  0.00  0.00    -0.273 N 
ATOM     20  C   UNL     1       1.580  -0.050  23.331  0.00  0.00    +0.115 C 
ATOM     21  C   UNL     1       0.835  -0.351  23.520  0.00  0.00    +0.116 C 
ATOM     22  N   UNL     1       0.232   0.162  23.755  0.00  0.00    -0.266 N 
ATOM     23  C   UNL     1      -0.465  -0.248  23.918  0.00  0.00    +0.251 C 
ATOM     24  O   UNL     1      -0.430  -1.067  23.819  0.00  0.00    -0.270 OA
ATOM     25  C   UNL     1       2.467   1.061  23.187  0.00  0.00    +0.270 C 
ATOM     26  O   UNL     1       2.609   1.873  23.233  0.00  0.00    -0.271 OA
ATOM     35  C   UNL     1      -2.168   1.018  24.560  0.00  0.00    +0.017 A 
ATOM     36  C   UNL     1      -2.724   0.417  24.660  0.00  0.00    +0.001 A 
ENDROOT
BRANCH  10   4
ATOM      3  C   UNL     1      -3.188  -1.301  25.359  0.00  0.00    +0.139 A 
ATOM      4  C   UNL     1      -3.069  -0.969  24.614  0.00  0.00    +0.035 A 
ATOM      5  C   UNL     1      -3.507  -1.238  23.967  0.00  0.00    +0.014 A 
ATOM      6  C   UNL     1      -4.063  -1.839  24.068  0.00  0.00    +0.058 A 
ATOM      7 CL   UNL     1      -4.500  -2.108  23.422  0.00  0.00    -0.082 Cl
ATOM      8  C   UNL     1      -4.181  -2.171  24.813  0.00  0.00    +0.015 A 
ATOM      9  C   UNL     1      -3.744  -1.902  25.459  0.00  0.00    +0.038 A 
BRANCH   3   2
ATOM      1  C   UNL     1      -2.854  -1.379  26.746  0.00  0.00    +0.252 C 
ATOM      2  O   UNL     1      -2.751  -1.032  26.005  0.00  0.00    -0.471 OA
ENDBRANCH   3   2
ENDBRANCH  10   4
BRANCH  25  27
ATOM     27  C   UNL     1       3.070   0.549  22.953  0.00  0.00    +0.290 C 
BRANCH  27  28
ATOM     28  O   UNL     1       3.841   0.831  22.866  0.00  0.00    -0.466 OA
BRANCH  28  29
ATOM     29  C   UNL     1       4.474   0.410  23.186  0.00  0.00    +0.139 A 
ATOM     30  C   UNL     1       5.104   0.813  23.533  0.00  0.00    +0.037 A 
ATOM     31  C   UNL     1       5.737   0.392  23.853  0.00  0.00    +0.003 A 
ATOM     32  C   UNL     1       5.739  -0.432  23.825  0.00  0.00    +0.000 A 
ATOM     33  C   UNL     1       5.109  -0.835  23.478  0.00  0.00    +0.003 A 
ATOM     34  C   UNL     1       4.476  -0.414  23.158  0.00  0.00    +0.037 A 
ENDBRANCH  28  29
ENDBRANCH  27  28
ENDBRANCH  25  27
TORSDOF 5
ENDMDL
MODEL 4
REMARK VINA RESULT:      -7.9     15.380     17.322
REMARK  Name = 
REMARK  5 active torsions:
REMARK  status: ('A' for Active; 'I' for Inactive)
REMARK    1  A    between atoms: O_2  and  C_3
REMARK    2  A    between atoms: C_4  and  C_10
REMARK    3  A    between atoms: C_25  and  C_27
REMARK    4  A    between atoms: C_27  and  O_28
REMARK    5  A    between atoms: O_28  and  C_29
REMARK                            x       y       z     vdW  Elec       q    Type
REMARK                         _______ _______ _______ _____ _____    ______ ____
ROOT
ATOM     10  C   UNL     1      -4.036 -10.273  11.551  0.00  0.00    +0.003 A 
ATOM     11  C   UNL     1      -4.690 -10.105  12.025  0.00  0.00    +0.006 A 
ATOM     12  C   UNL     1      -4.648 -10.224  12.841  0.00  0.00    +0.069 A 
ATOM     13  C   UNL     1      -3.953 -10.510  13.181  0.00  0.00    +0.078 A 
ATOM     14  N   UNL     1      -3.796 -10.666  13.976  0.00  0.00    -0.178 NA
ATOM     15  C   UNL     1      -4.295 -10.575  14.627  0.00  0.00    +0.265 C 
ATOM     16  O   UNL     1      -3.973 -10.781  15.357  0.00  0.00    -0.271 OA
ATOM     17  C   UNL     1      -5.074 -10.305  14.643  0.00  0.00    +0.174 C 
ATOM     18  C   UNL     1      -5.375 -10.298  15.412  0.00  0.00    +0.123 C 
ATOM     19  N   UNL     1      -6.148 -10.046  15.550  0.00  0.00    -0.273 N 
ATOM     20  C   UNL     1      -6.621  -9.800  14.921  0.00  0.00    +0.115 C 
ATOM     21  C   UNL     1      -6.321  -9.807  14.151  0.00  0.00    +0.116 C 
ATOM     22  N   UNL     1      -5.547 -10.059  14.014  0.00  0.00    -0.266 N 
ATOM     23  C   UNL     1      -5.357 -10.023  13.211  0.00  0.00    +0.251 C 
ATOM     24  O   UNL     1      -5.956  -9.750  12.714  0.00  0.00    -0.270 OA
ATOM     25  C   UNL     1      -6.449 -10.039  16.319  0.00  0.00    +0.270 C 
ATOM     26  O   UNL     1      -5.975 -10.284  16.948  0.00  0.00    -0.271 OA
ATOM     35  C   UNL     1      -3.300 -10.678  12.706  0.00  0.00    +0.017 A 
ATOM     36  C   UNL     1      -3.341 -10.559  11.891  0.00  0.00    +0.001 A 
ENDROOT
BRANCH  10   4
ATOM      3  C   UNL     1      -3.530  -9.664  10.362  0.00  0.00    +0.139 A 
ATOM      4  C   UNL     1      -4.077 -10.154  10.736  0.00  0.00    +0.035 A 
ATOM      5  C   UNL     1      -4.667 -10.527  10.294  0.00  0.00    +0.014 A 
ATOM      6  C   UNL     1      -4.708 -10.409   9.478  0.00  0.00    +0.058 A 
ATOM      7 CL   UNL     1      -5.297 -10.781   9.037  0.00  0.00    -0.082 Cl
ATOM      8  C   UNL     1      -4.161  -9.918   9.105  0.00  0.00    +0.015 A 
ATOM      9  C   UNL     1      -3.571  -9.545   9.546  0.00  0.00    +0.038 A 
BRANCH   3   2
ATOM      1  C   UNL     1      -2.338  -8.879  10.420  0.00  0.00    +0.252 C 
ATOM      2  O   UNL     1      -2.940  -9.292  10.803  0.00  0.00    -0.471 OA
ENDBRANCH   3   2
ENDBRANCH  10   4
BRANCH  25  27
ATOM     27  C   UNL     1      -7.221  -9.786  16.456  0.00  0.00    +0.290 C 
BRANCH  27  28
ATOM     28  O   UNL     1      -7.449  -9.548  17.213  0.00  0.00    -0.466 OA
BRANCH  28  29
ATOM     29  C   UNL     1      -8.234  -9.346  17.364  0.00  0.00    +0.139 A 
ATOM     30  C   UNL     1      -8.746  -9.900  17.699  0.00  0.00    +0.037 A 
ATOM     31  C   UNL     1      -9.531  -9.698  17.850  0.00  0.00    +0.003 A 
ATOM     32  C   UNL     1      -9.805  -8.942  17.666  0.00  0.00    +0.000 A 
ATOM     33  C   UNL     1      -9.294  -8.388  17.331  0.00  0.00    +0.003 A 
ATOM     34  C   UNL     1      -8.508  -8.590  17.180  0.00  0.00    +0.037 A 
ENDBRANCH  28  29
ENDBRANCH  27  28
ENDBRANCH  25  27
TORSDOF 5
ENDMDL
MODEL 5
REMARK VINA RESULT:      -6.1      1.996      6.564
REMARK  Name = 
REMARK  5 active torsions:
REMARK  status: ('A' for Active; 'I' for Inactive)
REMARK    1  A    between atoms: O_2  and  C_3
REMARK    2  A    between atoms: C_4  and  C_10
REMARK    3  A    between atoms: C_25  and  C_27
REMARK    4  A    between atoms: C_27  and  O_28
REMARK    5  A    between atoms: O_28  and  C_29
REMARK                            x       y       z     vdW  Elec       q    Type
REMARK                         _______ _______ _______ _____ _____    ______ ____
ROOT
ATOM     10  C   UNL     1       1.104  -0.203  23.338  0.00  0.00    +0.003 A 
ATOM     11  C   UNL     1       0.467   0.314  23.423  0.00  0.00    +0.006 A 
ATOM     12  C   UNL     1      -0.206   0.074  23.836  0.00  0.00    +0.069 A 
ATOM     13  C   UNL     1      -0.241  -0.682  24.164  0.00  0.00    +0.078 A 
ATOM     14  N   UNL     1      -0.855  -1.028  24.594  0.00  0.00    -0.178 NA
ATOM     15  C   UNL     1      -1.584  -0.704  24.802  0.00  0.00    +0.265 C 
ATOM     16  O   UNL     1      -2.083  -1.195  25.238  0.00  0.00    -0.271 OA
ATOM     17  C   UNL     1      -1.881   0.046  24.631  0.00  0.00    +0.174 C 
ATOM     18  C   UNL     1      -2.638   0.150  24.943  0.00  0.00    +0.123 C 
ATOM     19  N   UNL     1      -3.034   0.864  24.833  0.00  0.00    -0.273 N 
ATOM     20  C   UNL     1      -2.675   1.476  24.413  0.00  0.00    +0.115 C 
ATOM     21  C   UNL     1      -1.918   1.373  24.101  0.00  0.00    +0.116 C 
ATOM     22  N   UNL     1      -1.521   0.658  24.211  0.00  0.00    -0.266 N 
ATOM     23  C   UNL     1      -0.775   0.670  23.857  0.00  0.00    +0.251 C 
ATOM     24  O   UNL     1      -0.573   1.372  23.473  0.00  0.00    -0.270 OA
ATOM     25  C   UNL     1      -3.792   0.968  25.145  0.00  0.00    +0.270 C 
ATOM     26  O   UNL     1      -4.151   0.355  25.566  0.00  0.00    -0.271 OA
ATOM     35  C   UNL     1       0.397  -1.198  24.079  0.00  0.00    +0.017 A 
ATOM     36  C   UNL     1       1.069  -0.959  23.666  0.00  0.00    +0.001 A 
ENDROOT
BRANCH  10   4
ATOM      3  C   UNL     1       1.865  -0.163  22.129  0.00  0.00    +0.139 A 
ATOM      4  C   UNL     1       1.777   0.036  22.925  0.00  0.00    +0.035 A 
ATOM      5  C   UNL     1       2.362   0.475  23.308  0.00  0.00    +0.014 A 
ATOM      6  C   UNL     1       3.035   0.714  22.894  0.00  0.00    +0.058 A 
ATOM      7 CL   UNL     1       3.619   1.152  23.277  0.00  0.00    -0.082 Cl
ATOM      8  C   UNL     1       3.123   0.515  22.099  0.00  0.00    +0.015 A 
ATOM      9  C   UNL     1       2.537   0.076  21.716  0.00  0.00    +0.038 A 
BRANCH   3   2
ATOM      1  C   UNL     1       1.312  -0.706  20.929  0.00  0.00    +0.252 C 
ATOM      2  O   UNL     1       1.280  -0.601  21.746  0.00  0.00    -0.471 OA
ENDBRANCH   3   2
ENDBRANCH  10   4
BRANCH  25  27
ATOM     27  C   UNL     1      -4.188   1.682  25.036  0.00  0.00    +0.290 C 
BRANCH  27  28
ATOM     28  O   UNL     1      -4.788   1.905  25.558  0.00  0.00    -0.466 OA
BRANCH  28  29
ATOM     29  C   UNL     1      -5.086   2.674  25.540  0.00  0.00    +0.139 A 
ATOM     30  C   UNL     1      -4.574   3.317  25.603  0.00  0.00    +0.037 A 
ATOM     31  C   UNL     1      -4.872   4.086  25.585  0.00  0.00    +0.003 A 
ATOM     32  C   UNL     1      -5.683   4.212  25.503  0.00  0.00    +0.000 A 
ATOM     33  C   UNL     1      -6.196   3.569  25.440  0.00  0.00    +0.003 A 
ATOM     34  C   UNL     1      -5.897   2.800  25.458  0.00  0.00    +0.037 A 
ENDBRANCH  28  29
ENDBRANCH  27  28
ENDBRANCH  25  27
TORSDOF 5
ENDMDL
MODEL 6
REMARK VINA RESULT:      -5.9     14.575     16.332
REMARK  Name = 
REMARK  5 active torsions:
REMARK  status: ('A' for Active; 'I' for Inactive)
REMARK    1  A    between atoms: O_2  and  C_3
REMARK    2  A    between atoms: C_4  and  C_10
REMARK    3  A    between atoms: C_25  and  C_27
REMARK    4  A    between atoms: C_27  and  O_28
REMARK    5  A    between atoms: O_28  and  C_29
REMARK                            x       y       z     vdW  Elec       q    Type
REMARK                         _______ _______ _______ _____ _____    ______ ____
ROOT
ATOM     10  C   UNL     1      -2.121 -10.123  12.894  0.00  0.00    +0.003 A 
ATOM     11  C   UNL     1      -2.810 -10.188  13.343  0.00  0.00    +0.006 A 
ATOM     12  C   UNL     1      -2.759 -10.282  14.162  0.00  0.00    +0.069 A 
ATOM     13  C   UNL     1      -2.021 -10.309  14.530  0.00  0.00    +0.078 A 
ATOM     14  N   UNL     1      -1.850 -10.398  15.332  0.00  0.00    -0.178 NA
ATOM     15  C   UNL     1      -2.373 -10.481  15.964  0.00  0.00    +0.265 C 
ATOM     16  O   UNL     1      -2.026 -10.560  16.708  0.00  0.00    -0.271 OA
ATOM     17  C   UNL     1      -3.198 -10.496  15.950  0.00  0.00    +0.174 C 
ATOM     18  C   UNL     1      -3.510 -10.590  16.709  0.00  0.00    +0.123 C 
ATOM     19  N   UNL     1      -4.327 -10.618  16.817  0.00  0.00    -0.273 N 
ATOM     20  C   UNL     1      -4.832 -10.554  16.169  0.00  0.00    +0.115 C 
ATOM     21  C   UNL     1      -4.520 -10.460  15.410  0.00  0.00    +0.116 C 
ATOM     22  N   UNL     1      -3.703 -10.431  15.302  0.00  0.00    -0.266 N 
ATOM     23  C   UNL     1      -3.507 -10.336  14.505  0.00  0.00    +0.251 C 
ATOM     24  O   UNL     1      -4.145 -10.288  13.984  0.00  0.00    -0.270 OA
ATOM     25  C   UNL     1      -4.640 -10.712  17.575  0.00  0.00    +0.270 C 
ATOM     26  O   UNL     1      -4.134 -10.777  18.224  0.00  0.00    -0.271 OA
ATOM     35  C   UNL     1      -1.334 -10.244  14.079  0.00  0.00    +0.017 A 
ATOM     36  C   UNL     1      -1.383 -10.150  13.261  0.00  0.00    +0.001 A 
ENDROOT
BRANCH  10   4
ATOM      3  C   UNL     1      -1.656  -9.516  11.687  0.00  0.00    +0.139 A 
ATOM      4  C   UNL     1      -2.171 -10.029  12.075  0.00  0.00    +0.035 A 
ATOM      5  C   UNL     1      -2.737 -10.451  11.646  0.00  0.00    +0.014 A 
ATOM      6  C   UNL     1      -2.786 -10.358  10.828  0.00  0.00    +0.058 A 
ATOM      7 CL   UNL     1      -3.351 -10.778  10.399  0.00  0.00    -0.082 Cl
ATOM      8  C   UNL     1      -2.272  -9.844  10.439  0.00  0.00    +0.015 A 
ATOM      9  C   UNL     1      -1.706  -9.423  10.868  0.00  0.00    +0.038 A 
BRANCH   3   2
ATOM      1  C   UNL     1      -0.503  -8.673  11.720  0.00  0.00    +0.252 C 
ATOM      2  O   UNL     1      -1.091  -9.095  12.116  0.00  0.00    -0.471 OA
ENDBRANCH   3   2
ENDBRANCH  10   4
BRANCH  25  27
ATOM     27  C   UNL     1      -5.457 -10.741  17.684  0.00  0.00    +0.290 C 
BRANCH  27  28
ATOM     28  O   UNL     1      -5.814 -10.264  18.255  0.00  0.00    -0.466 OA
BRANCH  28  29
ATOM     29  C   UNL     1      -6.621 -10.340  18.410  0.00  0.00    +0.139 A 
ATOM     30  C   UNL     1      -6.875 -10.660  19.126  0.00  0.00    +0.037 A 
ATOM     31  C   UNL     1      -7.682 -10.735  19.281  0.00  0.00    +0.003 A 
ATOM     32  C   UNL     1      -8.234 -10.490  18.719  0.00  0.00    +0.000 A 
ATOM     33  C   UNL     1      -7.980 -10.170  18.003  0.00  0.00    +0.003 A 
ATOM     34  C   UNL     1      -7.173 -10.095  17.848  0.00  0.00    +0.037 A 
ENDBRANCH  28  29
ENDBRANCH  27  28
ENDBRANCH  25  27
TORSDOF 5
ENDMDL
MODEL 7
REMARK VINA RESULT:      -5.8      1.746      2.699
REMARK  Name = 
REMARK  5 active torsions:
REMARK  status: ('A' for Active; 'I' for Inactive)
REMARK    1  A    between atoms: O_2  and  C_3
REMARK    2  A    between atoms: C_4  and  C_10
REMARK    3  A    between atoms: C_25  and  C_27
REMARK    4  A    between atoms: C_27  and  O_28
REMARK    5  A    between atoms: O_28  and  C_29
REMARK                            x       y       z     vdW  Elec       q    Type
REMARK                         _______ _______ _______ _____ _____    ______ ____
ROOT
ATOM     10  C   UNL     1      -4.098   2.856  25.432  0.00  0.00    +0.003 A 
ATOM     11  C   UNL     1      -3.535   2.399  25.039  0.00  0.00    +0.006 A 
ATOM     12  C   UNL     1      -2.737   2.610  25.071  0.00  0.00    +0.069 A 
ATOM     13  C   UNL     1      -2.505   3.277  25.497  0.00  0.00    +0.078 A 
ATOM     14  N   UNL     1      -1.745   3.582  25.599  0.00  0.00    -0.178 NA
ATOM     15  C   UNL     1      -1.031   3.295  25.302  0.00  0.00    +0.265 C 
ATOM     16  O   UNL     1      -0.359   3.729  25.504  0.00  0.00    -0.271 OA
ATOM     17  C   UNL     1      -0.900   2.633  24.828  0.00  0.00    +0.174 C 
ATOM     18  C   UNL     1      -0.099   2.541  24.652  0.00  0.00    +0.123 C 
ATOM     19  N   UNL     1       0.151   1.910  24.184  0.00  0.00    -0.273 N 
ATOM     20  C   UNL     1      -0.400   1.370  23.891  0.00  0.00    +0.115 C 
ATOM     21  C   UNL     1      -1.201   1.461  24.067  0.00  0.00    +0.116 C 
ATOM     22  N   UNL     1      -1.450   2.093  24.535  0.00  0.00    -0.266 N 
ATOM     23  C   UNL     1      -2.269   2.083  24.644  0.00  0.00    +0.251 C 
ATOM     24  O   UNL     1      -2.671   1.464  24.276  0.00  0.00    -0.270 OA
ATOM     25  C   UNL     1       0.952   1.818  24.008  0.00  0.00    +0.270 C 
ATOM     26  O   UNL     1       1.503   2.358  24.302  0.00  0.00    -0.271 OA
ATOM     35  C   UNL     1      -3.068   3.734  25.889  0.00  0.00    +0.017 A 
ATOM     36  C   UNL     1      -3.865   3.523  25.857  0.00  0.00    +0.001 A 
ENDROOT
BRANCH  10   4
ATOM      3  C   UNL     1      -5.477   3.230  25.401  0.00  0.00    +0.139 A 
ATOM      4  C   UNL     1      -4.895   2.645  25.399  0.00  0.00    +0.035 A 
ATOM      5  C   UNL     1      -5.110   1.848  25.365  0.00  0.00    +0.014 A 
ATOM      6  C   UNL     1      -5.907   1.638  25.333  0.00  0.00    +0.058 A 
ATOM      7 CL   UNL     1      -6.122   0.842  25.299  0.00  0.00    -0.082 Cl
ATOM      8  C   UNL     1      -6.489   2.222  25.335  0.00  0.00    +0.015 A 
ATOM      9  C   UNL     1      -6.274   3.019  25.369  0.00  0.00    +0.038 A 
BRANCH   3   2
ATOM      1  C   UNL     1      -5.844   4.610  25.436  0.00  0.00    +0.252 C 
ATOM      2  O   UNL     1      -5.262   4.025  25.435  0.00  0.00    -0.471 OA
ENDBRANCH   3   2
ENDBRANCH  10   4
BRANCH  25  27
ATOM     27  C   UNL     1       1.201   1.187  23.540  0.00  0.00    +0.290 C 
BRANCH  27  28
ATOM     28  O   UNL     1       1.963   0.881  23.630  0.00  0.00    -0.466 OA
BRANCH  28  29
ATOM     29  C   UNL     1       2.368   0.581  22.977  0.00  0.00    +0.139 A 
ATOM     30  C   UNL     1       1.989   0.061  22.461  0.00  0.00    +0.037 A 
ATOM     31  C   UNL     1       2.394  -0.240  21.808  0.00  0.00    +0.003 A 
ATOM     32  C   UNL     1       3.177  -0.020  21.672  0.00  0.00    +0.000 A 
ATOM     33  C   UNL     1       3.556   0.500  22.188  0.00  0.00    +0.003 A 
ATOM     34  C   UNL     1       3.151   0.801  22.841  0.00  0.00    +0.037 A 
ENDBRANCH  28  29
ENDBRANCH  27  28
ENDBRANCH  25  27
TORSDOF 5
ENDMDL
