MODEL 1
REMARK VINA RESULT:     -11.1      0.000      0.000
REMARK  Name = 
REMARK  5 active torsions:
REMARK  status: ('A' for Active; 'I' for Inactive)
REMARK    1  A    between atoms: O_2  and  C_3
REMARK    2  A    between atoms: C_6  and  C_9
REMARK    3  A    between atoms: C_12  and  C_14
REMARK    4  A    between atoms: N_18  and  C_19
REMARK    5  A    between atoms: C_19  and  C_20
REMARK                            x       y       z     vdW  Elec       q    Type
REMARK                         _______ _______ _______ _____ _____    ______ ____
ROOT
ATOM      9  C   UNL     1      -4.160   0.403  24.918  0.00  0.00    +0.205 A 
ATOM     10  N   UNL     1      -4.652   0.779  25.464  0.00  0.00    -0.056 NA
ATOM     11  O   UNL     1      -4.668   1.583  25.282  0.00  0.00    -0.336 OA
ATOM     12  C   UNL     1      -4.185   1.705  24.624  0.00  0.00    +0.251 A 
ATOM     13  N   UNL     1      -3.872   0.975  24.399  0.00  0.00    -0.190 NA
ENDROOT
BRANCH   9   6
ATOM      3  C   UNL     1      -3.642  -2.016  24.852  0.00  0.00    +0.225 A 
ATOM      4  N   UNL     1      -3.437  -1.568  25.513  0.00  0.00    -0.210 NA
ATOM      5  C   UNL     1      -3.609  -0.762  25.535  0.00  0.00    +0.105 A 
ATOM      6  C   UNL     1      -3.988  -0.404  24.896  0.00  0.00    +0.058 A 
ATOM      7  C   UNL     1      -4.194  -0.851  24.234  0.00  0.00    +0.010 A 
ATOM      8  C   UNL     1      -4.021  -1.657  24.212  0.00  0.00    +0.058 A 
BRANCH   3   2
ATOM      1  C   UNL     1      -2.767  -3.084  24.484  0.00  0.00    +0.254 C 
ATOM      2  O   UNL     1      -3.469  -2.823  24.830  0.00  0.00    -0.456 OA
ENDBRANCH   3   2
ENDBRANCH   9   6
BRANCH  12  14
ATOM     14  C   UNL     1      -4.042   2.428  24.255  0.00  0.00    +0.138 C 
ATOM     15  C   UNL     1      -4.460   2.738  23.614  0.00  0.00    +0.027 C 
ATOM     16  C   UNL     1      -4.132   3.470  23.424  0.00  0.00    +0.019 C 
ATOM     17  C   UNL     1      -3.510   3.614  23.947  0.00  0.00    +0.073 C 
ATOM     18  N   UNL     1      -3.454   2.970  24.461  0.00  0.00    -0.263 NA
BRANCH  18  19
ATOM     19  C   UNL     1      -2.907   2.883  25.072  0.00  0.00    +0.099 C 
BRANCH  19  20
ATOM     20  C   UNL     1      -2.259   3.389  25.120  0.00  0.00    -0.006 A 
ATOM     21  C   UNL     1      -2.337   4.128  25.479  0.00  0.00    -0.003 A 
ATOM     22  C   UNL     1      -1.688   4.635  25.527  0.00  0.00    -0.000 A 
ATOM     23  C   UNL     1      -0.960   4.403  25.217  0.00  0.00    -0.000 A 
ATOM     24  C   UNL     1      -0.881   3.664  24.858  0.00  0.00    -0.000 A 
ATOM     25  C   UNL     1      -1.530   3.158  24.810  0.00  0.00    -0.003 A 
ENDBRANCH  19  20
ENDBRANCH  18  19
ENDBRANCH  12  14
TORSDOF 5
ENDMDL
MODEL 2
REMARK VINA RESULT:     -10.5      1.430      5.041
REMARK  Name = 
REMARK  5 active torsions:
REMARK  status: ('A' for Active; 'I' for Inactive)
REMARK    1  A    between atoms: O_2  and  C_3
REMARK    2  A    between atoms: C_6  and  C_9
REMARK    3  A    between atoms: C_12  and  C_14
REMARK    4  A    between atoms: N_18  and  C_19
REMARK    5  A    between atoms: C_19  and  C_20
REMARK                            x       y       z     vdW  Elec       q    Type
REMARK                         _______ _______ _______ _____ _____    ______ ____
ROOT
ATOM      9  C   UNL     1      -2.867   2.656  24.361  0.00  0.00    +0.205 A 
ATOM     10  N   UNL     1      -3.080   2.436  23.594  0.00  0.00    -0.056 NA
ATOM     11  O   UNL     1      -3.674   1.866  23.648  0.00  0.00    -0.336 OA
ATOM     12  C   UNL     1      -3.829   1.734  24.447  0.00  0.00    +0.251 A 
ATOM     13  N   UNL     1      -3.330   2.223  24.888  0.00  0.00    -0.190 NA
ENDROOT
BRANCH   9   6
ATOM      3  C   UNL     1      -1.144   4.325  24.969  0.00  0.00    +0.225 A 
ATOM      4  N   UNL     1      -0.927   3.629  24.584  0.00  0.00    -0.210 NA
ATOM      5  C   UNL     1      -1.501   3.073  24.381  0.00  0.00    +0.105 A 
ATOM      6  C   UNL     1      -2.293   3.213  24.563  0.00  0.00    +0.058 A 
ATOM      7  C   UNL     1      -2.511   3.909  24.949  0.00  0.00    +0.010 A 
ATOM      8  C   UNL     1      -1.937   4.465  25.152  0.00  0.00    +0.058 A 
BRANCH   3   2
ATOM      1  C   UNL     1      -0.576   5.628  24.820  0.00  0.00    +0.254 C 
ATOM      2  O   UNL     1      -0.569   4.881  25.172  0.00  0.00    -0.456 OA
ENDBRANCH   3   2
ENDBRANCH   9   6
BRANCH  12  14
ATOM     14  C   UNL     1      -4.384   1.207  24.753  0.00  0.00    +0.138 C 
ATOM     15  C   UNL     1      -5.103   1.409  25.104  0.00  0.00    +0.027 C 
ATOM     16  C   UNL     1      -5.482   0.713  25.330  0.00  0.00    +0.019 C 
ATOM     17  C   UNL     1      -4.997   0.079  25.119  0.00  0.00    +0.073 C 
ATOM     18  N   UNL     1      -4.319   0.385  24.763  0.00  0.00    -0.263 NA
BRANCH  18  19
ATOM     19  C   UNL     1      -3.686  -0.055  24.467  0.00  0.00    +0.099 C 
BRANCH  19  20
ATOM     20  C   UNL     1      -3.695  -0.878  24.521  0.00  0.00    -0.006 A 
ATOM     21  C   UNL     1      -3.357  -1.252  25.174  0.00  0.00    -0.003 A 
ATOM     22  C   UNL     1      -3.365  -2.076  25.228  0.00  0.00    -0.000 A 
ATOM     23  C   UNL     1      -3.712  -2.524  24.628  0.00  0.00    -0.000 A 
ATOM     24  C   UNL     1      -4.050  -2.150  23.976  0.00  0.00    -0.000 A 
ATOM     25  C   UNL     1      -4.042  -1.327  23.922  0.00  0.00    -0.003 A 
ENDBRANCH  19  20
ENDBRANCH  18  19
ENDBRANCH  12  14
TORSDOF 5
ENDMDL
MODEL 3
REMARK VINA RESULT:     -10.4      2.144      5.457
REMARK  Name = 
REMARK  5 active torsions:
REMARK  status: ('A' for Active; 'I' for Inactive)
REMARK    1  A    between atoms: O_2  and  C_3
REMARK    2  A    between atoms: C_6  and  C_9
REMARK    3  A    between atoms: C_12  and  C_14
REMARK    4  A    between atoms: N_18  and  C_19
REMARK    5  A    between atoms: C_19  and  C_20
REMARK                            x       y       z     vdW  Elec       q    Type
REMARK                         _______ _______ _______ _____ _____    ______ ____
ROOT
ATOM      9  C   UNL     1      -1.167   1.733  25.431  0.00  0.00    +0.205 A 
ATOM     10  N   UNL     1      -0.954   1.342  26.126  0.00  0.00    -0.056 NA
ATOM     11  O   UNL     1      -0.848   0.543  25.946  0.00  0.00    -0.336 OA
ATOM     12  C   UNL     1      -0.996   0.442  25.140  0.00  0.00    +0.251 A 
ATOM     13  N   UNL     1      -1.193   1.177  24.823  0.00  0.00    -0.190 NA
ENDROOT
BRANCH   9   6
ATOM      3  C   UNL     1      -1.645   4.152  25.214  0.00  0.00    +0.225 A 
ATOM      4  N   UNL     1      -2.263   3.606  25.197  0.00  0.00    -0.210 NA
ATOM      5  C   UNL     1      -2.104   2.799  25.270  0.00  0.00    +0.105 A 
ATOM      6  C   UNL     1      -1.326   2.540  25.359  0.00  0.00    +0.058 A 
ATOM      7  C   UNL     1      -0.708   3.085  25.375  0.00  0.00    +0.010 A 
ATOM      8  C   UNL     1      -0.867   3.891  25.303  0.00  0.00    +0.058 A 
BRANCH   3   2
ATOM      1  C   UNL     1      -1.204   5.478  24.918  0.00  0.00    +0.254 C 
ATOM      2  O   UNL     1      -1.805   4.958  25.141  0.00  0.00    -0.456 OA
ENDBRANCH   3   2
ENDBRANCH   9   6
BRANCH  12  14
ATOM     14  C   UNL     1      -0.954  -0.270  24.726  0.00  0.00    +0.138 C 
ATOM     15  C   UNL     1      -0.302  -0.546  24.301  0.00  0.00    +0.027 C 
ATOM     16  C   UNL     1      -0.501  -1.277  23.975  0.00  0.00    +0.019 C 
ATOM     17  C   UNL     1      -1.276  -1.453  24.198  0.00  0.00    +0.073 C 
ATOM     18  N   UNL     1      -1.556  -0.831  24.662  0.00  0.00    -0.263 NA
BRANCH  18  19
ATOM     19  C   UNL     1      -2.305  -0.778  25.002  0.00  0.00    +0.099 C 
BRANCH  19  20
ATOM     20  C   UNL     1      -2.912  -1.273  24.742  0.00  0.00    -0.006 A 
ATOM     21  C   UNL     1      -3.442  -1.009  24.168  0.00  0.00    -0.003 A 
ATOM     22  C   UNL     1      -4.049  -1.504  23.907  0.00  0.00    -0.000 A 
ATOM     23  C   UNL     1      -4.125  -2.263  24.222  0.00  0.00    -0.000 A 
ATOM     24  C   UNL     1      -3.595  -2.527  24.796  0.00  0.00    -0.000 A 
ATOM     25  C   UNL     1      -2.988  -2.032  25.056  0.00  0.00    -0.003 A 
ENDBRANCH  19  20
ENDBRANCH  18  19
ENDBRANCH  12  14
TORSDOF 5
ENDMDL
MODEL 4
REMARK VINA RESULT:     -10.3      1.892      2.650
REMARK  Name = 
REMARK  5 active torsions:
REMARK  status: ('A' for Active; 'I' for Inactive)
REMARK    1  A    between atoms: O_2  and  C_3
REMARK    2  A    between atoms: C_6  and  C_9
REMARK    3  A    between atoms: C_12  and  C_14
REMARK    4  A    between atoms: N_18  and  C_19
REMARK    5  A    between atoms: C_19  and  C_20
REMARK                            x       y       z     vdW  Elec       q    Type
REMARK                         _______ _______ _______ _____ _____    ______ ____
ROOT
ATOM      9  C   UNL     1      -1.671   0.181  24.688  0.00  0.00    +0.205 A 
ATOM     10  N   UNL     1      -1.150   0.388  24.082  0.00  0.00    -0.056 NA
ATOM     11  O   UNL     1      -0.679   1.010  24.352  0.00  0.00    -0.336 OA
ATOM     12  C   UNL     1      -0.908   1.186  25.125  0.00  0.00    +0.251 A 
ATOM     13  N   UNL     1      -1.521   0.673  25.332  0.00  0.00    -0.190 NA
ENDROOT
BRANCH   9   6
ATOM      3  C   UNL     1      -3.380  -1.607  24.588  0.00  0.00    +0.225 A 
ATOM      4  N   UNL     1      -2.581  -1.802  24.647  0.00  0.00    -0.210 NA
ATOM      5  C   UNL     1      -2.011  -1.206  24.680  0.00  0.00    +0.105 A 
ATOM      6  C   UNL     1      -2.241  -0.415  24.654  0.00  0.00    +0.058 A 
ATOM      7  C   UNL     1      -3.040  -0.218  24.595  0.00  0.00    +0.010 A 
ATOM      8  C   UNL     1      -3.610  -0.814  24.562  0.00  0.00    +0.058 A 
BRANCH   3   2
ATOM      1  C   UNL     1      -4.264  -2.432  23.827  0.00  0.00    +0.254 C 
ATOM      2  O   UNL     1      -3.950  -2.202  24.554  0.00  0.00    -0.456 OA
ENDBRANCH   3   2
ENDBRANCH   9   6
BRANCH  12  14
ATOM     14  C   UNL     1      -0.583   1.771  25.606  0.00  0.00    +0.138 C 
ATOM     15  C   UNL     1      -0.069   1.647  26.241  0.00  0.00    +0.027 C 
ATOM     16  C   UNL     1       0.118   2.381  26.565  0.00  0.00    +0.019 C 
ATOM     17  C   UNL     1      -0.279   2.960  26.131  0.00  0.00    +0.073 C 
ATOM     18  N   UNL     1      -0.712   2.583  25.539  0.00  0.00    -0.263 NA
BRANCH  18  19
ATOM     19  C   UNL     1      -1.191   2.952  24.978  0.00  0.00    +0.099 C 
BRANCH  19  20
ATOM     20  C   UNL     1      -1.365   3.755  25.048  0.00  0.00    -0.006 A 
ATOM     21  C   UNL     1      -2.066   3.995  25.410  0.00  0.00    -0.003 A 
ATOM     22  C   UNL     1      -2.240   4.799  25.480  0.00  0.00    -0.000 A 
ATOM     23  C   UNL     1      -1.712   5.362  25.189  0.00  0.00    -0.000 A 
ATOM     24  C   UNL     1      -1.011   5.122  24.827  0.00  0.00    -0.000 A 
ATOM     25  C   UNL     1      -0.837   4.319  24.757  0.00  0.00    -0.003 A 
ENDBRANCH  19  20
ENDBRANCH  18  19
ENDBRANCH  12  14
TORSDOF 5
ENDMDL
MODEL 5
REMARK VINA RESULT:     -10.2      1.878      5.015
REMARK  Name = 
REMARK  5 active torsions:
REMARK  status: ('A' for Active; 'I' for Inactive)
REMARK    1  A    between atoms: O_2  and  C_3
REMARK    2  A    between atoms: C_6  and  C_9
REMARK    3  A    between atoms: C_12  and  C_14
REMARK    4  A    between atoms: N_18  and  C_19
REMARK    5  A    between atoms: C_19  and  C_20
REMARK                            x       y       z     vdW  Elec       q    Type
REMARK                         _______ _______ _______ _____ _____    ______ ____
ROOT
ATOM      9  C   UNL     1      -3.697   2.060  24.450  0.00  0.00    +0.205 A 
ATOM     10  N   UNL     1      -3.487   2.058  23.652  0.00  0.00    -0.056 NA
ATOM     11  O   UNL     1      -2.935   1.455  23.535  0.00  0.00    -0.336 OA
ATOM     12  C   UNL     1      -2.805   1.085  24.261  0.00  0.00    +0.251 A 
ATOM     13  N   UNL     1      -3.276   1.459  24.826  0.00  0.00    -0.190 NA
ENDROOT
BRANCH   9   6
ATOM      3  C   UNL     1      -5.309   3.600  25.525  0.00  0.00    +0.225 A 
ATOM      4  N   UNL     1      -4.535   3.847  25.380  0.00  0.00    -0.210 NA
ATOM      5  C   UNL     1      -3.998   3.333  25.022  0.00  0.00    +0.105 A 
ATOM      6  C   UNL     1      -4.235   2.573  24.808  0.00  0.00    +0.058 A 
ATOM      7  C   UNL     1      -5.008   2.325  24.952  0.00  0.00    +0.010 A 
ATOM      8  C   UNL     1      -5.546   2.839  25.310  0.00  0.00    +0.058 A 
BRANCH   3   2
ATOM      1  C   UNL     1      -6.032   4.833  25.523  0.00  0.00    +0.254 C 
ATOM      2  O   UNL     1      -5.846   4.113  25.883  0.00  0.00    -0.456 OA
ENDBRANCH   3   2
ENDBRANCH   9   6
BRANCH  12  14
ATOM     14  C   UNL     1      -2.294   0.452  24.398  0.00  0.00    +0.138 C 
ATOM     15  C   UNL     1      -1.470   0.480  24.374  0.00  0.00    +0.027 C 
ATOM     16  C   UNL     1      -1.183  -0.274  24.544  0.00  0.00    +0.019 C 
ATOM     17  C   UNL     1      -1.831  -0.770  24.673  0.00  0.00    +0.073 C 
ATOM     18  N   UNL     1      -2.517  -0.321  24.583  0.00  0.00    -0.263 NA
BRANCH  18  19
ATOM     19  C   UNL     1      -3.290  -0.596  24.664  0.00  0.00    +0.099 C 
BRANCH  19  20
ATOM     20  C   UNL     1      -3.449  -1.403  24.605  0.00  0.00    -0.006 A 
ATOM     21  C   UNL     1      -3.761  -1.712  23.907  0.00  0.00    -0.003 A 
ATOM     22  C   UNL     1      -3.921  -2.520  23.848  0.00  0.00    -0.000 A 
ATOM     23  C   UNL     1      -3.767  -3.018  24.488  0.00  0.00    -0.000 A 
ATOM     24  C   UNL     1      -3.455  -2.708  25.186  0.00  0.00    -0.000 A 
ATOM     25  C   UNL     1      -3.296  -1.901  25.245  0.00  0.00    -0.003 A 
ENDBRANCH  19  20
ENDBRANCH  18  19
ENDBRANCH  12  14
TORSDOF 5
ENDMDL
MODEL 6
REMARK VINA RESULT:      -9.6      1.925      2.852
REMARK  Name = 
REMARK  5 active torsions:
REMARK  status: ('A' for Active; 'I' for Inactive)
REMARK    1  A    between atoms: O_2  and  C_3
REMARK    2  A    between atoms: C_6  and  C_9
REMARK    3  A    between atoms: C_12  and  C_14
REMARK    4  A    between atoms: N_18  and  C_19
REMARK    5  A    between atoms: C_19  and  C_20
REMARK                            x       y       z     vdW  Elec       q    Type
REMARK                         _______ _______ _______ _____ _____    ______ ____
ROOT
ATOM      9  C   UNL     1      -1.550   0.936  24.490  0.00  0.00    +0.205 A 
ATOM     10  N   UNL     1      -1.345   1.396  23.836  0.00  0.00    -0.056 NA
ATOM     11  O   UNL     1      -1.505   2.184  24.018  0.00  0.00    -0.336 OA
ATOM     12  C   UNL     1      -1.809   2.213  24.784  0.00  0.00    +0.251 A 
ATOM     13  N   UNL     1      -1.837   1.441  25.076  0.00  0.00    -0.190 NA
ENDROOT
BRANCH   9   6
ATOM      3  C   UNL     1      -1.342  -1.524  24.663  0.00  0.00    +0.225 A 
ATOM      4  N   UNL     1      -0.666  -1.056  24.596  0.00  0.00    -0.210 NA
ATOM      5  C   UNL     1      -0.735  -0.236  24.538  0.00  0.00    +0.105 A 
ATOM      6  C   UNL     1      -1.481   0.116  24.548  0.00  0.00    +0.058 A 
ATOM      7  C   UNL     1      -2.158  -0.351  24.615  0.00  0.00    +0.010 A 
ATOM      8  C   UNL     1      -2.088  -1.171  24.673  0.00  0.00    +0.058 A 
BRANCH   3   2
ATOM      1  C   UNL     1      -1.892  -2.829  24.471  0.00  0.00    +0.254 C 
ATOM      2  O   UNL     1      -1.272  -2.344  24.721  0.00  0.00    -0.456 OA
ENDBRANCH   3   2
ENDBRANCH   9   6
BRANCH  12  14
ATOM     14  C   UNL     1      -2.045   2.892  25.188  0.00  0.00    +0.138 C 
ATOM     15  C   UNL     1      -1.565   3.360  25.670  0.00  0.00    +0.027 C 
ATOM     16  C   UNL     1      -2.024   3.980  25.961  0.00  0.00    +0.019 C 
ATOM     17  C   UNL     1      -2.788   3.896  25.659  0.00  0.00    +0.073 C 
ATOM     18  N   UNL     1      -2.800   3.224  25.181  0.00  0.00    -0.263 NA
BRANCH  18  19
ATOM     19  C   UNL     1      -3.453   2.934  24.769  0.00  0.00    +0.099 C 
BRANCH  19  20
ATOM     20  C   UNL     1      -4.213   3.049  25.066  0.00  0.00    -0.006 A 
ATOM     21  C   UNL     1      -4.578   3.785  24.994  0.00  0.00    -0.003 A 
ATOM     22  C   UNL     1      -5.339   3.901  25.292  0.00  0.00    -0.000 A 
ATOM     23  C   UNL     1      -5.735   3.278  25.663  0.00  0.00    -0.000 A 
ATOM     24  C   UNL     1      -5.370   2.542  25.735  0.00  0.00    -0.000 A 
ATOM     25  C   UNL     1      -4.610   2.427  25.437  0.00  0.00    -0.003 A 
ENDBRANCH  19  20
ENDBRANCH  18  19
ENDBRANCH  12  14
TORSDOF 5
ENDMDL
