REMARK  Name = 
REMARK  6 active torsions:
REMARK  status: ('A' for Active; 'I' for Inactive)
REMARK    1  A    between atoms: C_7  and  C_8
REMARK    2  A    between atoms: C_11  and  C_13
REMARK    3  A    between atoms: N_16  and  C_17
REMARK    4  A    between atoms: C_17  and  C_18
REMARK    5  A    between atoms: C_22  and  O_23
REMARK    6  A    between atoms: O_23  and  C_24
REMARK                            x       y       z     vdW  Elec       q    Type
REMARK                         _______ _______ _______ _____ _____    ______ ____
ROOT
ATOM     13  C   UNL     1      -2.412  -5.272   0.000  0.00  0.00    +0.096 C 
ATOM     14  C   UNL     1      -2.157  -6.057   0.000  0.00  0.00    +0.028 C 
ATOM     15  C   UNL     1      -2.824  -6.542   0.000  0.00  0.00    +0.073 C 
ATOM     16  N   UNL     1      -3.492  -6.057   0.000  0.00  0.00    -0.268 NA
ATOM     29  C   UNL     1      -3.237  -5.272   0.000  0.00  0.00    +0.082 C 
ENDROOT
BRANCH  13  11
ATOM      8  C   UNL     1      -1.514  -3.335   0.000  0.00  0.00    +0.252 A 
ATOM      9  N   UNL     1      -0.847  -3.820   0.000  0.00  0.00    -0.107 NA
ATOM     10  N   UNL     1      -1.102  -4.605   0.000  0.00  0.00    -0.111 NA
ATOM     11  C   UNL     1      -1.927  -4.605   0.000  0.00  0.00    +0.227 A 
ATOM     12  O   UNL     1      -2.182  -3.820   0.000  0.00  0.00    -0.419 OA
BRANCH   8   7
ATOM      1  F   UNL     1      -2.943  -2.510   0.000  0.00  0.00    -0.204 F 
ATOM      2  C   UNL     1      -2.229  -2.098   0.000  0.00  0.00    +0.145 A 
ATOM      3  C   UNL     1      -2.229  -1.272   0.000  0.00  0.00    +0.030 A 
ATOM      4  C   UNL     1      -1.514  -0.860   0.000  0.00  0.00    +0.002 A 
ATOM      5  C   UNL     1      -0.800  -1.272   0.000  0.00  0.00    +0.000 A 
ATOM      6  C   UNL     1      -0.800  -2.098   0.000  0.00  0.00    +0.007 A 
ATOM      7  C   UNL     1      -1.514  -2.510   0.000  0.00  0.00    +0.083 A 
ENDBRANCH   8   7
ENDBRANCH  13  11
BRANCH  16  17
ATOM     17  C   UNL     1      -4.276  -6.312   0.000  0.00  0.00    +0.099 C 
BRANCH  17  18
ATOM     18  C   UNL     1      -4.448  -7.119   0.000  0.00  0.00    -0.003 A 
ATOM     19  C   UNL     1      -3.835  -7.671   0.000  0.00  0.00    -0.003 A 
ATOM     20  C   UNL     1      -4.006  -8.477   0.000  0.00  0.00    +0.003 A 
ATOM     21  C   UNL     1      -4.791  -8.732   0.000  0.00  0.00    +0.037 A 
ATOM     22  C   UNL     1      -5.404  -8.180   0.000  0.00  0.00    +0.147 A 
ATOM     28  C   UNL     1      -5.232  -7.373   0.000  0.00  0.00    +0.034 A 
BRANCH  22  23
ATOM     23  O   UNL     1      -6.189  -8.435   0.000  0.00  0.00    -0.404 OA
BRANCH  23  24
ATOM     24  C   UNL     1      -6.360  -9.242   0.000  0.00  0.00    +0.575 C 
ATOM     25  F   UNL     1      -6.532 -10.049   0.000  0.00  0.00    -0.133 F 
ATOM     26  F   UNL     1      -7.167  -9.071   0.000  0.00  0.00    -0.133 F 
ATOM     27  F   UNL     1      -5.553  -9.414   0.000  0.00  0.00    -0.133 F 
ENDBRANCH  23  24
ENDBRANCH  22  23
ENDBRANCH  17  18
ENDBRANCH  16  17
TORSDOF 6
