MODEL 1
REMARK VINA RESULT:     -15.2      0.000      0.000
REMARK  Name = 
REMARK  6 active torsions:
REMARK  status: ('A' for Active; 'I' for Inactive)
REMARK    1  A    between atoms: C_2  and  C_3
REMARK    2  A    between atoms: C_2  and  C_25
REMARK    3  A    between atoms: C_10  and  N_11
REMARK    4  A    between atoms: C_12  and  C_14
REMARK    5  A    between atoms: N_27  and  C_28
REMARK    6  A    between atoms: C_28  and  C_29
REMARK                            x       y       z     vdW  Elec       q    Type
REMARK                         _______ _______ _______ _____ _____    ______ ____
ROOT
ATOM      3  C   UNL     1      -3.941   3.197  24.615  0.00  0.00    +0.039 C 
ATOM      4  C   UNL     1      -4.551   3.322  25.158  0.00  0.00    +0.003 C 
ATOM      5  C   UNL     1      -5.001   2.685  25.426  0.00  0.00    +0.000 C 
ATOM      6  C   UNL     1      -4.842   1.924  25.153  0.00  0.00    +0.002 C 
ATOM      7  C   UNL     1      -5.451   2.049  25.695  0.00  0.00    +0.000 C 
ATOM      8  C   UNL     1      -5.292   1.286  25.422  0.00  0.00    +0.002 C 
ATOM      9  C   UNL     1      -5.134   0.525  25.149  0.00  0.00    +0.022 C 
ATOM     10  C   UNL     1      -4.524   0.400  24.606  0.00  0.00    +0.095 C 
ATOM     20  C   UNL     1      -4.074   1.036  24.338  0.00  0.00    +0.022 C 
ATOM     21  C   UNL     1      -3.465   0.911  23.796  0.00  0.00    +0.002 C 
ATOM     22  C   UNL     1      -4.232   1.799  24.611  0.00  0.00    +0.032 C 
ATOM     23  C   UNL     1      -3.782   2.435  24.342  0.00  0.00    +0.152 C 
ATOM     24  O   UNL     1      -3.173   2.310  23.800  0.00  0.00    -0.223 OA
ENDROOT
BRANCH  10  11
ATOM     11  N   UNL     1      -4.365  -0.363  24.333  0.00  0.00    -0.207 NA
ATOM     12  C   UNL     1      -4.126  -0.949  24.861  0.00  0.00    +0.241 C 
ATOM     13  O   UNL     1      -4.045  -0.774  25.664  0.00  0.00    -0.273 OA
BRANCH  12  14
ATOM     14  C   UNL     1      -3.968  -1.711  24.588  0.00  0.00    +0.078 C 
ATOM     15  C   UNL     1      -4.352  -1.998  23.917  0.00  0.00    +0.009 C 
ATOM     16  C   UNL     1      -4.194  -2.760  23.644  0.00  0.00    +0.000 C 
ATOM     17  C   UNL     1      -3.651  -3.236  24.042  0.00  0.00    +0.000 C 
ATOM     18  C   UNL     1      -3.266  -2.950  24.714  0.00  0.00    +0.000 C 
ATOM     19  C   UNL     1      -3.425  -2.187  24.986  0.00  0.00    +0.009 C 
ENDBRANCH  12  14
ENDBRANCH  10  11
BRANCH   3   2
ATOM      1  C   UNL     1      -3.686   4.209  23.638  0.00  0.00    +0.010 C 
ATOM      2  C   UNL     1      -3.491   3.834  24.347  0.00  0.00    +0.081 C 
BRANCH   2  25
ATOM     25  C   UNL     1      -2.845   4.097  24.788  0.00  0.00    +0.241 C 
ATOM     26  O   UNL     1      -2.919   4.762  25.273  0.00  0.00    -0.273 OA
ATOM     27  N   UNL     1      -2.125   3.696  24.745  0.00  0.00    -0.201 NA
BRANCH  27  28
ATOM     28  C   UNL     1      -1.480   3.959  25.186  0.00  0.00    +0.142 C 
BRANCH  28  29
ATOM     29  C   UNL     1      -0.863   3.441  25.364  0.00  0.00    +0.004 A 
ATOM     30  C   UNL     1      -0.740   3.197  26.142  0.00  0.00    +0.027 A 
ATOM     31  C   UNL     1      -0.123   2.680  26.319  0.00  0.00    +0.142 A 
ATOM     32  F   UNL     1       0.001   2.436  27.099  0.00  0.00    -0.204 F 
ATOM     33  C   UNL     1       0.372   2.405  25.718  0.00  0.00    +0.059 A 
ATOM     34  C   UNL     1       0.248   2.649  24.940  0.00  0.00    +0.142 A 
ATOM     35  F   UNL     1       0.742   2.375  24.338  0.00  0.00    -0.204 F 
ATOM     36  C   UNL     1      -0.369   3.167  24.762  0.00  0.00    +0.027 A 
ENDBRANCH  28  29
ENDBRANCH  27  28
ENDBRANCH   2  25
ENDBRANCH   3   2
TORSDOF 6
ENDMDL
MODEL 2
REMARK VINA RESULT:     -13.5      1.697      5.033
REMARK  Name = 
REMARK  6 active torsions:
REMARK  status: ('A' for Active; 'I' for Inactive)
REMARK    1  A    between atoms: C_2  and  C_3
REMARK    2  A    between atoms: C_2  and  C_25
REMARK    3  A    between atoms: C_10  and  N_11
REMARK    4  A    between atoms: C_12  and  C_14
REMARK    5  A    between atoms: N_27  and  C_28
REMARK    6  A    between atoms: C_28  and  C_29
REMARK                            x       y       z     vdW  Elec       q    Type
REMARK                         _______ _______ _______ _____ _____    ______ ____
ROOT
ATOM      3  C   UNL     1      -4.580   0.671  24.833  0.00  0.00    +0.039 C 
ATOM      4  C   UNL     1      -5.239   0.931  25.257  0.00  0.00    +0.003 C 
ATOM      5  C   UNL     1      -5.294   1.720  25.491  0.00  0.00    +0.000 C 
ATOM      6  C   UNL     1      -4.691   2.249  25.302  0.00  0.00    +0.002 C 
ATOM      7  C   UNL     1      -5.349   2.508  25.726  0.00  0.00    +0.000 C 
ATOM      8  C   UNL     1      -4.745   3.039  25.537  0.00  0.00    +0.002 C 
ATOM      9  C   UNL     1      -4.142   3.568  25.347  0.00  0.00    +0.022 C 
ATOM     10  C   UNL     1      -3.483   3.308  24.923  0.00  0.00    +0.095 C 
ATOM     20  C   UNL     1      -3.428   2.519  24.689  0.00  0.00    +0.022 C 
ATOM     21  C   UNL     1      -2.770   2.260  24.266  0.00  0.00    +0.002 C 
ATOM     22  C   UNL     1      -4.032   1.989  24.878  0.00  0.00    +0.032 C 
ATOM     23  C   UNL     1      -3.977   1.201  24.644  0.00  0.00    +0.152 C 
ATOM     24  O   UNL     1      -3.318   0.941  24.220  0.00  0.00    -0.223 OA
ENDROOT
BRANCH  10  11
ATOM     11  N   UNL     1      -2.879   3.838  24.734  0.00  0.00    -0.207 NA
ATOM     12  C   UNL     1      -2.432   4.185  25.333  0.00  0.00    +0.241 C 
ATOM     13  O   UNL     1      -2.587   4.002  26.124  0.00  0.00    -0.273 OA
BRANCH  12  14
ATOM     14  C   UNL     1      -1.828   4.715  25.144  0.00  0.00    +0.078 C 
ATOM     15  C   UNL     1      -1.991   5.521  25.084  0.00  0.00    +0.009 C 
ATOM     16  C   UNL     1      -1.387   6.051  24.894  0.00  0.00    +0.000 C 
ATOM     17  C   UNL     1      -0.621   5.774  24.766  0.00  0.00    +0.000 C 
ATOM     18  C   UNL     1      -0.458   4.967  24.827  0.00  0.00    +0.000 C 
ATOM     19  C   UNL     1      -1.062   4.438  25.016  0.00  0.00    +0.009 C 
ENDBRANCH  12  14
ENDBRANCH  10  11
BRANCH   3   2
ATOM      1  C   UNL     1      -4.863  -0.363  23.887  0.00  0.00    +0.010 C 
ATOM      2  C   UNL     1      -4.526  -0.118  24.599  0.00  0.00    +0.081 C 
BRANCH   2  25
ATOM     25  C   UNL     1      -4.133  -0.663  25.077  0.00  0.00    +0.241 C 
ATOM     26  O   UNL     1      -4.380  -0.783  25.856  0.00  0.00    -0.273 OA
ATOM     27  N   UNL     1      -3.492  -1.090  24.778  0.00  0.00    -0.201 NA
BRANCH  27  28
ATOM     28  C   UNL     1      -3.100  -1.635  25.256  0.00  0.00    +0.142 C 
BRANCH  28  29
ATOM     29  C   UNL     1      -2.347  -1.900  25.047  0.00  0.00    +0.004 A 
ATOM     30  C   UNL     1      -1.682  -1.602  25.434  0.00  0.00    +0.027 A 
ATOM     31  C   UNL     1      -0.931  -1.868  25.225  0.00  0.00    +0.142 A 
ATOM     32  F   UNL     1      -0.265  -1.569  25.612  0.00  0.00    -0.204 F 
ATOM     33  C   UNL     1      -0.842  -2.432  24.629  0.00  0.00    +0.059 A 
ATOM     34  C   UNL     1      -1.508  -2.730  24.243  0.00  0.00    +0.142 A 
ATOM     35  F   UNL     1      -1.421  -3.294  23.647  0.00  0.00    -0.204 F 
ATOM     36  C   UNL     1      -2.261  -2.464  24.452  0.00  0.00    +0.027 A 
ENDBRANCH  28  29
ENDBRANCH  27  28
ENDBRANCH   2  25
ENDBRANCH   3   2
TORSDOF 6
ENDMDL
MODEL 3
REMARK VINA RESULT:     -13.0      2.605      6.190
REMARK  Name = 
REMARK  6 active torsions:
REMARK  status: ('A' for Active; 'I' for Inactive)
REMARK    1  A    between atoms: C_2  and  C_3
REMARK    2  A    between atoms: C_2  and  C_25
REMARK    3  A    between atoms: C_10  and  N_11
REMARK    4  A    between atoms: C_12  and  C_14
REMARK    5  A    between atoms: N_27  and  C_28
REMARK    6  A    between atoms: C_28  and  C_29
REMARK                            x       y       z     vdW  Elec       q    Type
REMARK                         _______ _______ _______ _____ _____    ______ ____
ROOT
ATOM      3  C   UNL     1      -0.469  -0.897  24.888  0.00  0.00    +0.039 C 
ATOM      4  C   UNL     1      -0.065  -0.973  24.172  0.00  0.00    +0.003 C 
ATOM      5  C   UNL     1       0.149  -0.301  23.745  0.00  0.00    +0.000 C 
ATOM      6  C   UNL     1      -0.041   0.448  24.033  0.00  0.00    +0.002 C 
ATOM      7  C   UNL     1       0.362   0.371  23.319  0.00  0.00    +0.000 C 
ATOM      8  C   UNL     1       0.173   1.121  23.607  0.00  0.00    +0.002 C 
ATOM      9  C   UNL     1      -0.017   1.870  23.895  0.00  0.00    +0.022 C 
ATOM     10  C   UNL     1      -0.421   1.947  24.611  0.00  0.00    +0.095 C 
ATOM     20  C   UNL     1      -0.635   1.274  25.038  0.00  0.00    +0.022 C 
ATOM     21  C   UNL     1      -1.039   1.351  25.753  0.00  0.00    +0.002 C 
ATOM     22  C   UNL     1      -0.445   0.525  24.750  0.00  0.00    +0.032 C 
ATOM     23  C   UNL     1      -0.659  -0.148  25.176  0.00  0.00    +0.152 C 
ATOM     24  O   UNL     1      -1.063  -0.071  25.891  0.00  0.00    -0.223 OA
ENDROOT
BRANCH  10  11
ATOM     11  N   UNL     1      -0.611   2.696  24.899  0.00  0.00    -0.207 NA
ATOM     12  C   UNL     1      -1.038   3.223  24.430  0.00  0.00    +0.241 C 
ATOM     13  O   UNL     1      -1.277   3.000  23.671  0.00  0.00    -0.273 OA
BRANCH  12  14
ATOM     14  C   UNL     1      -1.228   3.973  24.718  0.00  0.00    +0.078 C 
ATOM     15  C   UNL     1      -0.688   4.592  24.644  0.00  0.00    +0.009 C 
ATOM     16  C   UNL     1      -0.878   5.341  24.932  0.00  0.00    +0.000 C 
ATOM     17  C   UNL     1      -1.608   5.471  25.294  0.00  0.00    +0.000 C 
ATOM     18  C   UNL     1      -2.148   4.851  25.368  0.00  0.00    +0.000 C 
ATOM     19  C   UNL     1      -1.958   4.102  25.080  0.00  0.00    +0.009 C 
ENDBRANCH  12  14
ENDBRANCH  10  11
BRANCH   3   2
ATOM      1  C   UNL     1      -0.356  -1.709  26.059  0.00  0.00    +0.010 C 
ATOM      2  C   UNL     1      -0.683  -1.570  25.315  0.00  0.00    +0.081 C 
BRANCH   2  25
ATOM     25  C   UNL     1      -1.225  -2.105  24.996  0.00  0.00    +0.241 C 
ATOM     26  O   UNL     1      -0.958  -2.805  24.649  0.00  0.00    -0.273 OA
ATOM     27  N   UNL     1      -2.033  -1.940  25.025  0.00  0.00    -0.201 NA
BRANCH  27  28
ATOM     28  C   UNL     1      -2.574  -2.474  24.707  0.00  0.00    +0.142 C 
BRANCH  28  29
ATOM     29  C   UNL     1      -3.306  -2.208  24.435  0.00  0.00    +0.004 A 
ATOM     30  C   UNL     1      -3.589  -1.469  24.668  0.00  0.00    +0.027 A 
ATOM     31  C   UNL     1      -4.321  -1.203  24.396  0.00  0.00    +0.142 A 
ATOM     32  F   UNL     1      -4.604  -0.463  24.629  0.00  0.00    -0.204 F 
ATOM     33  C   UNL     1      -4.771  -1.677  23.891  0.00  0.00    +0.059 A 
ATOM     34  C   UNL     1      -4.488  -2.416  23.659  0.00  0.00    +0.142 A 
ATOM     35  F   UNL     1      -4.936  -2.890  23.154  0.00  0.00    -0.204 F 
ATOM     36  C   UNL     1      -3.755  -2.682  23.931  0.00  0.00    +0.027 A 
ENDBRANCH  28  29
ENDBRANCH  27  28
ENDBRANCH   2  25
ENDBRANCH   3   2
TORSDOF 6
ENDMDL
MODEL 4
REMARK VINA RESULT:     -13.0      2.080      3.708
REMARK  Name = 
REMARK  6 active torsions:
REMARK  status: ('A' for Active; 'I' for Inactive)
REMARK    1  A    between atoms: C_2  and  C_3
REMARK    2  A    between atoms: C_2  and  C_25
REMARK    3  A    between atoms: C_10  and  N_11
REMARK    4  A    between atoms: C_12  and  C_14
REMARK    5  A    between atoms: N_27  and  C_28
REMARK    6  A    between atoms: C_28  and  C_29
REMARK                            x       y       z     vdW  Elec       q    Type
REMARK                         _______ _______ _______ _____ _____    ______ ____
ROOT
ATOM      3  C   UNL     1      -0.228   2.052  25.309  0.00  0.00    +0.039 C 
ATOM      4  C   UNL     1       0.280   2.066  24.658  0.00  0.00    +0.003 C 
ATOM      5  C   UNL     1       0.308   1.422  24.144  0.00  0.00    +0.000 C 
ATOM      6  C   UNL     1      -0.169   0.764  24.281  0.00  0.00    +0.002 C 
ATOM      7  C   UNL     1       0.337   0.778  23.631  0.00  0.00    +0.000 C 
ATOM      8  C   UNL     1      -0.141   0.119  23.767  0.00  0.00    +0.002 C 
ATOM      9  C   UNL     1      -0.618  -0.539  23.903  0.00  0.00    +0.022 C 
ATOM     10  C   UNL     1      -1.126  -0.553  24.555  0.00  0.00    +0.095 C 
ATOM     20  C   UNL     1      -1.155   0.091  25.068  0.00  0.00    +0.022 C 
ATOM     21  C   UNL     1      -1.662   0.077  25.719  0.00  0.00    +0.002 C 
ATOM     22  C   UNL     1      -0.677   0.750  24.932  0.00  0.00    +0.032 C 
ATOM     23  C   UNL     1      -0.706   1.394  25.446  0.00  0.00    +0.152 C 
ATOM     24  O   UNL     1      -1.212   1.380  26.096  0.00  0.00    -0.223 OA
ENDROOT
BRANCH  10  11
ATOM     11  N   UNL     1      -1.604  -1.212  24.691  0.00  0.00    -0.207 NA
ATOM     12  C   UNL     1      -2.235  -1.376  24.186  0.00  0.00    +0.241 C 
ATOM     13  O   UNL     1      -2.389  -0.880  23.543  0.00  0.00    -0.273 OA
BRANCH  12  14
ATOM     14  C   UNL     1      -2.713  -2.034  24.322  0.00  0.00    +0.078 C 
ATOM     15  C   UNL     1      -2.376  -2.745  24.569  0.00  0.00    +0.009 C 
ATOM     16  C   UNL     1      -2.853  -3.404  24.705  0.00  0.00    +0.000 C 
ATOM     17  C   UNL     1      -3.669  -3.351  24.594  0.00  0.00    +0.000 C 
ATOM     18  C   UNL     1      -4.007  -2.640  24.346  0.00  0.00    +0.000 C 
ATOM     19  C   UNL     1      -3.528  -1.982  24.211  0.00  0.00    +0.009 C 
ENDBRANCH  12  14
ENDBRANCH  10  11
BRANCH   3   2
ATOM      1  C   UNL     1       0.151   2.673  26.540  0.00  0.00    +0.010 C 
ATOM      2  C   UNL     1      -0.256   2.697  25.823  0.00  0.00    +0.081 C 
BRANCH   2  25
ATOM     25  C   UNL     1      -0.693   3.367  25.620  0.00  0.00    +0.241 C 
ATOM     26  O   UNL     1      -0.311   4.032  25.315  0.00  0.00    -0.273 OA
ATOM     27  N   UNL     1      -1.512   3.372  25.720  0.00  0.00    -0.201 NA
BRANCH  27  28
ATOM     28  C   UNL     1      -1.949   4.041  25.517  0.00  0.00    +0.142 C 
BRANCH  28  29
ATOM     29  C   UNL     1      -2.755   3.975  25.355  0.00  0.00    +0.004 A 
ATOM     30  C   UNL     1      -3.018   3.954  24.573  0.00  0.00    +0.027 A 
ATOM     31  C   UNL     1      -3.824   3.888  24.412  0.00  0.00    +0.142 A 
ATOM     32  F   UNL     1      -4.087   3.867  23.629  0.00  0.00    -0.204 F 
ATOM     33  C   UNL     1      -4.367   3.843  25.031  0.00  0.00    +0.059 A 
ATOM     34  C   UNL     1      -4.104   3.864  25.813  0.00  0.00    +0.142 A 
ATOM     35  F   UNL     1      -4.646   3.819  26.433  0.00  0.00    -0.204 F 
ATOM     36  C   UNL     1      -3.297   3.930  25.975  0.00  0.00    +0.027 A 
ENDBRANCH  28  29
ENDBRANCH  27  28
ENDBRANCH   2  25
ENDBRANCH   3   2
TORSDOF 6
ENDMDL
MODEL 5
REMARK VINA RESULT:     -12.9      3.057      4.907
REMARK  Name = 
REMARK  6 active torsions:
REMARK  status: ('A' for Active; 'I' for Inactive)
REMARK    1  A    between atoms: C_2  and  C_3
REMARK    2  A    between atoms: C_2  and  C_25
REMARK    3  A    between atoms: C_10  and  N_11
REMARK    4  A    between atoms: C_12  and  C_14
REMARK    5  A    between atoms: N_27  and  C_28
REMARK    6  A    between atoms: C_28  and  C_29
REMARK                            x       y       z     vdW  Elec       q    Type
REMARK                         _______ _______ _______ _____ _____    ______ ____
ROOT
ATOM      3  C   UNL     1      -0.070   0.621  23.971  0.00  0.00    +0.039 C 
ATOM      4  C   UNL     1       0.334   1.340  24.016  0.00  0.00    +0.003 C 
ATOM      5  C   UNL     1      -0.061   2.019  24.264  0.00  0.00    +0.000 C 
ATOM      6  C   UNL     1      -0.859   1.982  24.467  0.00  0.00    +0.002 C 
ATOM      7  C   UNL     1      -0.456   2.699  24.512  0.00  0.00    +0.000 C 
ATOM      8  C   UNL     1      -1.255   2.662  24.715  0.00  0.00    +0.002 C 
ATOM      9  C   UNL     1      -2.053   2.624  24.918  0.00  0.00    +0.022 C 
ATOM     10  C   UNL     1      -2.457   1.905  24.873  0.00  0.00    +0.095 C 
ATOM     20  C   UNL     1      -2.062   1.225  24.625  0.00  0.00    +0.022 C 
ATOM     21  C   UNL     1      -2.465   0.507  24.580  0.00  0.00    +0.002 C 
ATOM     22  C   UNL     1      -1.263   1.263  24.422  0.00  0.00    +0.032 C 
ATOM     23  C   UNL     1      -0.868   0.583  24.174  0.00  0.00    +0.152 C 
ATOM     24  O   UNL     1      -1.271  -0.135  24.129  0.00  0.00    -0.223 OA
ENDROOT
BRANCH  10  11
ATOM     11  N   UNL     1      -3.256   1.868  25.076  0.00  0.00    -0.207 NA
ATOM     12  C   UNL     1      -3.768   2.472  24.849  0.00  0.00    +0.241 C 
ATOM     13  O   UNL     1      -3.482   3.116  24.418  0.00  0.00    -0.273 OA
BRANCH  12  14
ATOM     14  C   UNL     1      -4.567   2.435  25.052  0.00  0.00    +0.078 C 
ATOM     15  C   UNL     1      -5.066   1.903  24.669  0.00  0.00    +0.009 C 
ATOM     16  C   UNL     1      -5.865   1.866  24.872  0.00  0.00    +0.000 C 
ATOM     17  C   UNL     1      -6.164   2.362  25.460  0.00  0.00    +0.000 C 
ATOM     18  C   UNL     1      -5.664   2.895  25.844  0.00  0.00    +0.000 C 
ATOM     19  C   UNL     1      -4.866   2.931  25.640  0.00  0.00    +0.009 C 
ENDBRANCH  12  14
ENDBRANCH  10  11
BRANCH   3   2
ATOM      1  C   UNL     1       0.178  -0.783  24.092  0.00  0.00    +0.010 C 
ATOM      2  C   UNL     1       0.326  -0.060  23.723  0.00  0.00    +0.081 C 
BRANCH   2  25
ATOM     25  C   UNL     1       0.871  -0.017  23.105  0.00  0.00    +0.241 C 
ATOM     26  O   UNL     1       0.607   0.024  22.323  0.00  0.00    -0.273 OA
ATOM     27  N   UNL     1       1.681  -0.015  23.267  0.00  0.00    -0.201 NA
BRANCH  27  28
ATOM     28  C   UNL     1       2.225   0.028  22.650  0.00  0.00    +0.142 C 
BRANCH  28  29
ATOM     29  C   UNL     1       3.028   0.117  22.813  0.00  0.00    +0.004 A 
ATOM     30  C   UNL     1       3.457  -0.511  23.133  0.00  0.00    +0.027 A 
ATOM     31  C   UNL     1       4.260  -0.422  23.296  0.00  0.00    +0.142 A 
ATOM     32  F   UNL     1       4.688  -1.051  23.617  0.00  0.00    -0.204 F 
ATOM     33  C   UNL     1       4.636   0.295  23.139  0.00  0.00    +0.059 A 
ATOM     34  C   UNL     1       4.208   0.923  22.818  0.00  0.00    +0.142 A 
ATOM     35  F   UNL     1       4.583   1.641  22.660  0.00  0.00    -0.204 F 
ATOM     36  C   UNL     1       3.404   0.834  22.655  0.00  0.00    +0.027 A 
ENDBRANCH  28  29
ENDBRANCH  27  28
ENDBRANCH   2  25
ENDBRANCH   3   2
TORSDOF 6
ENDMDL
MODEL 6
REMARK VINA RESULT:     -12.4      2.314      5.222
REMARK  Name = 
REMARK  6 active torsions:
REMARK  status: ('A' for Active; 'I' for Inactive)
REMARK    1  A    between atoms: C_2  and  C_3
REMARK    2  A    between atoms: C_2  and  C_25
REMARK    3  A    between atoms: C_10  and  N_11
REMARK    4  A    between atoms: C_12  and  C_14
REMARK    5  A    between atoms: N_27  and  C_28
REMARK    6  A    between atoms: C_28  and  C_29
REMARK                            x       y       z     vdW  Elec       q    Type
REMARK                         _______ _______ _______ _____ _____    ______ ____
ROOT
ATOM      3  C   UNL     1      -0.586   0.892  24.416  0.00  0.00    +0.039 C 
ATOM      4  C   UNL     1      -0.043   1.237  24.934  0.00  0.00    +0.003 C 
ATOM      5  C   UNL     1      -0.250   1.913  25.358  0.00  0.00    +0.000 C 
ATOM      6  C   UNL     1      -1.000   2.244  25.266  0.00  0.00    +0.002 C 
ATOM      7  C   UNL     1      -0.458   2.589  25.782  0.00  0.00    +0.000 C 
ATOM      8  C   UNL     1      -1.208   2.920  25.691  0.00  0.00    +0.002 C 
ATOM      9  C   UNL     1      -1.957   3.251  25.600  0.00  0.00    +0.022 C 
ATOM     10  C   UNL     1      -2.501   2.906  25.082  0.00  0.00    +0.095 C 
ATOM     20  C   UNL     1      -2.293   2.230  24.658  0.00  0.00    +0.022 C 
ATOM     21  C   UNL     1      -2.836   1.885  24.141  0.00  0.00    +0.002 C 
ATOM     22  C   UNL     1      -1.543   1.898  24.749  0.00  0.00    +0.032 C 
ATOM     23  C   UNL     1      -1.336   1.223  24.325  0.00  0.00    +0.152 C 
ATOM     24  O   UNL     1      -1.879   0.878  23.808  0.00  0.00    -0.223 OA
ENDROOT
BRANCH  10  11
ATOM     11  N   UNL     1      -3.251   3.237  24.991  0.00  0.00    -0.207 NA
ATOM     12  C   UNL     1      -3.718   3.391  25.653  0.00  0.00    +0.241 C 
ATOM     13  O   UNL     1      -3.435   3.212  26.408  0.00  0.00    -0.273 OA
BRANCH  12  14
ATOM     14  C   UNL     1      -4.468   3.722  25.561  0.00  0.00    +0.078 C 
ATOM     15  C   UNL     1      -4.546   4.501  25.304  0.00  0.00    +0.009 C 
ATOM     16  C   UNL     1      -5.296   4.833  25.212  0.00  0.00    +0.000 C 
ATOM     17  C   UNL     1      -5.968   4.384  25.379  0.00  0.00    +0.000 C 
ATOM     18  C   UNL     1      -5.890   3.604  25.637  0.00  0.00    +0.000 C 
ATOM     19  C   UNL     1      -5.140   3.273  25.728  0.00  0.00    +0.009 C 
ENDBRANCH  12  14
ENDBRANCH  10  11
BRANCH   3   2
ATOM      1  C   UNL     1      -0.088   0.283  23.222  0.00  0.00    +0.010 C 
ATOM      2  C   UNL     1      -0.379   0.216  23.992  0.00  0.00    +0.081 C 
BRANCH   2  25
ATOM     25  C   UNL     1      -0.461  -0.529  24.337  0.00  0.00    +0.241 C 
ATOM     26  O   UNL     1       0.187  -0.890  24.700  0.00  0.00    -0.273 OA
ATOM     27  N   UNL     1      -1.192  -0.914  24.320  0.00  0.00    -0.201 NA
BRANCH  27  28
ATOM     28  C   UNL     1      -1.274  -1.658  24.665  0.00  0.00    +0.142 C 
BRANCH  28  29
ATOM     29  C   UNL     1      -2.025  -1.974  24.789  0.00  0.00    +0.004 A 
ATOM     30  C   UNL     1      -2.470  -1.737  25.442  0.00  0.00    +0.027 A 
ATOM     31  C   UNL     1      -3.221  -2.054  25.566  0.00  0.00    +0.142 A 
ATOM     32  F   UNL     1      -3.667  -1.817  26.219  0.00  0.00    -0.204 F 
ATOM     33  C   UNL     1      -3.528  -2.608  25.037  0.00  0.00    +0.059 A 
ATOM     34  C   UNL     1      -3.083  -2.845  24.384  0.00  0.00    +0.142 A 
ATOM     35  F   UNL     1      -3.389  -3.399  23.854  0.00  0.00    -0.204 F 
ATOM     36  C   UNL     1      -2.331  -2.528  24.260  0.00  0.00    +0.027 A 
ENDBRANCH  28  29
ENDBRANCH  27  28
ENDBRANCH   2  25
ENDBRANCH   3   2
TORSDOF 6
ENDMDL
MODEL 7
REMARK VINA RESULT:     -12.3      2.465      4.891
REMARK  Name = 
REMARK  6 active torsions:
REMARK  status: ('A' for Active; 'I' for Inactive)
REMARK    1  A    between atoms: C_2  and  C_3
REMARK    2  A    between atoms: C_2  and  C_25
REMARK    3  A    between atoms: C_10  and  N_11
REMARK    4  A    between atoms: C_12  and  C_14
REMARK    5  A    between atoms: N_27  and  C_28
REMARK    6  A    between atoms: C_28  and  C_29
REMARK                            x       y       z     vdW  Elec       q    Type
REMARK                         _______ _______ _______ _____ _____    ______ ____
ROOT
ATOM      3  C   UNL     1      -2.844   2.569  24.638  0.00  0.00    +0.039 C 
ATOM      4  C   UNL     1      -2.645   2.907  25.365  0.00  0.00    +0.003 C 
ATOM      5  C   UNL     1      -1.856   2.946  25.599  0.00  0.00    +0.000 C 
ATOM      6  C   UNL     1      -1.265   2.649  25.107  0.00  0.00    +0.002 C 
ATOM      7  C   UNL     1      -1.066   2.985  25.833  0.00  0.00    +0.000 C 
ATOM      8  C   UNL     1      -0.474   2.688  25.341  0.00  0.00    +0.002 C 
ATOM      9  C   UNL     1       0.117   2.390  24.849  0.00  0.00    +0.022 C 
ATOM     10  C   UNL     1      -0.082   2.053  24.122  0.00  0.00    +0.095 C 
ATOM     20  C   UNL     1      -0.871   2.014  23.888  0.00  0.00    +0.022 C 
ATOM     21  C   UNL     1      -1.070   1.677  23.162  0.00  0.00    +0.002 C 
ATOM     22  C   UNL     1      -1.463   2.311  24.380  0.00  0.00    +0.032 C 
ATOM     23  C   UNL     1      -2.253   2.272  24.146  0.00  0.00    +0.152 C 
ATOM     24  O   UNL     1      -2.452   1.935  23.420  0.00  0.00    -0.223 OA
ENDROOT
BRANCH  10  11
ATOM     11  N   UNL     1       0.510   1.756  23.630  0.00  0.00    -0.207 NA
ATOM     12  C   UNL     1       0.951   1.099  23.864  0.00  0.00    +0.241 C 
ATOM     13  O   UNL     1       0.799   0.739  24.592  0.00  0.00    -0.273 OA
BRANCH  12  14
ATOM     14  C   UNL     1       1.543   0.802  23.372  0.00  0.00    +0.078 C 
ATOM     15  C   UNL     1       2.289   1.151  23.367  0.00  0.00    +0.009 C 
ATOM     16  C   UNL     1       2.881   0.854  22.875  0.00  0.00    +0.000 C 
ATOM     17  C   UNL     1       2.726   0.206  22.389  0.00  0.00    +0.000 C 
ATOM     18  C   UNL     1       1.978  -0.144  22.394  0.00  0.00    +0.000 C 
ATOM     19  C   UNL     1       1.387   0.154  22.886  0.00  0.00    +0.009 C 
ENDBRANCH  12  14
ENDBRANCH  10  11
BRANCH   3   2
ATOM      1  C   UNL     1      -3.928   3.063  23.847  0.00  0.00    +0.010 C 
ATOM      2  C   UNL     1      -3.635   2.530  24.404  0.00  0.00    +0.081 C 
BRANCH   2  25
ATOM     25  C   UNL     1      -4.132   1.957  24.728  0.00  0.00    +0.241 C 
ATOM     26  O   UNL     1      -4.732   2.179  25.250  0.00  0.00    -0.273 OA
ATOM     27  N   UNL     1      -4.030   1.162  24.530  0.00  0.00    -0.201 NA
BRANCH  27  28
ATOM     28  C   UNL     1      -4.527   0.590  24.854  0.00  0.00    +0.142 C 
BRANCH  28  29
ATOM     29  C   UNL     1      -4.316  -0.207  24.821  0.00  0.00    +0.004 A 
ATOM     30  C   UNL     1      -4.444  -0.640  24.131  0.00  0.00    +0.027 A 
ATOM     31  C   UNL     1      -4.232  -1.436  24.099  0.00  0.00    +0.142 A 
ATOM     32  F   UNL     1      -4.360  -1.870  23.408  0.00  0.00    -0.204 F 
ATOM     33  C   UNL     1      -3.893  -1.800  24.757  0.00  0.00    +0.059 A 
ATOM     34  C   UNL     1      -3.765  -1.367  25.448  0.00  0.00    +0.142 A 
ATOM     35  F   UNL     1      -3.426  -1.730  26.106  0.00  0.00    -0.204 F 
ATOM     36  C   UNL     1      -3.977  -0.569  25.480  0.00  0.00    +0.027 A 
ENDBRANCH  28  29
ENDBRANCH  27  28
ENDBRANCH   2  25
ENDBRANCH   3   2
TORSDOF 6
ENDMDL
MODEL 8
REMARK VINA RESULT:     -12.1      2.286      4.525
REMARK  Name = 
REMARK  6 active torsions:
REMARK  status: ('A' for Active; 'I' for Inactive)
REMARK    1  A    between atoms: C_2  and  C_3
REMARK    2  A    between atoms: C_2  and  C_25
REMARK    3  A    between atoms: C_10  and  N_11
REMARK    4  A    between atoms: C_12  and  C_14
REMARK    5  A    between atoms: N_27  and  C_28
REMARK    6  A    between atoms: C_28  and  C_29
REMARK                            x       y       z     vdW  Elec       q    Type
REMARK                         _______ _______ _______ _____ _____    ______ ____
ROOT
ATOM      3  C   UNL     1      -1.874  -1.242  24.715  0.00  0.00    +0.039 C 
ATOM      4  C   UNL     1      -2.387  -1.803  24.393  0.00  0.00    +0.003 C 
ATOM      5  C   UNL     1      -3.192  -1.637  24.330  0.00  0.00    +0.000 C 
ATOM      6  C   UNL     1      -3.485  -0.911  24.589  0.00  0.00    +0.002 C 
ATOM      7  C   UNL     1      -3.997  -1.471  24.267  0.00  0.00    +0.000 C 
ATOM      8  C   UNL     1      -4.291  -0.745  24.526  0.00  0.00    +0.002 C 
ATOM      9  C   UNL     1      -4.584  -0.019  24.785  0.00  0.00    +0.022 C 
ATOM     10  C   UNL     1      -4.070   0.542  25.107  0.00  0.00    +0.095 C 
ATOM     20  C   UNL     1      -3.265   0.376  25.170  0.00  0.00    +0.022 C 
ATOM     21  C   UNL     1      -2.753   0.937  25.492  0.00  0.00    +0.002 C 
ATOM     22  C   UNL     1      -2.972  -0.350  24.911  0.00  0.00    +0.032 C 
ATOM     23  C   UNL     1      -2.167  -0.516  24.974  0.00  0.00    +0.152 C 
ATOM     24  O   UNL     1      -1.654   0.044  25.296  0.00  0.00    -0.223 OA
ENDROOT
BRANCH  10  11
ATOM     11  N   UNL     1      -4.364   1.269  25.366  0.00  0.00    -0.207 NA
ATOM     12  C   UNL     1      -4.782   1.754  24.847  0.00  0.00    +0.241 C 
ATOM     13  O   UNL     1      -4.907   1.513  24.067  0.00  0.00    -0.273 OA
BRANCH  12  14
ATOM     14  C   UNL     1      -5.076   2.480  25.106  0.00  0.00    +0.078 C 
ATOM     15  C   UNL     1      -5.792   2.515  25.514  0.00  0.00    +0.009 C 
ATOM     16  C   UNL     1      -6.085   3.241  25.773  0.00  0.00    +0.000 C 
ATOM     17  C   UNL     1      -5.662   3.933  25.623  0.00  0.00    +0.000 C 
ATOM     18  C   UNL     1      -4.945   3.899  25.215  0.00  0.00    +0.000 C 
ATOM     19  C   UNL     1      -4.653   3.172  24.957  0.00  0.00    +0.009 C 
ENDBRANCH  12  14
ENDBRANCH  10  11
BRANCH   3   2
ATOM      1  C   UNL     1      -0.741  -1.598  25.512  0.00  0.00    +0.010 C 
ATOM      2  C   UNL     1      -1.068  -1.409  24.778  0.00  0.00    +0.081 C 
BRANCH   2  25
ATOM     25  C   UNL     1      -0.589  -1.386  24.107  0.00  0.00    +0.241 C 
ATOM     26  O   UNL     1      -0.633  -1.992  23.547  0.00  0.00    -0.273 OA
ATOM     27  N   UNL     1      -0.066  -0.758  23.994  0.00  0.00    -0.201 NA
BRANCH  27  28
ATOM     28  C   UNL     1       0.413  -0.735  23.323  0.00  0.00    +0.142 C 
BRANCH  28  29
ATOM     29  C   UNL     1       0.993  -0.153  23.249  0.00  0.00    +0.004 A 
ATOM     30  C   UNL     1       0.872   0.594  23.577  0.00  0.00    +0.027 A 
ATOM     31  C   UNL     1       1.453   1.175  23.503  0.00  0.00    +0.142 A 
ATOM     32  F   UNL     1       1.332   1.923  23.831  0.00  0.00    -0.204 F 
ATOM     33  C   UNL     1       2.154   1.010  23.101  0.00  0.00    +0.059 A 
ATOM     34  C   UNL     1       2.274   0.262  22.773  0.00  0.00    +0.142 A 
ATOM     35  F   UNL     1       2.975   0.096  22.370  0.00  0.00    -0.204 F 
ATOM     36  C   UNL     1       1.693  -0.320  22.847  0.00  0.00    +0.027 A 
ENDBRANCH  28  29
ENDBRANCH  27  28
ENDBRANCH   2  25
ENDBRANCH   3   2
TORSDOF 6
ENDMDL
