MODEL 1
REMARK VINA RESULT:     -12.1      0.000      0.000
REMARK  Name = 
REMARK  3 active torsions:
REMARK  status: ('A' for Active; 'I' for Inactive)
REMARK    1  A    between atoms: C_5  and  C_6
REMARK    2  A    between atoms: C_6  and  N_7
REMARK    3  A    between atoms: C_17  and  C_19
REMARK                            x       y       z     vdW  Elec       q    Type
REMARK                         _______ _______ _______ _____ _____    ______ ____
ROOT
ATOM      7  N   UNL     1      -3.997   1.009  24.695  0.00  0.00    -0.258 N 
ATOM      8  C   UNL     1      -3.174   1.025  24.767  0.00  0.00    +0.117 C 
ATOM      9  C   UNL     1      -2.940   1.814  24.817  0.00  0.00    +0.116 C 
ATOM     10  C   UNL     1      -2.197   2.166  24.894  0.00  0.00    +0.115 C 
ATOM     11  N   UNL     1      -2.130   2.987  24.930  0.00  0.00    -0.276 N 
ATOM     12  C   UNL     1      -2.807   3.457  24.890  0.00  0.00    +0.115 C 
ATOM     13  C   UNL     1      -3.550   3.107  24.812  0.00  0.00    +0.116 C 
ATOM     14  N   UNL     1      -3.616   2.285  24.776  0.00  0.00    -0.261 N 
ATOM     15  C   UNL     1      -4.269   1.787  24.701  0.00  0.00    +0.308 C 
ATOM     16  O   UNL     1      -5.057   2.026  24.642  0.00  0.00    -0.252 OA
ATOM     17  C   UNL     1      -1.388   3.338  25.008  0.00  0.00    +0.225 C 
ATOM     18  O   UNL     1      -0.712   2.867  25.049  0.00  0.00    -0.275 OA
ENDROOT
BRANCH  17  19
ATOM     19  C   UNL     1      -1.321   4.159  25.044  0.00  0.00    +0.077 C 
ATOM     20  C   UNL     1      -1.542   4.880  25.380  0.00  0.00    +0.010 C 
ATOM     21  C   UNL     1      -0.985   4.862  24.772  0.00  0.00    +0.010 C 
ENDBRANCH  17  19
BRANCH   7   6
ATOM      6  C   UNL     1      -4.464   0.332  24.630  0.00  0.00    +0.122 C 
BRANCH   6   5
ATOM      1  F   UNL     1      -3.120  -2.652  25.055  0.00  0.00    -0.204 F 
ATOM      2  C   UNL     1      -3.456  -1.906  24.950  0.00  0.00    +0.140 A 
ATOM      3  C   UNL     1      -3.600  -1.422  25.601  0.00  0.00    +0.029 A 
ATOM      4  C   UNL     1      -3.936  -0.676  25.495  0.00  0.00    -0.000 A 
ATOM      5  C   UNL     1      -4.128  -0.414  24.737  0.00  0.00    -0.002 A 
ATOM     22  C   UNL     1      -3.983  -0.898  24.084  0.00  0.00    -0.000 A 
ATOM     23  C   UNL     1      -3.647  -1.644  24.191  0.00  0.00    +0.029 A 
ENDBRANCH   6   5
ENDBRANCH   7   6
TORSDOF 3
ENDMDL
MODEL 2
REMARK VINA RESULT:     -11.7      2.013      4.607
REMARK  Name = 
REMARK  3 active torsions:
REMARK  status: ('A' for Active; 'I' for Inactive)
REMARK    1  A    between atoms: C_5  and  C_6
REMARK    2  A    between atoms: C_6  and  N_7
REMARK    3  A    between atoms: C_17  and  C_19
REMARK                            x       y       z     vdW  Elec       q    Type
REMARK                         _______ _______ _______ _____ _____    ______ ____
ROOT
ATOM      7  N   UNL     1      -4.019   2.171  24.744  0.00  0.00    -0.258 N 
ATOM      8  C   UNL     1      -3.311   1.754  24.666  0.00  0.00    +0.117 C 
ATOM      9  C   UNL     1      -3.486   0.949  24.692  0.00  0.00    +0.116 C 
ATOM     10  C   UNL     1      -3.008   0.278  24.643  0.00  0.00    +0.115 C 
ATOM     11  N   UNL     1      -3.344  -0.473  24.687  0.00  0.00    -0.276 N 
ATOM     12  C   UNL     1      -4.160  -0.554  24.781  0.00  0.00    +0.115 C 
ATOM     13  C   UNL     1      -4.639   0.115  24.831  0.00  0.00    +0.116 C 
ATOM     14  N   UNL     1      -4.301   0.868  24.786  0.00  0.00    -0.261 N 
ATOM     15  C   UNL     1      -4.631   1.623  24.818  0.00  0.00    +0.308 C 
ATOM     16  O   UNL     1      -5.432   1.799  24.909  0.00  0.00    -0.252 OA
ATOM     17  C   UNL     1      -2.867  -1.144  24.637  0.00  0.00    +0.225 C 
ATOM     18  O   UNL     1      -2.051  -1.063  24.543  0.00  0.00    -0.275 OA
ENDROOT
BRANCH  17  19
ATOM     19  C   UNL     1      -3.203  -1.895  24.682  0.00  0.00    +0.077 C 
ATOM     20  C   UNL     1      -3.564  -2.539  24.314  0.00  0.00    +0.010 C 
ATOM     21  C   UNL     1      -3.427  -2.553  25.128  0.00  0.00    +0.010 C 
ENDBRANCH  17  19
BRANCH   7   6
ATOM      6  C   UNL     1      -4.101   2.992  24.747  0.00  0.00    +0.122 C 
BRANCH   6   5
ATOM      1  F   UNL     1      -1.620   4.895  25.803  0.00  0.00    -0.204 F 
ATOM      2  C   UNL     1      -2.241   4.419  25.539  0.00  0.00    +0.140 A 
ATOM      3  C   UNL     1      -2.809   4.150  26.072  0.00  0.00    +0.029 A 
ATOM      4  C   UNL     1      -3.430   3.674  25.808  0.00  0.00    -0.000 A 
ATOM      5  C   UNL     1      -3.481   3.468  25.011  0.00  0.00    -0.002 A 
ATOM     22  C   UNL     1      -2.912   3.737  24.478  0.00  0.00    -0.000 A 
ATOM     23  C   UNL     1      -2.292   4.213  24.742  0.00  0.00    +0.029 A 
ENDBRANCH   6   5
ENDBRANCH   7   6
TORSDOF 3
ENDMDL
MODEL 3
REMARK VINA RESULT:     -11.2      2.121      5.020
REMARK  Name = 
REMARK  3 active torsions:
REMARK  status: ('A' for Active; 'I' for Inactive)
REMARK    1  A    between atoms: C_5  and  C_6
REMARK    2  A    between atoms: C_6  and  N_7
REMARK    3  A    between atoms: C_17  and  C_19
REMARK                            x       y       z     vdW  Elec       q    Type
REMARK                         _______ _______ _______ _____ _____    ______ ____
ROOT
ATOM      7  N   UNL     1      -1.258   1.806  25.391  0.00  0.00    -0.258 N 
ATOM      8  C   UNL     1      -2.081   1.821  25.339  0.00  0.00    +0.117 C 
ATOM      9  C   UNL     1      -2.333   1.081  25.078  0.00  0.00    +0.116 C 
ATOM     10  C   UNL     1      -3.084   0.775  24.925  0.00  0.00    +0.115 C 
ATOM     11  N   UNL     1      -3.168  -0.002  24.663  0.00  0.00    -0.276 N 
ATOM     12  C   UNL     1      -2.501  -0.475  24.554  0.00  0.00    +0.115 C 
ATOM     13  C   UNL     1      -1.750  -0.170  24.706  0.00  0.00    +0.116 C 
ATOM     14  N   UNL     1      -1.666   0.608  24.969  0.00  0.00    -0.261 N 
ATOM     15  C   UNL     1      -1.001   1.056  25.162  0.00  0.00    +0.308 C 
ATOM     16  O   UNL     1      -0.218   0.800  25.132  0.00  0.00    -0.252 OA
ATOM     17  C   UNL     1      -3.919  -0.308  24.510  0.00  0.00    +0.225 C 
ATOM     18  O   UNL     1      -4.587   0.165  24.620  0.00  0.00    -0.275 OA
ENDROOT
BRANCH  17  19
ATOM     19  C   UNL     1      -4.003  -1.085  24.249  0.00  0.00    +0.077 C 
ATOM     20  C   UNL     1      -4.003  -1.895  24.404  0.00  0.00    +0.010 C 
ATOM     21  C   UNL     1      -4.150  -1.622  23.639  0.00  0.00    +0.010 C 
ENDBRANCH  17  19
BRANCH   7   6
ATOM      6  C   UNL     1      -0.775   2.431  25.631  0.00  0.00    +0.122 C 
BRANCH   6   5
ATOM      1  F   UNL     1      -1.588   5.535  24.858  0.00  0.00    -0.204 F 
ATOM      2  C   UNL     1      -1.385   4.759  25.052  0.00  0.00    +0.140 A 
ATOM      3  C   UNL     1      -1.750   4.383  25.689  0.00  0.00    +0.029 A 
ATOM      4  C   UNL     1      -1.547   3.607  25.883  0.00  0.00    -0.000 A 
ATOM      5  C   UNL     1      -0.979   3.207  25.438  0.00  0.00    -0.002 A 
ATOM     22  C   UNL     1      -0.614   3.582  24.800  0.00  0.00    -0.000 A 
ATOM     23  C   UNL     1      -0.817   4.358  24.608  0.00  0.00    +0.029 A 
ENDBRANCH   6   5
ENDBRANCH   7   6
TORSDOF 3
ENDMDL
MODEL 4
REMARK VINA RESULT:     -10.9      1.922      2.589
REMARK  Name = 
REMARK  3 active torsions:
REMARK  status: ('A' for Active; 'I' for Inactive)
REMARK    1  A    between atoms: C_5  and  C_6
REMARK    2  A    between atoms: C_6  and  N_7
REMARK    3  A    between atoms: C_17  and  C_19
REMARK                            x       y       z     vdW  Elec       q    Type
REMARK                         _______ _______ _______ _____ _____    ______ ____
ROOT
ATOM      7  N   UNL     1      -3.615   0.060  23.909  0.00  0.00    -0.258 N 
ATOM      8  C   UNL     1      -4.236   0.130  24.448  0.00  0.00    +0.117 C 
ATOM      9  C   UNL     1      -4.358   0.932  24.592  0.00  0.00    +0.116 C 
ATOM     10  C   UNL     1      -4.895   1.331  25.075  0.00  0.00    +0.115 C 
ATOM     11  N   UNL     1      -4.888   2.155  25.109  0.00  0.00    -0.276 N 
ATOM     12  C   UNL     1      -4.343   2.581  24.659  0.00  0.00    +0.115 C 
ATOM     13  C   UNL     1      -3.805   2.183  24.176  0.00  0.00    +0.116 C 
ATOM     14  N   UNL     1      -3.813   1.358  24.143  0.00  0.00    -0.261 N 
ATOM     15  C   UNL     1      -3.354   0.819  23.720  0.00  0.00    +0.308 C 
ATOM     16  O   UNL     1      -2.741   1.006  23.201  0.00  0.00    -0.252 OA
ATOM     17  C   UNL     1      -5.425   2.554  25.592  0.00  0.00    +0.225 C 
ATOM     18  O   UNL     1      -5.970   2.128  26.041  0.00  0.00    -0.275 OA
ENDROOT
BRANCH  17  19
ATOM     19  C   UNL     1      -5.417   3.377  25.626  0.00  0.00    +0.077 C 
ATOM     20  C   UNL     1      -5.032   4.081  25.818  0.00  0.00    +0.010 C 
ATOM     21  C   UNL     1      -5.790   4.102  25.491  0.00  0.00    +0.010 C 
ENDBRANCH  17  19
BRANCH   7   6
ATOM      6  C   UNL     1      -3.309  -0.646  23.610  0.00  0.00    +0.122 C 
BRANCH   6   5
ATOM      1  F   UNL     1      -3.552  -3.427  25.371  0.00  0.00    -0.204 F 
ATOM      2  C   UNL     1      -3.490  -2.731  24.931  0.00  0.00    +0.140 A 
ATOM      3  C   UNL     1      -2.880  -2.199  25.083  0.00  0.00    +0.029 A 
ATOM      4  C   UNL     1      -2.819  -1.503  24.643  0.00  0.00    -0.000 A 
ATOM      5  C   UNL     1      -3.369  -1.341  24.051  0.00  0.00    -0.002 A 
ATOM     22  C   UNL     1      -3.981  -1.874  23.898  0.00  0.00    -0.000 A 
ATOM     23  C   UNL     1      -4.041  -2.569  24.338  0.00  0.00    +0.029 A 
ENDBRANCH   6   5
ENDBRANCH   7   6
TORSDOF 3
ENDMDL
MODEL 5
REMARK VINA RESULT:     -10.8      1.523      2.107
REMARK  Name = 
REMARK  3 active torsions:
REMARK  status: ('A' for Active; 'I' for Inactive)
REMARK    1  A    between atoms: C_5  and  C_6
REMARK    2  A    between atoms: C_6  and  N_7
REMARK    3  A    between atoms: C_17  and  C_19
REMARK                            x       y       z     vdW  Elec       q    Type
REMARK                         _______ _______ _______ _____ _____    ______ ____
ROOT
ATOM      7  N   UNL     1      -2.444  -0.418  25.506  0.00  0.00    -0.258 N 
ATOM      8  C   UNL     1      -2.822   0.228  25.159  0.00  0.00    +0.117 C 
ATOM      9  C   UNL     1      -2.284   0.852  25.130  0.00  0.00    +0.116 C 
ATOM     10  C   UNL     1      -2.348   1.625  24.847  0.00  0.00    +0.115 C 
ATOM     11  N   UNL     1      -1.703   2.136  24.893  0.00  0.00    -0.276 N 
ATOM     12  C   UNL     1      -0.993   1.876  25.222  0.00  0.00    +0.115 C 
ATOM     13  C   UNL     1      -0.928   1.104  25.506  0.00  0.00    +0.116 C 
ATOM     14  N   UNL     1      -1.574   0.592  25.460  0.00  0.00    -0.261 N 
ATOM     15  C   UNL     1      -1.672  -0.193  25.692  0.00  0.00    +0.308 C 
ATOM     16  O   UNL     1      -1.100  -0.669  26.048  0.00  0.00    -0.252 OA
ATOM     17  C   UNL     1      -1.768   2.909  24.610  0.00  0.00    +0.225 C 
ATOM     18  O   UNL     1      -2.478   3.169  24.280  0.00  0.00    -0.275 OA
ENDROOT
BRANCH  17  19
ATOM     19  C   UNL     1      -1.123   3.420  24.655  0.00  0.00    +0.077 C 
ATOM     20  C   UNL     1      -0.385   3.667  24.380  0.00  0.00    +0.010 C 
ATOM     21  C   UNL     1      -0.743   4.062  25.011  0.00  0.00    +0.010 C 
ENDBRANCH  17  19
BRANCH   7   6
ATOM      6  C   UNL     1      -2.779  -1.160  25.643  0.00  0.00    +0.122 C 
BRANCH   6   5
ATOM      1  F   UNL     1      -4.529  -2.647  23.273  0.00  0.00    -0.204 F 
ATOM      2  C   UNL     1      -4.092  -2.274  23.866  0.00  0.00    +0.140 A 
ATOM      3  C   UNL     1      -4.394  -1.608  24.246  0.00  0.00    +0.029 A 
ATOM      4  C   UNL     1      -3.957  -1.236  24.839  0.00  0.00    -0.000 A 
ATOM      5  C   UNL     1      -3.217  -1.531  25.051  0.00  0.00    -0.002 A 
ATOM     22  C   UNL     1      -2.913  -2.198  24.671  0.00  0.00    -0.000 A 
ATOM     23  C   UNL     1      -3.351  -2.569  24.078  0.00  0.00    +0.029 A 
ENDBRANCH   6   5
ENDBRANCH   7   6
TORSDOF 3
ENDMDL
