MODEL 1
REMARK VINA RESULT:     -12.6      0.000      0.000
REMARK  Name = 
REMARK  5 active torsions:
REMARK  status: ('A' for Active; 'I' for Inactive)
REMARK    1  A    between atoms: C_7  and  C_8
REMARK    2  A    between atoms: C_14  and  N_15
REMARK    3  A    between atoms: C_16  and  C_18
REMARK    4  A    between atoms: C_23  and  O_24
REMARK    5  A    between atoms: O_24  and  C_25
REMARK                            x       y       z     vdW  Elec       q    Type
REMARK                         _______ _______ _______ _____ _____    ______ ____
ROOT
ATOM     15  N   UNL     1      -2.262   0.267  24.094  0.00  0.00    -0.200 NA
ATOM     16  C   UNL     1      -2.270   1.059  24.326  0.00  0.00    +0.269 C 
ATOM     17  O   UNL     1      -1.916   1.283  25.036  0.00  0.00    -0.268 OA
ENDROOT
BRANCH  15  14
ATOM      8  C   UNL     1      -2.219  -1.030  24.784  0.00  0.00    +0.047 C 
ATOM      9  C   UNL     1      -1.671  -1.417  25.266  0.00  0.00    +0.042 C 
ATOM     10  C   UNL     1      -1.015  -0.926  25.351  0.00  0.00    +0.184 C 
ATOM     11  O   UNL     1      -0.336  -1.095  25.788  0.00  0.00    -0.220 OA
ATOM     12  C   UNL     1      -1.156  -0.235  24.922  0.00  0.00    +0.202 C 
ATOM     13  O   UNL     1      -0.643   0.408  24.855  0.00  0.00    -0.219 OA
ATOM     14  C   UNL     1      -1.900  -0.300  24.572  0.00  0.00    +0.132 C 
BRANCH   8   7
ATOM      1  C   UNL     1      -3.340  -1.428  25.928  0.00  0.00    +0.031 C 
ATOM      2  C   UNL     1      -3.517  -1.522  25.127  0.00  0.00    -0.026 A 
ATOM      3  C   UNL     1      -4.253  -1.815  24.899  0.00  0.00    -0.005 A 
ATOM      4  C   UNL     1      -4.429  -1.908  24.098  0.00  0.00    -0.000 A 
ATOM      5  C   UNL     1      -3.869  -1.709  23.526  0.00  0.00    -0.000 A 
ATOM      6  C   UNL     1      -3.132  -1.416  23.755  0.00  0.00    -0.005 A 
ATOM      7  C   UNL     1      -2.956  -1.323  24.555  0.00  0.00    -0.025 A 
ENDBRANCH   8   7
ENDBRANCH  15  14
BRANCH  16  18
ATOM     18  C   UNL     1      -2.632   1.625  23.847  0.00  0.00    +0.108 A 
ATOM     19  C   UNL     1      -2.328   1.788  23.098  0.00  0.00    +0.011 A 
ATOM     20  C   UNL     1      -2.689   2.355  22.620  0.00  0.00    +0.021 A 
ATOM     21  C   UNL     1      -3.356   2.758  22.891  0.00  0.00    +0.102 A 
ATOM     22  N   UNL     1      -3.661   2.595  23.640  0.00  0.00    -0.210 NA
ATOM     23  C   UNL     1      -3.299   2.028  24.118  0.00  0.00    +0.234 A 
BRANCH  23  24
ATOM     24  O   UNL     1      -3.604   1.865  24.867  0.00  0.00    -0.436 OA
BRANCH  24  25
ATOM     25  C   UNL     1      -4.349   2.148  25.080  0.00  0.00    +0.147 A 
ATOM     26  C   UNL     1      -4.420   2.871  25.472  0.00  0.00    +0.038 A 
ATOM     27  C   UNL     1      -5.165   3.153  25.684  0.00  0.00    +0.003 A 
ATOM     28  C   UNL     1      -5.840   2.714  25.504  0.00  0.00    +0.000 A 
ATOM     29  C   UNL     1      -5.769   1.991  25.112  0.00  0.00    +0.003 A 
ATOM     30  C   UNL     1      -5.024   1.709  24.900  0.00  0.00    +0.038 A 
ENDBRANCH  24  25
ENDBRANCH  23  24
ENDBRANCH  16  18
TORSDOF 5
ENDMDL
MODEL 2
REMARK VINA RESULT:     -12.2      1.194      4.455
REMARK  Name = 
REMARK  5 active torsions:
REMARK  status: ('A' for Active; 'I' for Inactive)
REMARK    1  A    between atoms: C_7  and  C_8
REMARK    2  A    between atoms: C_14  and  N_15
REMARK    3  A    between atoms: C_16  and  C_18
REMARK    4  A    between atoms: C_23  and  O_24
REMARK    5  A    between atoms: O_24  and  C_25
REMARK                            x       y       z     vdW  Elec       q    Type
REMARK                         _______ _______ _______ _____ _____    ______ ____
ROOT
ATOM     15  N   UNL     1      -4.222   0.697  24.317  0.00  0.00    -0.200 NA
ATOM     16  C   UNL     1      -4.158   0.068  24.846  0.00  0.00    +0.269 C 
ATOM     17  O   UNL     1      -4.275   0.195  25.653  0.00  0.00    -0.268 OA
ENDROOT
BRANCH  15  14
ATOM      8  C   UNL     1      -4.017   2.152  24.383  0.00  0.00    +0.047 C 
ATOM      9  C   UNL     1      -4.376   2.774  24.790  0.00  0.00    +0.042 C 
ATOM     10  C   UNL     1      -4.982   2.460  25.252  0.00  0.00    +0.184 C 
ATOM     11  O   UNL     1      -5.485   2.886  25.748  0.00  0.00    -0.220 OA
ATOM     12  C   UNL     1      -4.998   1.644  25.131  0.00  0.00    +0.202 C 
ATOM     13  O   UNL     1      -5.520   1.111  25.485  0.00  0.00    -0.219 OA
ATOM     14  C   UNL     1      -4.402   1.454  24.594  0.00  0.00    +0.132 C 
BRANCH   8   7
ATOM      1  C   UNL     1      -2.586   2.797  24.891  0.00  0.00    +0.031 C 
ATOM      2  C   UNL     1      -2.668   2.540  24.112  0.00  0.00    -0.026 A 
ATOM      3  C   UNL     1      -2.035   2.605  23.587  0.00  0.00    -0.005 A 
ATOM      4  C   UNL     1      -2.118   2.348  22.807  0.00  0.00    -0.000 A 
ATOM      5  C   UNL     1      -2.833   2.025  22.553  0.00  0.00    -0.000 A 
ATOM      6  C   UNL     1      -3.466   1.960  23.079  0.00  0.00    -0.005 A 
ATOM      7  C   UNL     1      -3.384   2.217  23.858  0.00  0.00    -0.025 A 
ENDBRANCH   8   7
ENDBRANCH  15  14
BRANCH  16  18
ATOM     18  C   UNL     1      -3.978  -0.688  24.569  0.00  0.00    +0.108 A 
ATOM     19  C   UNL     1      -4.537  -1.113  24.136  0.00  0.00    +0.011 A 
ATOM     20  C   UNL     1      -4.357  -1.868  23.859  0.00  0.00    +0.021 A 
ATOM     21  C   UNL     1      -3.617  -2.200  24.014  0.00  0.00    +0.102 A 
ATOM     22  N   UNL     1      -3.058  -1.775  24.447  0.00  0.00    -0.210 NA
ATOM     23  C   UNL     1      -3.238  -1.019  24.725  0.00  0.00    +0.234 A 
BRANCH  23  24
ATOM     24  O   UNL     1      -2.679  -0.594  25.158  0.00  0.00    -0.436 OA
BRANCH  24  25
ATOM     25  C   UNL     1      -1.893  -0.844  25.173  0.00  0.00    +0.147 A 
ATOM     26  C   UNL     1      -1.587  -1.197  25.854  0.00  0.00    +0.038 A 
ATOM     27  C   UNL     1      -0.801  -1.448  25.869  0.00  0.00    +0.003 A 
ATOM     28  C   UNL     1      -0.321  -1.345  25.205  0.00  0.00    +0.000 A 
ATOM     29  C   UNL     1      -0.628  -0.993  24.526  0.00  0.00    +0.003 A 
ATOM     30  C   UNL     1      -1.414  -0.742  24.510  0.00  0.00    +0.038 A 
ENDBRANCH  24  25
ENDBRANCH  23  24
ENDBRANCH  16  18
TORSDOF 5
ENDMDL
MODEL 3
REMARK VINA RESULT:     -11.6      1.357      3.897
REMARK  Name = 
REMARK  5 active torsions:
REMARK  status: ('A' for Active; 'I' for Inactive)
REMARK    1  A    between atoms: C_7  and  C_8
REMARK    2  A    between atoms: C_14  and  N_15
REMARK    3  A    between atoms: C_16  and  C_18
REMARK    4  A    between atoms: C_23  and  O_24
REMARK    5  A    between atoms: O_24  and  C_25
REMARK                            x       y       z     vdW  Elec       q    Type
REMARK                         _______ _______ _______ _____ _____    ______ ____
ROOT
ATOM     15  N   UNL     1      -1.250   1.369  24.636  0.00  0.00    -0.200 NA
ATOM     16  C   UNL     1      -1.185   0.689  25.099  0.00  0.00    +0.269 C 
ATOM     17  O   UNL     1      -1.341   0.725  25.908  0.00  0.00    -0.268 OA
ENDROOT
BRANCH  15  14
ATOM      8  C   UNL     1      -2.047   2.603  24.699  0.00  0.00    +0.047 C 
ATOM      9  C   UNL     1      -2.087   3.246  25.215  0.00  0.00    +0.042 C 
ATOM     10  C   UNL     1      -1.536   3.124  25.816  0.00  0.00    +0.184 C 
ATOM     11  O   UNL     1      -1.390   3.632  26.451  0.00  0.00    -0.220 OA
ATOM     12  C   UNL     1      -1.155   2.407  25.673  0.00  0.00    +0.202 C 
ATOM     13  O   UNL     1      -0.563   2.070  26.138  0.00  0.00    -0.219 OA
ATOM     14  C   UNL     1      -1.471   2.084  24.983  0.00  0.00    +0.132 C 
BRANCH   8   7
ATOM      1  C   UNL     1      -3.693   2.626  24.799  0.00  0.00    +0.031 C 
ATOM      2  C   UNL     1      -3.327   2.508  24.070  0.00  0.00    -0.026 A 
ATOM      3  C   UNL     1      -3.783   2.403  23.390  0.00  0.00    -0.005 A 
ATOM      4  C   UNL     1      -3.414   2.285  22.661  0.00  0.00    -0.000 A 
ATOM      5  C   UNL     1      -2.592   2.274  22.611  0.00  0.00    -0.000 A 
ATOM      6  C   UNL     1      -2.136   2.379  23.291  0.00  0.00    -0.005 A 
ATOM      7  C   UNL     1      -2.502   2.497  24.020  0.00  0.00    -0.025 A 
ENDBRANCH   8   7
ENDBRANCH  15  14
BRANCH  16  18
ATOM     18  C   UNL     1      -0.964  -0.027  24.752  0.00  0.00    +0.108 A 
ATOM     19  C   UNL     1      -0.209  -0.114  24.432  0.00  0.00    +0.011 A 
ATOM     20  C   UNL     1       0.012  -0.829  24.086  0.00  0.00    +0.021 A 
ATOM     21  C   UNL     1      -0.522  -1.458  24.059  0.00  0.00    +0.102 A 
ATOM     22  N   UNL     1      -1.278  -1.370  24.379  0.00  0.00    -0.210 NA
ATOM     23  C   UNL     1      -1.499  -0.654  24.726  0.00  0.00    +0.234 A 
BRANCH  23  24
ATOM     24  O   UNL     1      -2.254  -0.567  25.046  0.00  0.00    -0.436 OA
BRANCH  24  25
ATOM     25  C   UNL     1      -2.839  -1.126  24.881  0.00  0.00    +0.147 A 
ATOM     26  C   UNL     1      -2.946  -1.770  25.387  0.00  0.00    +0.038 A 
ATOM     27  C   UNL     1      -3.531  -2.329  25.222  0.00  0.00    +0.003 A 
ATOM     28  C   UNL     1      -4.007  -2.244  24.554  0.00  0.00    +0.000 A 
ATOM     29  C   UNL     1      -3.899  -1.600  24.049  0.00  0.00    +0.003 A 
ATOM     30  C   UNL     1      -3.315  -1.041  24.213  0.00  0.00    +0.038 A 
ENDBRANCH  24  25
ENDBRANCH  23  24
ENDBRANCH  16  18
TORSDOF 5
ENDMDL
MODEL 4
REMARK VINA RESULT:     -11.5      2.290      4.327
REMARK  Name = 
REMARK  5 active torsions:
REMARK  status: ('A' for Active; 'I' for Inactive)
REMARK    1  A    between atoms: C_7  and  C_8
REMARK    2  A    between atoms: C_14  and  N_15
REMARK    3  A    between atoms: C_16  and  C_18
REMARK    4  A    between atoms: C_23  and  O_24
REMARK    5  A    between atoms: O_24  and  C_25
REMARK                            x       y       z     vdW  Elec       q    Type
REMARK                         _______ _______ _______ _____ _____    ______ ____
ROOT
ATOM     15  N   UNL     1      -3.551   3.623  24.968  0.00  0.00    -0.200 NA
ATOM     16  C   UNL     1      -3.071   3.896  25.581  0.00  0.00    +0.269 C 
ATOM     17  O   UNL     1      -3.276   3.741  26.365  0.00  0.00    -0.268 OA
ENDROOT
BRANCH  15  14
ATOM      8  C   UNL     1      -4.471   2.493  24.777  0.00  0.00    +0.047 C 
ATOM      9  C   UNL     1      -5.186   2.258  25.116  0.00  0.00    +0.042 C 
ATOM     10  C   UNL     1      -5.392   2.815  25.687  0.00  0.00    +0.184 C 
ATOM     11  O   UNL     1      -6.067   2.797  26.162  0.00  0.00    -0.220 OA
ATOM     12  C   UNL     1      -4.804   3.395  25.702  0.00  0.00    +0.202 C 
ATOM     13  O   UNL     1      -4.789   4.058  26.193  0.00  0.00    -0.219 OA
ATOM     14  C   UNL     1      -4.236   3.195  25.139  0.00  0.00    +0.132 C 
BRANCH   8   7
ATOM      1  C   UNL     1      -4.055   0.909  24.978  0.00  0.00    +0.031 C 
ATOM      2  C   UNL     1      -3.855   1.302  24.281  0.00  0.00    -0.026 A 
ATOM      3  C   UNL     1      -3.448   0.903  23.684  0.00  0.00    -0.005 A 
ATOM      4  C   UNL     1      -3.249   1.298  22.987  0.00  0.00    -0.000 A 
ATOM      5  C   UNL     1      -3.457   2.089  22.886  0.00  0.00    -0.000 A 
ATOM      6  C   UNL     1      -3.864   2.487  23.483  0.00  0.00    -0.005 A 
ATOM      7  C   UNL     1      -4.064   2.094  24.180  0.00  0.00    -0.025 A 
ENDBRANCH   8   7
ENDBRANCH  15  14
BRANCH  16  18
ATOM     18  C   UNL     1      -2.387   4.324  25.410  0.00  0.00    +0.108 A 
ATOM     19  C   UNL     1      -2.443   5.102  25.142  0.00  0.00    +0.011 A 
ATOM     20  C   UNL     1      -1.759   5.530  24.972  0.00  0.00    +0.021 A 
ATOM     21  C   UNL     1      -1.018   5.179  25.069  0.00  0.00    +0.102 A 
ATOM     22  N   UNL     1      -0.962   4.401  25.337  0.00  0.00    -0.210 NA
ATOM     23  C   UNL     1      -1.647   3.973  25.508  0.00  0.00    +0.234 A 
BRANCH  23  24
ATOM     24  O   UNL     1      -1.590   3.195  25.776  0.00  0.00    -0.436 OA
BRANCH  24  25
ATOM     25  C   UNL     1      -0.867   2.800  25.746  0.00  0.00    +0.147 A 
ATOM     26  C   UNL     1      -0.419   2.707  26.434  0.00  0.00    +0.038 A 
ATOM     27  C   UNL     1       0.304   2.312  26.404  0.00  0.00    +0.003 A 
ATOM     28  C   UNL     1       0.581   2.010  25.687  0.00  0.00    +0.000 A 
ATOM     29  C   UNL     1       0.134   2.104  25.001  0.00  0.00    +0.003 A 
ATOM     30  C   UNL     1      -0.590   2.498  25.030  0.00  0.00    +0.038 A 
ENDBRANCH  24  25
ENDBRANCH  23  24
ENDBRANCH  16  18
TORSDOF 5
ENDMDL
MODEL 5
REMARK VINA RESULT:     -11.5      1.184      4.185
REMARK  Name = 
REMARK  5 active torsions:
REMARK  status: ('A' for Active; 'I' for Inactive)
REMARK    1  A    between atoms: C_7  and  C_8
REMARK    2  A    between atoms: C_14  and  N_15
REMARK    3  A    between atoms: C_16  and  C_18
REMARK    4  A    between atoms: C_23  and  O_24
REMARK    5  A    between atoms: O_24  and  C_25
REMARK                            x       y       z     vdW  Elec       q    Type
REMARK                         _______ _______ _______ _____ _____    ______ ____
ROOT
ATOM     15  N   UNL     1      -2.766   1.688  24.475  0.00  0.00    -0.200 NA
ATOM     16  C   UNL     1      -2.291   1.047  24.266  0.00  0.00    +0.269 C 
ATOM     17  O   UNL     1      -2.196   0.847  23.471  0.00  0.00    -0.268 OA
ENDROOT
BRANCH  15  14
ATOM      8  C   UNL     1      -3.904   2.450  23.941  0.00  0.00    +0.047 C 
ATOM      9  C   UNL     1      -4.061   2.846  23.234  0.00  0.00    +0.042 C 
ATOM     10  C   UNL     1      -3.401   2.769  22.747  0.00  0.00    +0.184 C 
ATOM     11  O   UNL     1      -3.319   3.080  21.987  0.00  0.00    -0.220 OA
ATOM     12  C   UNL     1      -2.835   2.326  23.153  0.00  0.00    +0.202 C 
ATOM     13  O   UNL     1      -2.088   2.117  22.869  0.00  0.00    -0.219 OA
ATOM     14  C   UNL     1      -3.146   2.129  23.890  0.00  0.00    +0.132 C 
BRANCH   8   7
ATOM      1  C   UNL     1      -3.987   3.668  25.051  0.00  0.00    +0.031 C 
ATOM      2  C   UNL     1      -4.457   2.997  25.141  0.00  0.00    -0.026 A 
ATOM      3  C   UNL     1      -4.968   2.934  25.785  0.00  0.00    -0.005 A 
ATOM      4  C   UNL     1      -5.438   2.261  25.874  0.00  0.00    -0.000 A 
ATOM      5  C   UNL     1      -5.397   1.652  25.319  0.00  0.00    -0.000 A 
ATOM      6  C   UNL     1      -4.886   1.716  24.675  0.00  0.00    -0.005 A 
ATOM      7  C   UNL     1      -4.416   2.387  24.585  0.00  0.00    -0.025 A 
ENDBRANCH   8   7
ENDBRANCH  15  14
BRANCH  16  18
ATOM     18  C   UNL     1      -1.911   0.606  24.851  0.00  0.00    +0.108 A 
ATOM     19  C   UNL     1      -1.348   0.964  25.337  0.00  0.00    +0.011 A 
ATOM     20  C   UNL     1      -0.969   0.523  25.921  0.00  0.00    +0.021 A 
ATOM     21  C   UNL     1      -1.151  -0.275  26.020  0.00  0.00    +0.102 A 
ATOM     22  N   UNL     1      -1.714  -0.633  25.534  0.00  0.00    -0.210 NA
ATOM     23  C   UNL     1      -2.094  -0.192  24.949  0.00  0.00    +0.234 A 
BRANCH  23  24
ATOM     24  O   UNL     1      -2.657  -0.550  24.463  0.00  0.00    -0.436 OA
BRANCH  24  25
ATOM     25  C   UNL     1      -2.887  -1.329  24.604  0.00  0.00    +0.147 A 
ATOM     26  C   UNL     1      -2.487  -1.950  24.234  0.00  0.00    +0.038 A 
ATOM     27  C   UNL     1      -2.718  -2.730  24.375  0.00  0.00    +0.003 A 
ATOM     28  C   UNL     1      -3.347  -2.889  24.885  0.00  0.00    +0.000 A 
ATOM     29  C   UNL     1      -3.746  -2.268  25.254  0.00  0.00    +0.003 A 
ATOM     30  C   UNL     1      -3.516  -1.489  25.113  0.00  0.00    +0.038 A 
ENDBRANCH  24  25
ENDBRANCH  23  24
ENDBRANCH  16  18
TORSDOF 5
ENDMDL
MODEL 6
REMARK VINA RESULT:     -11.2      1.648      3.890
REMARK  Name = 
REMARK  5 active torsions:
REMARK  status: ('A' for Active; 'I' for Inactive)
REMARK    1  A    between atoms: C_7  and  C_8
REMARK    2  A    between atoms: C_14  and  N_15
REMARK    3  A    between atoms: C_16  and  C_18
REMARK    4  A    between atoms: C_23  and  O_24
REMARK    5  A    between atoms: O_24  and  C_25
REMARK                            x       y       z     vdW  Elec       q    Type
REMARK                         _______ _______ _______ _____ _____    ______ ____
ROOT
ATOM     15  N   UNL     1      -2.844   1.384  25.314  0.00  0.00    -0.200 NA
ATOM     16  C   UNL     1      -2.288   1.854  24.927  0.00  0.00    +0.269 C 
ATOM     17  O   UNL     1      -2.502   2.270  24.246  0.00  0.00    -0.268 OA
ENDROOT
BRANCH  15  14
ATOM      8  C   UNL     1      -4.049   0.634  24.930  0.00  0.00    +0.047 C 
ATOM      9  C   UNL     1      -4.787   0.834  24.620  0.00  0.00    +0.042 C 
ATOM     10  C   UNL     1      -4.807   1.652  24.519  0.00  0.00    +0.184 C 
ATOM     11  O   UNL     1      -5.442   2.089  24.222  0.00  0.00    -0.220 OA
ATOM     12  C   UNL     1      -4.082   1.957  24.766  0.00  0.00    +0.202 C 
ATOM     13  O   UNL     1      -3.864   2.753  24.761  0.00  0.00    -0.219 OA
ATOM     14  C   UNL     1      -3.614   1.328  25.021  0.00  0.00    +0.132 C 
BRANCH   8   7
ATOM      1  C   UNL     1      -4.023  -0.537  23.768  0.00  0.00    +0.031 C 
ATOM      2  C   UNL     1      -3.779  -0.714  24.536  0.00  0.00    -0.026 A 
ATOM      3  C   UNL     1      -3.522  -1.475  24.722  0.00  0.00    -0.005 A 
ATOM      4  C   UNL     1      -3.278  -1.651  25.491  0.00  0.00    -0.000 A 
ATOM      5  C   UNL     1      -3.291  -1.066  26.072  0.00  0.00    -0.000 A 
ATOM      6  C   UNL     1      -3.548  -0.304  25.885  0.00  0.00    -0.005 A 
ATOM      7  C   UNL     1      -3.792  -0.128  25.117  0.00  0.00    -0.025 A 
ENDBRANCH   8   7
ENDBRANCH  15  14
BRANCH  16  18
ATOM     18  C   UNL     1      -1.518   1.910  25.220  0.00  0.00    +0.108 A 
ATOM     19  C   UNL     1      -1.367   2.352  25.899  0.00  0.00    +0.011 A 
ATOM     20  C   UNL     1      -0.598   2.407  26.192  0.00  0.00    +0.021 A 
ATOM     21  C   UNL     1       0.020   2.020  25.805  0.00  0.00    +0.102 A 
ATOM     22  N   UNL     1      -0.132   1.578  25.126  0.00  0.00    -0.210 NA
ATOM     23  C   UNL     1      -0.901   1.522  24.833  0.00  0.00    +0.234 A 
BRANCH  23  24
ATOM     24  O   UNL     1      -1.053   1.080  24.153  0.00  0.00    -0.436 OA
BRANCH  24  25
ATOM     25  C   UNL     1      -0.462   0.602  23.832  0.00  0.00    +0.147 A 
ATOM     26  C   UNL     1       0.019   0.893  23.228  0.00  0.00    +0.038 A 
ATOM     27  C   UNL     1       0.610   0.416  22.906  0.00  0.00    +0.003 A 
ATOM     28  C   UNL     1       0.720  -0.352  23.189  0.00  0.00    +0.000 A 
ATOM     29  C   UNL     1       0.239  -0.642  23.792  0.00  0.00    +0.003 A 
ATOM     30  C   UNL     1      -0.352  -0.165  24.114  0.00  0.00    +0.038 A 
ENDBRANCH  24  25
ENDBRANCH  23  24
ENDBRANCH  16  18
TORSDOF 5
ENDMDL
MODEL 7
REMARK VINA RESULT:     -11.1      1.440      2.028
REMARK  Name = 
REMARK  5 active torsions:
REMARK  status: ('A' for Active; 'I' for Inactive)
REMARK    1  A    between atoms: C_7  and  C_8
REMARK    2  A    between atoms: C_14  and  N_15
REMARK    3  A    between atoms: C_16  and  C_18
REMARK    4  A    between atoms: C_23  and  O_24
REMARK    5  A    between atoms: O_24  and  C_25
REMARK                            x       y       z     vdW  Elec       q    Type
REMARK                         _______ _______ _______ _____ _____    ______ ____
ROOT
ATOM     15  N   UNL     1      -1.108   0.782  25.142  0.00  0.00    -0.200 NA
ATOM     16  C   UNL     1      -1.144   1.520  24.774  0.00  0.00    +0.269 C 
ATOM     17  O   UNL     1      -0.936   1.595  23.979  0.00  0.00    -0.268 OA
ENDROOT
BRANCH  15  14
ATOM      8  C   UNL     1      -1.219  -0.624  24.730  0.00  0.00    +0.047 C 
ATOM      9  C   UNL     1      -0.797  -1.119  24.221  0.00  0.00    +0.042 C 
ATOM     10  C   UNL     1      -0.181  -0.680  23.893  0.00  0.00    +0.184 C 
ATOM     11  O   UNL     1       0.379  -0.958  23.354  0.00  0.00    -0.220 OA
ATOM     12  C   UNL     1      -0.222   0.085  24.198  0.00  0.00    +0.202 C 
ATOM     13  O   UNL     1       0.289   0.708  24.017  0.00  0.00    -0.219 OA
ATOM     14  C   UNL     1      -0.864   0.120  24.714  0.00  0.00    +0.132 C 
BRANCH   8   7
ATOM      1  C   UNL     1      -2.577  -1.180  23.975  0.00  0.00    +0.031 C 
ATOM      2  C   UNL     1      -2.560  -1.115  24.797  0.00  0.00    -0.026 A 
ATOM      3  C   UNL     1      -3.221  -1.328  25.242  0.00  0.00    -0.005 A 
ATOM      4  C   UNL     1      -3.203  -1.263  26.064  0.00  0.00    -0.000 A 
ATOM      5  C   UNL     1      -2.525  -0.985  26.441  0.00  0.00    -0.000 A 
ATOM      6  C   UNL     1      -1.864  -0.773  25.997  0.00  0.00    -0.005 A 
ATOM      7  C   UNL     1      -1.880  -0.837  25.174  0.00  0.00    -0.025 A 
ENDBRANCH   8   7
ENDBRANCH  15  14
BRANCH  16  18
ATOM     18  C   UNL     1      -1.388   2.183  25.202  0.00  0.00    +0.108 A 
ATOM     19  C   UNL     1      -0.894   2.507  25.777  0.00  0.00    +0.011 A 
ATOM     20  C   UNL     1      -1.138   3.169  26.204  0.00  0.00    +0.021 A 
ATOM     21  C   UNL     1      -1.876   3.507  26.056  0.00  0.00    +0.102 A 
ATOM     22  N   UNL     1      -2.370   3.183  25.480  0.00  0.00    -0.210 NA
ATOM     23  C   UNL     1      -2.126   2.520  25.053  0.00  0.00    +0.234 A 
BRANCH  23  24
ATOM     24  O   UNL     1      -2.619   2.196  24.477  0.00  0.00    -0.436 OA
BRANCH  24  25
ATOM     25  C   UNL     1      -3.404   2.444  24.420  0.00  0.00    +0.147 A 
ATOM     26  C   UNL     1      -3.977   2.115  24.915  0.00  0.00    +0.038 A 
ATOM     27  C   UNL     1      -4.762   2.364  24.858  0.00  0.00    +0.003 A 
ATOM     28  C   UNL     1      -4.974   2.940  24.306  0.00  0.00    +0.000 A 
ATOM     29  C   UNL     1      -4.401   3.268  23.812  0.00  0.00    +0.003 A 
ATOM     30  C   UNL     1      -3.616   3.020  23.869  0.00  0.00    +0.038 A 
ENDBRANCH  24  25
ENDBRANCH  23  24
ENDBRANCH  16  18
TORSDOF 5
ENDMDL
MODEL 8
REMARK VINA RESULT:     -11.1      1.818      3.155
REMARK  Name = 
REMARK  5 active torsions:
REMARK  status: ('A' for Active; 'I' for Inactive)
REMARK    1  A    between atoms: C_7  and  C_8
REMARK    2  A    between atoms: C_14  and  N_15
REMARK    3  A    between atoms: C_16  and  C_18
REMARK    4  A    between atoms: C_23  and  O_24
REMARK    5  A    between atoms: O_24  and  C_25
REMARK                            x       y       z     vdW  Elec       q    Type
REMARK                         _______ _______ _______ _____ _____    ______ ____
ROOT
ATOM     15  N   UNL     1      -1.926  -0.749  24.227  0.00  0.00    -0.200 NA
ATOM     16  C   UNL     1      -1.209  -0.651  24.621  0.00  0.00    +0.269 C 
ATOM     17  O   UNL     1      -1.083  -1.023  25.347  0.00  0.00    -0.268 OA
ENDROOT
BRANCH  15  14
ATOM      8  C   UNL     1      -3.308  -1.002  24.660  0.00  0.00    +0.047 C 
ATOM      9  C   UNL     1      -3.703  -1.637  25.011  0.00  0.00    +0.042 C 
ATOM     10  C   UNL     1      -3.157  -2.245  25.124  0.00  0.00    +0.184 C 
ATOM     11  O   UNL     1      -3.316  -2.982  25.459  0.00  0.00    -0.220 OA
ATOM     12  C   UNL     1      -2.426  -1.986  24.845  0.00  0.00    +0.202 C 
ATOM     13  O   UNL     1      -1.723  -2.420  24.851  0.00  0.00    -0.219 OA
ATOM     14  C   UNL     1      -2.519  -1.219  24.558  0.00  0.00    +0.132 C 
BRANCH   8   7
ATOM      1  C   UNL     1      -4.122  -0.112  25.786  0.00  0.00    +0.031 C 
ATOM      2  C   UNL     1      -4.052   0.167  25.013  0.00  0.00    -0.026 A 
ATOM      3  C   UNL     1      -4.388   0.890  24.802  0.00  0.00    -0.005 A 
ATOM      4  C   UNL     1      -4.316   1.168  24.029  0.00  0.00    -0.000 A 
ATOM      5  C   UNL     1      -3.910   0.723  23.466  0.00  0.00    -0.000 A 
ATOM      6  C   UNL     1      -3.574  -0.000  23.677  0.00  0.00    -0.005 A 
ATOM      7  C   UNL     1      -3.644  -0.279  24.450  0.00  0.00    -0.025 A 
ENDBRANCH   8   7
ENDBRANCH  15  14
BRANCH  16  18
ATOM     18  C   UNL     1      -0.616  -0.182  24.290  0.00  0.00    +0.108 A 
ATOM     19  C   UNL     1      -0.205  -0.445  23.625  0.00  0.00    +0.011 A 
ATOM     20  C   UNL     1       0.387   0.024  23.295  0.00  0.00    +0.021 A 
ATOM     21  C   UNL     1       0.568   0.757  23.628  0.00  0.00    +0.102 A 
ATOM     22  N   UNL     1       0.156   1.021  24.292  0.00  0.00    -0.210 NA
ATOM     23  C   UNL     1      -0.436   0.551  24.624  0.00  0.00    +0.234 A 
BRANCH  23  24
ATOM     24  O   UNL     1      -0.848   0.814  25.288  0.00  0.00    -0.436 OA
BRANCH  24  25
ATOM     25  C   UNL     1      -0.748   1.588  25.555  0.00  0.00    +0.147 A 
ATOM     26  C   UNL     1      -0.223   1.746  26.173  0.00  0.00    +0.038 A 
ATOM     27  C   UNL     1      -0.123   2.521  26.440  0.00  0.00    +0.003 A 
ATOM     28  C   UNL     1      -0.546   3.136  26.090  0.00  0.00    +0.000 A 
ATOM     29  C   UNL     1      -1.071   2.978  25.473  0.00  0.00    +0.003 A 
ATOM     30  C   UNL     1      -1.171   2.204  25.206  0.00  0.00    +0.038 A 
ENDBRANCH  24  25
ENDBRANCH  23  24
ENDBRANCH  16  18
TORSDOF 5
ENDMDL
MODEL 9
REMARK VINA RESULT:     -11.0      1.647      3.344
REMARK  Name = 
REMARK  5 active torsions:
REMARK  status: ('A' for Active; 'I' for Inactive)
REMARK    1  A    between atoms: C_7  and  C_8
REMARK    2  A    between atoms: C_14  and  N_15
REMARK    3  A    between atoms: C_16  and  C_18
REMARK    4  A    between atoms: C_23  and  O_24
REMARK    5  A    between atoms: O_24  and  C_25
REMARK                            x       y       z     vdW  Elec       q    Type
REMARK                         _______ _______ _______ _____ _____    ______ ____
ROOT
ATOM     15  N   UNL     1      -3.675   1.170  24.192  0.00  0.00    -0.200 NA
ATOM     16  C   UNL     1      -3.301   1.905  24.206  0.00  0.00    +0.269 C 
ATOM     17  O   UNL     1      -3.626   2.525  24.645  0.00  0.00    -0.268 OA
ENDROOT
BRANCH  15  14
ATOM      8  C   UNL     1      -4.577   0.377  25.040  0.00  0.00    +0.047 C 
ATOM      9  C   UNL     1      -5.321   0.500  25.377  0.00  0.00    +0.042 C 
ATOM     10  C   UNL     1      -5.577   1.253  25.159  0.00  0.00    +0.184 C 
ATOM     11  O   UNL     1      -6.293   1.603  25.375  0.00  0.00    -0.220 OA
ATOM     12  C   UNL     1      -4.992   1.596  24.689  0.00  0.00    +0.202 C 
ATOM     13  O   UNL     1      -5.020   2.349  24.352  0.00  0.00    -0.219 OA
ATOM     14  C   UNL     1      -4.374   1.055  24.616  0.00  0.00    +0.132 C 
BRANCH   8   7
ATOM      1  C   UNL     1      -4.745  -0.856  23.957  0.00  0.00    +0.031 C 
ATOM      2  C   UNL     1      -4.201  -0.921  24.574  0.00  0.00    -0.026 A 
ATOM      3  C   UNL     1      -3.742  -1.602  24.650  0.00  0.00    -0.005 A 
ATOM      4  C   UNL     1      -3.198  -1.666  25.267  0.00  0.00    -0.000 A 
ATOM      5  C   UNL     1      -3.114  -1.049  25.808  0.00  0.00    -0.000 A 
ATOM      6  C   UNL     1      -3.573  -0.369  25.733  0.00  0.00    -0.005 A 
ATOM      7  C   UNL     1      -4.117  -0.304  25.116  0.00  0.00    -0.025 A 
ENDBRANCH   8   7
ENDBRANCH  15  14
BRANCH  16  18
ATOM     18  C   UNL     1      -2.602   2.021  23.783  0.00  0.00    +0.108 A 
ATOM     19  C   UNL     1      -2.595   1.919  22.964  0.00  0.00    +0.011 A 
ATOM     20  C   UNL     1      -1.897   2.035  22.541  0.00  0.00    +0.021 A 
ATOM     21  C   UNL     1      -1.206   2.252  22.936  0.00  0.00    +0.102 A 
ATOM     22  N   UNL     1      -1.213   2.354  23.754  0.00  0.00    -0.210 NA
ATOM     23  C   UNL     1      -1.912   2.238  24.178  0.00  0.00    +0.234 A 
BRANCH  23  24
ATOM     24  O   UNL     1      -1.919   2.340  24.997  0.00  0.00    -0.436 OA
BRANCH  24  25
ATOM     25  C   UNL     1      -1.210   2.439  25.406  0.00  0.00    +0.147 A 
ATOM     26  C   UNL     1      -0.795   1.779  25.678  0.00  0.00    +0.038 A 
ATOM     27  C   UNL     1      -0.085   1.879  26.087  0.00  0.00    +0.003 A 
ATOM     28  C   UNL     1       0.209   2.638  26.225  0.00  0.00    +0.000 A 
ATOM     29  C   UNL     1      -0.207   3.297  25.954  0.00  0.00    +0.003 A 
ATOM     30  C   UNL     1      -0.916   3.197  25.544  0.00  0.00    +0.038 A 
ENDBRANCH  24  25
ENDBRANCH  23  24
ENDBRANCH  16  18
TORSDOF 5
ENDMDL
MODEL 10
REMARK VINA RESULT:     -10.8      1.970      4.352
REMARK  Name = 
REMARK  5 active torsions:
REMARK  status: ('A' for Active; 'I' for Inactive)
REMARK    1  A    between atoms: C_7  and  C_8
REMARK    2  A    between atoms: C_14  and  N_15
REMARK    3  A    between atoms: C_16  and  C_18
REMARK    4  A    between atoms: C_23  and  O_24
REMARK    5  A    between atoms: O_24  and  C_25
REMARK                            x       y       z     vdW  Elec       q    Type
REMARK                         _______ _______ _______ _____ _____    ______ ____
ROOT
ATOM     15  N   UNL     1      -2.632   2.879  24.549  0.00  0.00    -0.200 NA
ATOM     16  C   UNL     1      -3.218   2.330  24.358  0.00  0.00    +0.269 C 
ATOM     17  O   UNL     1      -3.896   2.273  24.824  0.00  0.00    -0.268 OA
ENDROOT
BRANCH  15  14
ATOM      8  C   UNL     1      -2.144   3.549  25.763  0.00  0.00    +0.047 C 
ATOM      9  C   UNL     1      -2.476   4.058  26.322  0.00  0.00    +0.042 C 
ATOM     10  C   UNL     1      -3.261   4.194  26.109  0.00  0.00    +0.184 C 
ATOM     11  O   UNL     1      -3.798   4.671  26.515  0.00  0.00    -0.220 OA
ATOM     12  C   UNL     1      -3.415   3.768  25.419  0.00  0.00    +0.202 C 
ATOM     13  O   UNL     1      -4.134   3.746  25.014  0.00  0.00    -0.219 OA
ATOM     14  C   UNL     1      -2.725   3.370  25.205  0.00  0.00    +0.132 C 
BRANCH   8   7
ATOM      1  C   UNL     1      -0.943   4.447  25.074  0.00  0.00    +0.031 C 
ATOM      2  C   UNL     1      -0.767   3.718  25.418  0.00  0.00    -0.026 A 
ATOM      3  C   UNL     1       0.009   3.437  25.417  0.00  0.00    -0.005 A 
ATOM      4  C   UNL     1       0.183   2.708  25.761  0.00  0.00    -0.000 A 
ATOM      5  C   UNL     1      -0.417   2.259  26.105  0.00  0.00    -0.000 A 
ATOM      6  C   UNL     1      -1.193   2.540  26.106  0.00  0.00    -0.005 A 
ATOM      7  C   UNL     1      -1.369   3.269  25.762  0.00  0.00    -0.025 A 
ENDBRANCH   8   7
ENDBRANCH  15  14
BRANCH  16  18
ATOM     18  C   UNL     1      -3.125   1.839  23.701  0.00  0.00    +0.108 A 
ATOM     19  C   UNL     1      -2.923   2.162  22.970  0.00  0.00    +0.011 A 
ATOM     20  C   UNL     1      -2.830   1.671  22.314  0.00  0.00    +0.021 A 
ATOM     21  C   UNL     1      -2.939   0.857  22.389  0.00  0.00    +0.102 A 
ATOM     22  N   UNL     1      -3.141   0.534  23.120  0.00  0.00    -0.210 NA
ATOM     23  C   UNL     1      -3.234   1.025  23.777  0.00  0.00    +0.234 A 
BRANCH  23  24
ATOM     24  O   UNL     1      -3.436   0.702  24.509  0.00  0.00    -0.436 OA
BRANCH  24  25
ATOM     25  C   UNL     1      -3.430  -0.117  24.614  0.00  0.00    +0.147 A 
ATOM     26  C   UNL     1      -4.100  -0.561  24.424  0.00  0.00    +0.038 A 
ATOM     27  C   UNL     1      -4.094  -1.380  24.529  0.00  0.00    +0.003 A 
ATOM     28  C   UNL     1      -3.419  -1.753  24.823  0.00  0.00    +0.000 A 
ATOM     29  C   UNL     1      -2.751  -1.309  25.012  0.00  0.00    +0.003 A 
ATOM     30  C   UNL     1      -2.757  -0.490  24.908  0.00  0.00    +0.038 A 
ENDBRANCH  24  25
ENDBRANCH  23  24
ENDBRANCH  16  18
TORSDOF 5
ENDMDL
