MODEL 1
REMARK VINA RESULT:     -10.0      0.000      0.000
REMARK  Name = 
REMARK  5 active torsions:
REMARK  status: ('A' for Active; 'I' for Inactive)
REMARK    1  A    between atoms: C_3  and  C_4
REMARK    2  A    between atoms: C_4  and  N_5
REMARK    3  A    between atoms: C_16  and  N_17
REMARK    4  A    between atoms: N_17  and  C_18
REMARK    5  A    between atoms: C_18  and  C_19
REMARK                            x       y       z     vdW  Elec       q    Type
REMARK                         _______ _______ _______ _____ _____    ______ ____
ROOT
ATOM      1  O   UNL     1      -1.383   0.633  23.695  0.00  0.00    -0.219 OA
ATOM      2  C   UNL     1      -1.292   0.533  24.509  0.00  0.00    +0.199 C 
ATOM      3  C   UNL     1      -0.918   1.057  25.024  0.00  0.00    +0.169 C 
ATOM     14  O   UNL     1      -0.955   0.739  25.783  0.00  0.00    -0.350 OA
ATOM     15  C   UNL     1      -1.352   0.017  25.739  0.00  0.00    +0.162 C 
ATOM     16  C   UNL     1      -1.561  -0.110  24.951  0.00  0.00    +0.135 C 
ENDROOT
BRANCH   3   4
ATOM      4  C   UNL     1      -0.568   1.775  24.815  0.00  0.00    +0.149 C 
BRANCH   4   5
ATOM      5  N   UNL     1      -0.941   2.486  25.003  0.00  0.00    -0.186 NA
ATOM      6  C   UNL     1      -0.598   3.204  24.781  0.00  0.00    +0.323 C 
ATOM      7  O   UNL     1       0.118   3.209  24.372  0.00  0.00    -0.251 OA
ATOM      8  N   UNL     1      -0.971   3.915  24.969  0.00  0.00    -0.258 N 
ATOM      9  C   UNL     1      -0.628   4.631  24.748  0.00  0.00    +0.127 C 
ATOM     10  C   UNL     1      -1.002   5.343  24.935  0.00  0.00    +0.164 C 
ATOM     11  O   UNL     1      -1.718   5.337  25.345  0.00  0.00    -0.350 OA
ATOM     12  C   UNL     1      -2.061   4.620  25.566  0.00  0.00    +0.164 C 
ATOM     13  C   UNL     1      -1.688   3.909  25.378  0.00  0.00    +0.127 C 
ENDBRANCH   4   5
ENDBRANCH   3   4
BRANCH  16  17
ATOM     17  N   UNL     1      -1.966  -0.765  24.657  0.00  0.00    -0.209 NA
BRANCH  17  18
ATOM     18  C   UNL     1      -2.608  -1.073  25.073  0.00  0.00    +0.115 C 
BRANCH  18  19
ATOM     19  C   UNL     1      -3.132  -1.590  24.700  0.00  0.00    -0.005 A 
ATOM     20  C   UNL     1      -2.993  -2.403  24.717  0.00  0.00    -0.001 A 
ATOM     21  C   UNL     1      -3.517  -2.920  24.344  0.00  0.00    +0.029 A 
ATOM     22  C   UNL     1      -4.180  -2.623  23.953  0.00  0.00    +0.140 A 
ATOM     23  F   UNL     1      -4.704  -3.140  23.580  0.00  0.00    -0.204 F 
ATOM     24  C   UNL     1      -4.320  -1.810  23.936  0.00  0.00    +0.029 A 
ATOM     25  C   UNL     1      -3.796  -1.293  24.310  0.00  0.00    -0.001 A 
ENDBRANCH  18  19
ENDBRANCH  17  18
ENDBRANCH  16  17
TORSDOF 5
ENDMDL
MODEL 2
REMARK VINA RESULT:      -9.9      1.783      2.207
REMARK  Name = 
REMARK  5 active torsions:
REMARK  status: ('A' for Active; 'I' for Inactive)
REMARK    1  A    between atoms: C_3  and  C_4
REMARK    2  A    between atoms: C_4  and  N_5
REMARK    3  A    between atoms: C_16  and  N_17
REMARK    4  A    between atoms: N_17  and  C_18
REMARK    5  A    between atoms: C_18  and  C_19
REMARK                            x       y       z     vdW  Elec       q    Type
REMARK                         _______ _______ _______ _____ _____    ______ ____
ROOT
ATOM      1  O   UNL     1      -3.468   1.345  23.477  0.00  0.00    -0.219 OA
ATOM      2  C   UNL     1      -3.895   1.384  24.182  0.00  0.00    +0.199 C 
ATOM      3  C   UNL     1      -4.058   2.068  24.613  0.00  0.00    +0.169 C 
ATOM     14  O   UNL     1      -4.499   1.852  25.276  0.00  0.00    -0.350 OA
ATOM     15  C   UNL     1      -4.608   1.034  25.255  0.00  0.00    +0.162 C 
ATOM     16  C   UNL     1      -4.235   0.745  24.579  0.00  0.00    +0.135 C 
ENDROOT
BRANCH   3   4
ATOM      4  C   UNL     1      -3.823   2.833  24.415  0.00  0.00    +0.149 C 
BRANCH   4   5
ATOM      5  N   UNL     1      -3.070   3.100  24.623  0.00  0.00    -0.186 NA
ATOM      6  C   UNL     1      -2.913   3.910  24.653  0.00  0.00    +0.323 C 
ATOM      7  O   UNL     1      -3.508   4.452  24.475  0.00  0.00    -0.251 OA
ATOM      8  N   UNL     1      -2.160   4.176  24.861  0.00  0.00    -0.258 N 
ATOM      9  C   UNL     1      -2.003   4.985  24.891  0.00  0.00    +0.127 C 
ATOM     10  C   UNL     1      -1.250   5.252  25.099  0.00  0.00    +0.164 C 
ATOM     11  O   UNL     1      -0.655   4.709  25.277  0.00  0.00    -0.350 OA
ATOM     12  C   UNL     1      -0.813   3.899  25.248  0.00  0.00    +0.164 C 
ATOM     13  C   UNL     1      -1.565   3.633  25.039  0.00  0.00    +0.127 C 
ENDBRANCH   4   5
ENDBRANCH   3   4
BRANCH  16  17
ATOM     17  N   UNL     1      -4.206  -0.044  24.341  0.00  0.00    -0.209 NA
BRANCH  17  18
ATOM     18  C   UNL     1      -4.180  -0.644  24.907  0.00  0.00    +0.115 C 
BRANCH  18  19
ATOM     19  C   UNL     1      -3.989  -1.415  24.682  0.00  0.00    -0.005 A 
ATOM     20  C   UNL     1      -4.316  -1.739  23.997  0.00  0.00    -0.001 A 
ATOM     21  C   UNL     1      -4.125  -2.509  23.773  0.00  0.00    +0.029 A 
ATOM     22  C   UNL     1      -3.606  -2.956  24.233  0.00  0.00    +0.140 A 
ATOM     23  F   UNL     1      -3.415  -3.727  24.008  0.00  0.00    -0.204 F 
ATOM     24  C   UNL     1      -3.279  -2.632  24.917  0.00  0.00    +0.029 A 
ATOM     25  C   UNL     1      -3.470  -1.862  25.142  0.00  0.00    -0.001 A 
ENDBRANCH  18  19
ENDBRANCH  17  18
ENDBRANCH  16  17
TORSDOF 5
ENDMDL
MODEL 3
REMARK VINA RESULT:      -9.6      2.302      5.799
REMARK  Name = 
REMARK  5 active torsions:
REMARK  status: ('A' for Active; 'I' for Inactive)
REMARK    1  A    between atoms: C_3  and  C_4
REMARK    2  A    between atoms: C_4  and  N_5
REMARK    3  A    between atoms: C_16  and  N_17
REMARK    4  A    between atoms: N_17  and  C_18
REMARK    5  A    between atoms: C_18  and  C_19
REMARK                            x       y       z     vdW  Elec       q    Type
REMARK                         _______ _______ _______ _____ _____    ______ ____
ROOT
ATOM      1  O   UNL     1      -1.053   1.047  23.773  0.00  0.00    -0.219 OA
ATOM      2  C   UNL     1      -1.005   0.947  24.590  0.00  0.00    +0.199 C 
ATOM      3  C   UNL     1      -1.050   0.229  24.994  0.00  0.00    +0.169 C 
ATOM     14  O   UNL     1      -0.977   0.386  25.800  0.00  0.00    -0.350 OA
ATOM     15  C   UNL     1      -0.886   1.200  25.895  0.00  0.00    +0.162 C 
ATOM     16  C   UNL     1      -0.904   1.547  25.147  0.00  0.00    +0.135 C 
ENDROOT
BRANCH   3   4
ATOM      4  C   UNL     1      -1.151  -0.515  24.651  0.00  0.00    +0.149 C 
BRANCH   4   5
ATOM      5  N   UNL     1      -1.910  -0.816  24.536  0.00  0.00    -0.186 NA
ATOM      6  C   UNL     1      -2.026  -1.632  24.486  0.00  0.00    +0.323 C 
ATOM      7  O   UNL     1      -1.384  -2.145  24.552  0.00  0.00    -0.251 OA
ATOM      8  N   UNL     1      -2.785  -1.934  24.370  0.00  0.00    -0.258 N 
ATOM      9  C   UNL     1      -2.902  -2.748  24.320  0.00  0.00    +0.127 C 
ATOM     10  C   UNL     1      -3.661  -3.051  24.205  0.00  0.00    +0.164 C 
ATOM     11  O   UNL     1      -4.304  -2.537  24.139  0.00  0.00    -0.350 OA
ATOM     12  C   UNL     1      -4.187  -1.721  24.188  0.00  0.00    +0.164 C 
ATOM     13  C   UNL     1      -3.428  -1.420  24.304  0.00  0.00    +0.127 C 
ENDBRANCH   4   5
ENDBRANCH   3   4
BRANCH  16  17
ATOM     17  N   UNL     1      -0.833   2.352  24.985  0.00  0.00    -0.209 NA
BRANCH  17  18
ATOM     18  C   UNL     1      -0.942   2.906  25.587  0.00  0.00    +0.115 C 
BRANCH  18  19
ATOM     19  C   UNL     1      -1.090   3.696  25.399  0.00  0.00    -0.005 A 
ATOM     20  C   UNL     1      -0.513   4.144  25.018  0.00  0.00    -0.001 A 
ATOM     21  C   UNL     1      -0.661   4.935  24.831  0.00  0.00    +0.029 A 
ATOM     22  C   UNL     1      -1.387   5.275  25.025  0.00  0.00    +0.140 A 
ATOM     23  F   UNL     1      -1.534   6.065  24.837  0.00  0.00    -0.204 F 
ATOM     24  C   UNL     1      -1.964   4.826  25.406  0.00  0.00    +0.029 A 
ATOM     25  C   UNL     1      -1.816   4.036  25.593  0.00  0.00    -0.001 A 
ENDBRANCH  18  19
ENDBRANCH  17  18
ENDBRANCH  16  17
TORSDOF 5
ENDMDL
MODEL 4
REMARK VINA RESULT:      -9.6      2.799      6.124
REMARK  Name = 
REMARK  5 active torsions:
REMARK  status: ('A' for Active; 'I' for Inactive)
REMARK    1  A    between atoms: C_3  and  C_4
REMARK    2  A    between atoms: C_4  and  N_5
REMARK    3  A    between atoms: C_16  and  N_17
REMARK    4  A    between atoms: N_17  and  C_18
REMARK    5  A    between atoms: C_18  and  C_19
REMARK                            x       y       z     vdW  Elec       q    Type
REMARK                         _______ _______ _______ _____ _____    ______ ____
ROOT
ATOM      1  O   UNL     1      -3.077   1.726  23.556  0.00  0.00    -0.219 OA
ATOM      2  C   UNL     1      -3.514   1.773  24.254  0.00  0.00    +0.199 C 
ATOM      3  C   UNL     1      -4.031   1.198  24.541  0.00  0.00    +0.169 C 
ATOM     14  O   UNL     1      -4.347   1.472  25.252  0.00  0.00    -0.350 OA
ATOM     15  C   UNL     1      -4.026   2.217  25.403  0.00  0.00    +0.162 C 
ATOM     16  C   UNL     1      -3.511   2.403  24.787  0.00  0.00    +0.135 C 
ENDROOT
BRANCH   3   4
ATOM      4  C   UNL     1      -4.201   0.475  24.181  0.00  0.00    +0.149 C 
BRANCH   4   5
ATOM      5  N   UNL     1      -3.968  -0.230  24.540  0.00  0.00    -0.186 NA
ATOM      6  C   UNL     1      -4.062  -0.947  24.142  0.00  0.00    +0.323 C 
ATOM      7  O   UNL     1      -4.390  -0.958  23.386  0.00  0.00    -0.251 OA
ATOM      8  N   UNL     1      -3.829  -1.652  24.501  0.00  0.00    -0.258 N 
ATOM      9  C   UNL     1      -3.923  -2.368  24.104  0.00  0.00    +0.127 C 
ATOM     10  C   UNL     1      -3.689  -3.074  24.463  0.00  0.00    +0.164 C 
ATOM     11  O   UNL     1      -3.361  -3.062  25.220  0.00  0.00    -0.350 OA
ATOM     12  C   UNL     1      -3.267  -2.345  25.617  0.00  0.00    +0.164 C 
ATOM     13  C   UNL     1      -3.500  -1.640  25.258  0.00  0.00    +0.127 C 
ENDBRANCH   4   5
ENDBRANCH   3   4
BRANCH  16  17
ATOM     17  N   UNL     1      -3.071   3.096  24.716  0.00  0.00    -0.209 NA
BRANCH  17  18
ATOM     18  C   UNL     1      -2.617   3.363  25.350  0.00  0.00    +0.115 C 
BRANCH  18  19
ATOM     19  C   UNL     1      -2.048   3.949  25.233  0.00  0.00    -0.005 A 
ATOM     20  C   UNL     1      -2.266   4.745  25.246  0.00  0.00    -0.001 A 
ATOM     21  C   UNL     1      -1.696   5.331  25.129  0.00  0.00    +0.029 A 
ATOM     22  C   UNL     1      -0.910   5.120  24.998  0.00  0.00    +0.140 A 
ATOM     23  F   UNL     1      -0.340   5.706  24.881  0.00  0.00    -0.204 F 
ATOM     24  C   UNL     1      -0.691   4.325  24.985  0.00  0.00    +0.029 A 
ATOM     25  C   UNL     1      -1.261   3.739  25.102  0.00  0.00    -0.001 A 
ENDBRANCH  18  19
ENDBRANCH  17  18
ENDBRANCH  16  17
TORSDOF 5
ENDMDL
MODEL 5
REMARK VINA RESULT:      -8.2      3.032      4.260
REMARK  Name = 
REMARK  5 active torsions:
REMARK  status: ('A' for Active; 'I' for Inactive)
REMARK    1  A    between atoms: C_3  and  C_4
REMARK    2  A    between atoms: C_4  and  N_5
REMARK    3  A    between atoms: C_16  and  N_17
REMARK    4  A    between atoms: N_17  and  C_18
REMARK    5  A    between atoms: C_18  and  C_19
REMARK                            x       y       z     vdW  Elec       q    Type
REMARK                         _______ _______ _______ _____ _____    ______ ____
ROOT
ATOM      1  O   UNL     1      -1.469   1.771  25.521  0.00  0.00    -0.219 OA
ATOM      2  C   UNL     1      -1.627   1.709  24.714  0.00  0.00    +0.199 C 
ATOM      3  C   UNL     1      -1.067   1.609  24.116  0.00  0.00    +0.169 C 
ATOM     14  O   UNL     1      -1.467   1.574  23.396  0.00  0.00    -0.350 OA
ATOM     15  C   UNL     1      -2.274   1.653  23.548  0.00  0.00    +0.162 C 
ATOM     16  C   UNL     1      -2.373   1.736  24.362  0.00  0.00    +0.135 C 
ENDROOT
BRANCH   3   4
ATOM      4  C   UNL     1      -0.251   1.553  24.221  0.00  0.00    +0.149 C 
BRANCH   4   5
ATOM      5  N   UNL     1       0.198   1.074  23.721  0.00  0.00    -0.186 NA
ATOM      6  C   UNL     1       1.018   1.161  23.692  0.00  0.00    +0.323 C 
ATOM      7  O   UNL     1       1.389   1.727  24.163  0.00  0.00    -0.251 OA
ATOM      8  N   UNL     1       1.466   0.683  23.191  0.00  0.00    -0.258 N 
ATOM      9  C   UNL     1       2.285   0.770  23.163  0.00  0.00    +0.127 C 
ATOM     10  C   UNL     1       2.735   0.291  22.662  0.00  0.00    +0.164 C 
ATOM     11  O   UNL     1       2.363  -0.275  22.191  0.00  0.00    -0.350 OA
ATOM     12  C   UNL     1       1.543  -0.362  22.220  0.00  0.00    +0.164 C 
ATOM     13  C   UNL     1       1.094   0.116  22.720  0.00  0.00    +0.127 C 
ENDBRANCH   4   5
ENDBRANCH   3   4
BRANCH  16  17
ATOM     17  N   UNL     1      -3.091   1.831  24.756  0.00  0.00    -0.209 NA
BRANCH  17  18
ATOM     18  C   UNL     1      -3.794   1.879  24.326  0.00  0.00    +0.115 C 
BRANCH  18  19
ATOM     19  C   UNL     1      -4.517   1.923  24.721  0.00  0.00    -0.005 A 
ATOM     20  C   UNL     1      -4.822   2.657  24.943  0.00  0.00    -0.001 A 
ATOM     21  C   UNL     1      -5.545   2.701  25.338  0.00  0.00    +0.029 A 
ATOM     22  C   UNL     1      -5.963   2.010  25.511  0.00  0.00    +0.140 A 
ATOM     23  F   UNL     1      -6.686   2.054  25.907  0.00  0.00    -0.204 F 
ATOM     24  C   UNL     1      -5.658   1.277  25.290  0.00  0.00    +0.029 A 
ATOM     25  C   UNL     1      -4.935   1.233  24.894  0.00  0.00    -0.001 A 
ENDBRANCH  18  19
ENDBRANCH  17  18
ENDBRANCH  16  17
TORSDOF 5
ENDMDL
MODEL 6
REMARK VINA RESULT:      -7.5      3.239      4.447
REMARK  Name = 
REMARK  5 active torsions:
REMARK  status: ('A' for Active; 'I' for Inactive)
REMARK    1  A    between atoms: C_3  and  C_4
REMARK    2  A    between atoms: C_4  and  N_5
REMARK    3  A    between atoms: C_16  and  N_17
REMARK    4  A    between atoms: N_17  and  C_18
REMARK    5  A    between atoms: C_18  and  C_19
REMARK                            x       y       z     vdW  Elec       q    Type
REMARK                         _______ _______ _______ _____ _____    ______ ____
ROOT
ATOM      1  O   UNL     1      -0.823   2.870  24.070  0.00  0.00    -0.219 OA
ATOM      2  C   UNL     1      -1.086   2.149  24.372  0.00  0.00    +0.199 C 
ATOM      3  C   UNL     1      -1.789   2.023  24.785  0.00  0.00    +0.169 C 
ATOM     14  O   UNL     1      -1.830   1.224  24.982  0.00  0.00    -0.350 OA
ATOM     15  C   UNL     1      -1.152   0.854  24.690  0.00  0.00    +0.162 C 
ATOM     16  C   UNL     1      -0.692   1.426  24.313  0.00  0.00    +0.135 C 
ENDROOT
BRANCH   3   4
ATOM      4  C   UNL     1      -2.353   2.598  24.969  0.00  0.00    +0.149 C 
BRANCH   4   5
ATOM      5  N   UNL     1      -3.153   2.400  24.983  0.00  0.00    -0.186 NA
ATOM      6  C   UNL     1      -3.705   2.932  25.290  0.00  0.00    +0.323 C 
ATOM      7  O   UNL     1      -3.454   3.662  25.583  0.00  0.00    -0.251 OA
ATOM      8  N   UNL     1      -4.505   2.735  25.303  0.00  0.00    -0.258 N 
ATOM      9  C   UNL     1      -5.056   3.267  25.610  0.00  0.00    +0.127 C 
ATOM     10  C   UNL     1      -5.857   3.070  25.623  0.00  0.00    +0.164 C 
ATOM     11  O   UNL     1      -6.107   2.340  25.330  0.00  0.00    -0.350 OA
ATOM     12  C   UNL     1      -5.556   1.808  25.023  0.00  0.00    +0.164 C 
ATOM     13  C   UNL     1      -4.755   2.005  25.010  0.00  0.00    +0.127 C 
ENDBRANCH   4   5
ENDBRANCH   3   4
BRANCH  16  17
ATOM     17  N   UNL     1       0.033   1.298  23.943  0.00  0.00    -0.209 NA
BRANCH  17  18
ATOM     18  C   UNL     1       0.289   0.528  23.792  0.00  0.00    +0.115 C 
BRANCH  18  19
ATOM     19  C   UNL     1       0.968   0.400  23.341  0.00  0.00    -0.005 A 
ATOM     20  C   UNL     1       0.952  -0.133  22.712  0.00  0.00    -0.001 A 
ATOM     21  C   UNL     1       1.631  -0.261  22.262  0.00  0.00    +0.029 A 
ATOM     22  C   UNL     1       2.327   0.144  22.441  0.00  0.00    +0.140 A 
ATOM     23  F   UNL     1       3.006   0.016  21.991  0.00  0.00    -0.204 F 
ATOM     24  C   UNL     1       2.343   0.678  23.070  0.00  0.00    +0.029 A 
ATOM     25  C   UNL     1       1.664   0.806  23.521  0.00  0.00    -0.001 A 
ENDBRANCH  18  19
ENDBRANCH  17  18
ENDBRANCH  16  17
TORSDOF 5
ENDMDL
MODEL 7
REMARK VINA RESULT:      -7.4      2.054      2.378
REMARK  Name = 
REMARK  5 active torsions:
REMARK  status: ('A' for Active; 'I' for Inactive)
REMARK    1  A    between atoms: C_3  and  C_4
REMARK    2  A    between atoms: C_4  and  N_5
REMARK    3  A    between atoms: C_16  and  N_17
REMARK    4  A    between atoms: N_17  and  C_18
REMARK    5  A    between atoms: C_18  and  C_19
REMARK                            x       y       z     vdW  Elec       q    Type
REMARK                         _______ _______ _______ _____ _____    ______ ____
ROOT
ATOM      1  O   UNL     1      -2.886   0.872  23.786  0.00  0.00    -0.219 OA
ATOM      2  C   UNL     1      -2.370   0.953  24.424  0.00  0.00    +0.199 C 
ATOM      3  C   UNL     1      -2.214   1.651  24.836  0.00  0.00    +0.169 C 
ATOM     14  O   UNL     1      -1.667   1.480  25.428  0.00  0.00    -0.350 OA
ATOM     15  C   UNL     1      -1.483   0.677  25.383  0.00  0.00    +0.162 C 
ATOM     16  C   UNL     1      -1.918   0.351  24.762  0.00  0.00    +0.135 C 
ENDROOT
BRANCH   3   4
ATOM      4  C   UNL     1      -2.548   2.390  24.681  0.00  0.00    +0.149 C 
BRANCH   4   5
ATOM      5  N   UNL     1      -3.303   2.567  24.961  0.00  0.00    -0.186 NA
ATOM      6  C   UNL     1      -3.584   3.343  24.927  0.00  0.00    +0.323 C 
ATOM      7  O   UNL     1      -3.109   3.940  24.614  0.00  0.00    -0.251 OA
ATOM      8  N   UNL     1      -4.340   3.520  25.207  0.00  0.00    -0.258 N 
ATOM      9  C   UNL     1      -4.620   4.295  25.173  0.00  0.00    +0.127 C 
ATOM     10  C   UNL     1      -5.376   4.473  25.452  0.00  0.00    +0.164 C 
ATOM     11  O   UNL     1      -5.851   3.876  25.766  0.00  0.00    -0.350 OA
ATOM     12  C   UNL     1      -5.570   3.100  25.799  0.00  0.00    +0.164 C 
ATOM     13  C   UNL     1      -4.815   2.922  25.520  0.00  0.00    +0.127 C 
ENDBRANCH   4   5
ENDBRANCH   3   4
BRANCH  16  17
ATOM     17  N   UNL     1      -1.903  -0.437  24.522  0.00  0.00    -0.209 NA
BRANCH  17  18
ATOM     18  C   UNL     1      -1.970  -1.040  25.081  0.00  0.00    +0.115 C 
BRANCH  18  19
ATOM     19  C   UNL     1      -2.386  -1.729  24.898  0.00  0.00    -0.005 A 
ATOM     20  C   UNL     1      -2.056  -2.287  24.388  0.00  0.00    -0.001 A 
ATOM     21  C   UNL     1      -2.472  -2.976  24.204  0.00  0.00    +0.029 A 
ATOM     22  C   UNL     1      -3.218  -3.106  24.531  0.00  0.00    +0.140 A 
ATOM     23  F   UNL     1      -3.634  -3.794  24.347  0.00  0.00    -0.204 F 
ATOM     24  C   UNL     1      -3.549  -2.548  25.041  0.00  0.00    +0.029 A 
ATOM     25  C   UNL     1      -3.133  -1.859  25.224  0.00  0.00    -0.001 A 
ENDBRANCH  18  19
ENDBRANCH  17  18
ENDBRANCH  16  17
TORSDOF 5
ENDMDL
MODEL 8
REMARK VINA RESULT:      -7.2      3.457      4.463
REMARK  Name = 
REMARK  5 active torsions:
REMARK  status: ('A' for Active; 'I' for Inactive)
REMARK    1  A    between atoms: C_3  and  C_4
REMARK    2  A    between atoms: C_4  and  N_5
REMARK    3  A    between atoms: C_16  and  N_17
REMARK    4  A    between atoms: N_17  and  C_18
REMARK    5  A    between atoms: C_18  and  C_19
REMARK                            x       y       z     vdW  Elec       q    Type
REMARK                         _______ _______ _______ _____ _____    ______ ____
ROOT
ATOM      1  O   UNL     1       0.035   1.214  23.800  0.00  0.00    -0.219 OA
ATOM      2  C   UNL     1       0.155   0.402  23.711  0.00  0.00    +0.199 C 
ATOM      3  C   UNL     1       0.823   0.043  23.388  0.00  0.00    +0.169 C 
ATOM     14  O   UNL     1       0.709  -0.773  23.407  0.00  0.00    -0.350 OA
ATOM     15  C   UNL     1      -0.030  -0.919  23.744  0.00  0.00    +0.162 C 
ATOM     16  C   UNL     1      -0.373  -0.193  23.932  0.00  0.00    +0.135 C 
ENDROOT
BRANCH   3   4
ATOM      4  C   UNL     1       1.490   0.433  23.095  0.00  0.00    +0.149 C 
BRANCH   4   5
ATOM      5  N   UNL     1       2.239   0.106  23.203  0.00  0.00    -0.186 NA
ATOM      6  C   UNL     1       2.912   0.554  23.038  0.00  0.00    +0.323 C 
ATOM      7  O   UNL     1       2.835   1.328  22.764  0.00  0.00    -0.251 OA
ATOM      8  N   UNL     1       3.662   0.227  23.146  0.00  0.00    -0.258 N 
ATOM      9  C   UNL     1       4.334   0.674  22.981  0.00  0.00    +0.127 C 
ATOM     10  C   UNL     1       5.085   0.348  23.089  0.00  0.00    +0.164 C 
ATOM     11  O   UNL     1       5.161  -0.427  23.363  0.00  0.00    -0.350 OA
ATOM     12  C   UNL     1       4.488  -0.875  23.528  0.00  0.00    +0.164 C 
ATOM     13  C   UNL     1       3.738  -0.548  23.420  0.00  0.00    +0.127 C 
ENDBRANCH   4   5
ENDBRANCH   3   4
BRANCH  16  17
ATOM     17  N   UNL     1      -1.112  -0.081  24.278  0.00  0.00    -0.209 NA
BRANCH  17  18
ATOM     18  C   UNL     1      -1.641  -0.711  24.334  0.00  0.00    +0.115 C 
BRANCH  18  19
ATOM     19  C   UNL     1      -2.375  -0.603  24.696  0.00  0.00    -0.005 A 
ATOM     20  C   UNL     1      -2.501  -0.880  25.463  0.00  0.00    -0.001 A 
ATOM     21  C   UNL     1      -3.235  -0.772  25.826  0.00  0.00    +0.029 A 
ATOM     22  C   UNL     1      -3.842  -0.387  25.420  0.00  0.00    +0.140 A 
ATOM     23  F   UNL     1      -4.576  -0.279  25.783  0.00  0.00    -0.204 F 
ATOM     24  C   UNL     1      -3.716  -0.111  24.653  0.00  0.00    +0.029 A 
ATOM     25  C   UNL     1      -2.982  -0.219  24.291  0.00  0.00    -0.001 A 
ENDBRANCH  18  19
ENDBRANCH  17  18
ENDBRANCH  16  17
TORSDOF 5
ENDMDL
MODEL 9
REMARK VINA RESULT:      -7.0     14.169     16.198
REMARK  Name = 
REMARK  5 active torsions:
REMARK  status: ('A' for Active; 'I' for Inactive)
REMARK    1  A    between atoms: C_3  and  C_4
REMARK    2  A    between atoms: C_4  and  N_5
REMARK    3  A    between atoms: C_16  and  N_17
REMARK    4  A    between atoms: N_17  and  C_18
REMARK    5  A    between atoms: C_18  and  C_19
REMARK                            x       y       z     vdW  Elec       q    Type
REMARK                         _______ _______ _______ _____ _____    ______ ____
ROOT
ATOM      1  O   UNL     1      -3.120 -10.415  14.263  0.00  0.00    -0.219 OA
ATOM      2  C   UNL     1      -3.936 -10.486  14.166  0.00  0.00    +0.199 C 
ATOM      3  C   UNL     1      -4.486 -10.626  14.764  0.00  0.00    +0.169 C 
ATOM     14  O   UNL     1      -5.235 -10.657  14.421  0.00  0.00    -0.350 OA
ATOM     15  C   UNL     1      -5.148 -10.535  13.610  0.00  0.00    +0.162 C 
ATOM     16  C   UNL     1      -4.346 -10.430  13.451  0.00  0.00    +0.135 C 
ENDROOT
BRANCH   3   4
ATOM      4  C   UNL     1      -4.316 -10.720  15.567  0.00  0.00    +0.149 C 
BRANCH   4   5
ATOM      5  N   UNL     1      -4.917 -10.648  16.127  0.00  0.00    -0.186 NA
ATOM      6  C   UNL     1      -4.737 -10.679  16.932  0.00  0.00    +0.323 C 
ATOM      7  O   UNL     1      -3.955 -10.781  17.175  0.00  0.00    -0.251 OA
ATOM      8  N   UNL     1      -5.338 -10.607  17.492  0.00  0.00    -0.258 N 
ATOM      9  C   UNL     1      -5.158 -10.637  18.296  0.00  0.00    +0.127 C 
ATOM     10  C   UNL     1      -5.759 -10.565  18.857  0.00  0.00    +0.164 C 
ATOM     11  O   UNL     1      -6.540 -10.463  18.613  0.00  0.00    -0.350 OA
ATOM     12  C   UNL     1      -6.720 -10.432  17.808  0.00  0.00    +0.164 C 
ATOM     13  C   UNL     1      -6.119 -10.504  17.247  0.00  0.00    +0.127 C 
ENDBRANCH   4   5
ENDBRANCH   3   4
BRANCH  16  17
ATOM     17  N   UNL     1      -4.012 -10.292  12.710  0.00  0.00    -0.209 NA
BRANCH  17  18
ATOM     18  C   UNL     1      -4.498 -10.167  12.056  0.00  0.00    +0.115 C 
BRANCH  18  19
ATOM     19  C   UNL     1      -4.183  -9.846  11.363  0.00  0.00    -0.005 A 
ATOM     20  C   UNL     1      -3.490 -10.157  11.043  0.00  0.00    -0.001 A 
ATOM     21  C   UNL     1      -3.175  -9.836  10.351  0.00  0.00    +0.029 A 
ATOM     22  C   UNL     1      -3.554  -9.205   9.980  0.00  0.00    +0.140 A 
ATOM     23  F   UNL     1      -3.239  -8.884   9.287  0.00  0.00    -0.204 F 
ATOM     24  C   UNL     1      -4.248  -8.894  10.300  0.00  0.00    +0.029 A 
ATOM     25  C   UNL     1      -4.563  -9.214  10.992  0.00  0.00    -0.001 A 
ENDBRANCH  18  19
ENDBRANCH  17  18
ENDBRANCH  16  17
TORSDOF 5
ENDMDL
MODEL 10
REMARK VINA RESULT:      -6.8     14.466     16.298
REMARK  Name = 
REMARK  5 active torsions:
REMARK  status: ('A' for Active; 'I' for Inactive)
REMARK    1  A    between atoms: C_3  and  C_4
REMARK    2  A    between atoms: C_4  and  N_5
REMARK    3  A    between atoms: C_16  and  N_17
REMARK    4  A    between atoms: N_17  and  C_18
REMARK    5  A    between atoms: C_18  and  C_19
REMARK                            x       y       z     vdW  Elec       q    Type
REMARK                         _______ _______ _______ _____ _____    ______ ____
ROOT
ATOM      1  O   UNL     1      -3.292 -10.597  14.181  0.00  0.00    -0.219 OA
ATOM      2  C   UNL     1      -4.090 -10.520  13.988  0.00  0.00    +0.199 C 
ATOM      3  C   UNL     1      -4.399 -10.429  13.229  0.00  0.00    +0.169 C 
ATOM     14  O   UNL     1      -5.219 -10.374  13.292  0.00  0.00    -0.350 OA
ATOM     15  C   UNL     1      -5.418 -10.431  14.091  0.00  0.00    +0.162 C 
ATOM     16  C   UNL     1      -4.720 -10.522  14.521  0.00  0.00    +0.135 C 
ENDROOT
BRANCH   3   4
ATOM      4  C   UNL     1      -3.963 -10.398  12.529  0.00  0.00    +0.149 C 
BRANCH   4   5
ATOM      5  N   UNL     1      -4.220  -9.924  11.904  0.00  0.00    -0.186 NA
ATOM      6  C   UNL     1      -3.788  -9.899  11.201  0.00  0.00    +0.323 C 
ATOM      7  O   UNL     1      -3.101 -10.349  11.123  0.00  0.00    -0.251 OA
ATOM      8  N   UNL     1      -4.044  -9.425  10.576  0.00  0.00    -0.258 N 
ATOM      9  C   UNL     1      -3.614  -9.401   9.874  0.00  0.00    +0.127 C 
ATOM     10  C   UNL     1      -3.869  -8.926   9.248  0.00  0.00    +0.164 C 
ATOM     11  O   UNL     1      -4.557  -8.477   9.327  0.00  0.00    -0.350 OA
ATOM     12  C   UNL     1      -4.988  -8.501  10.030  0.00  0.00    +0.164 C 
ATOM     13  C   UNL     1      -4.732  -8.975  10.655  0.00  0.00    +0.127 C 
ENDBRANCH   4   5
ENDBRANCH   3   4
BRANCH  16  17
ATOM     17  N   UNL     1      -4.662 -10.600  15.340  0.00  0.00    -0.209 NA
BRANCH  17  18
ATOM     18  C   UNL     1      -5.212 -10.228  15.830  0.00  0.00    +0.115 C 
BRANCH  18  19
ATOM     19  C   UNL     1      -5.200 -10.366  16.643  0.00  0.00    -0.005 A 
ATOM     20  C   UNL     1      -5.908 -10.460  17.056  0.00  0.00    -0.001 A 
ATOM     21  C   UNL     1      -5.896 -10.599  17.870  0.00  0.00    +0.029 A 
ATOM     22  C   UNL     1      -5.176 -10.643  18.270  0.00  0.00    +0.140 A 
ATOM     23  F   UNL     1      -5.164 -10.781  19.083  0.00  0.00    -0.204 F 
ATOM     24  C   UNL     1      -4.468 -10.549  17.857  0.00  0.00    +0.029 A 
ATOM     25  C   UNL     1      -4.480 -10.410  17.043  0.00  0.00    -0.001 A 
ENDBRANCH  18  19
ENDBRANCH  17  18
ENDBRANCH  16  17
TORSDOF 5
ENDMDL
