REMARK  Name = 
REMARK  8 active torsions:
REMARK  status: ('A' for Active; 'I' for Inactive)
REMARK    1  A    between atoms: C_2  and  N_4
REMARK    2  A    between atoms: N_7  and  C_8
REMARK    3  A    between atoms: C_12  and  C_13
REMARK    4  A    between atoms: N_15  and  C_16
REMARK    5  A    between atoms: C_16  and  C_17
REMARK    6  A    between atoms: C_16  and  C_23
REMARK    7  A    between atoms: C_17  and  C_18
REMARK    8  A    between atoms: C_26  and  C_28
REMARK                            x       y       z     vdW  Elec       q    Type
REMARK                         _______ _______ _______ _____ _____    ______ ____
ROOT
ATOM      8  C   UNL     1       0.511  -4.826   0.000  0.00  0.00    +0.126 C 
ATOM      9  C   UNL     1      -0.296  -4.997   0.000  0.00  0.00    +0.045 C 
ATOM     10  C   UNL     1      -0.709  -4.283   0.000  0.00  0.00    +0.096 C 
ATOM     11  N   UNL     1      -0.157  -3.670   0.000  0.00  0.00    -0.267 N 
ATOM     12  C   UNL     1       0.597  -4.005   0.000  0.00  0.00    +0.174 C 
ATOM     26  C   UNL     1      -0.328  -2.862   0.000  0.00  0.00    +0.269 C 
ATOM     27  O   UNL     1       0.285  -2.311   0.000  0.00  0.00    -0.268 OA
ENDROOT
BRANCH  26  28
ATOM     28  C   UNL     1      -1.113  -2.608   0.000  0.00  0.00    +0.154 A 
ATOM     29  C   UNL     1      -1.726  -3.160   0.000  0.00  0.00    +0.123 A 
ATOM     30  N   UNL     1      -2.510  -2.905   0.000  0.00  0.00    -0.239 NA
ATOM     31  C   UNL     1      -2.682  -2.098   0.000  0.00  0.00    +0.120 A 
ATOM     32  C   UNL     1      -2.069  -1.546   0.000  0.00  0.00    +0.120 A 
ATOM     33  N   UNL     1      -1.284  -1.801   0.000  0.00  0.00    -0.236 NA
ENDBRANCH  26  28
BRANCH   8   7
ATOM      4  N   UNL     1       1.565  -6.737   0.000  0.00  0.00    -0.189 NA
ATOM      5  C   UNL     1       0.952  -6.185   0.000  0.00  0.00    +0.339 C 
ATOM      6  O   UNL     1       0.168  -6.439   0.000  0.00  0.00    -0.249 OA
ATOM      7  N   UNL     1       1.124  -5.378   0.000  0.00  0.00    -0.187 NA
BRANCH   4   2
ATOM      1  C   UNL     1       2.007  -8.096   0.000  0.00  0.00    +0.023 C 
ATOM      2  C   UNL     1       1.394  -7.544   0.000  0.00  0.00    +0.097 C 
ATOM      3  C   UNL     1       0.609  -7.798   0.000  0.00  0.00    +0.023 C 
ENDBRANCH   4   2
ENDBRANCH   8   7
BRANCH  12  13
ATOM     13  C   UNL     1       1.312  -3.593   0.000  0.00  0.00    +0.262 C 
ATOM     14  O   UNL     1       2.026  -4.005   0.000  0.00  0.00    -0.271 OA
ATOM     15  N   UNL     1       1.312  -2.768   0.000  0.00  0.00    -0.196 NA
BRANCH  15  16
ATOM     16  C   UNL     1       2.026  -2.355   0.000  0.00  0.00    +0.179 C 
BRANCH  16  23
ATOM     23  C   UNL     1       2.740  -2.768   0.000  0.00  0.00    +0.281 C 
ATOM     24  N   UNL     1       3.455  -2.355   0.000  0.00  0.00    -0.086 NA
ATOM     25  O   UNL     1       2.740  -3.593   0.000  0.00  0.00    -0.270 OA
ENDBRANCH  16  23
BRANCH  16  17
ATOM     17  C   UNL     1       2.026  -1.530   0.000  0.00  0.00    +0.064 C 
BRANCH  17  18
ATOM     18  C   UNL     1       2.740  -1.118   0.000  0.00  0.00    +0.010 A 
ATOM     19  C   UNL     1       2.827  -0.297   0.000  0.00  0.00    +0.003 A 
ATOM     20  C   UNL     1       3.634  -0.126   0.000  0.00  0.00    +0.007 A 
ATOM     21  C   UNL     1       4.046  -0.840   0.000  0.00  0.00    +0.035 A 
ATOM     22  S   UNL     1       3.494  -1.453   0.000  0.00  0.00    -0.091 S 
ENDBRANCH  17  18
ENDBRANCH  16  17
ENDBRANCH  15  16
ENDBRANCH  12  13
TORSDOF 8
