MODEL 1
REMARK VINA RESULT:      -8.8      0.000      0.000
REMARK  Name = 
REMARK  9 active torsions:
REMARK  status: ('A' for Active; 'I' for Inactive)
REMARK    1  A    between atoms: O_2  and  C_3
REMARK    2  A    between atoms: C_3  and  C_4
REMARK    3  A    between atoms: N_8  and  C_9
REMARK    4  A    between atoms: C_12  and  C_13
REMARK    5  A    between atoms: C_16  and  C_17
REMARK    6  A    between atoms: C_17  and  N_18
REMARK    7  A    between atoms: N_21  and  C_22
REMARK    8  A    between atoms: C_25  and  O_26
REMARK    9  A    between atoms: O_26  and  C_27
REMARK                            x       y       z     vdW  Elec       q    Type
REMARK                         _______ _______ _______ _____ _____    ______ ____
ROOT
ATOM      9  C   UNL     1      -1.689   3.373  25.067  0.00  0.00    +0.120 C 
ATOM     10  C   UNL     1      -1.876   4.114  25.379  0.00  0.00    +0.198 C 
ATOM     11  O   UNL     1      -1.371   4.766  25.412  0.00  0.00    -0.219 OA
ATOM     12  C   UNL     1      -2.654   4.088  25.652  0.00  0.00    +0.180 C 
ATOM     15  O   UNL     1      -2.949   3.331  25.509  0.00  0.00    -0.350 OA
ATOM     16  C   UNL     1      -2.353   2.889  25.148  0.00  0.00    +0.154 C 
ENDROOT
BRANCH   9   8
ATOM      4  C   UNL     1      -0.307   2.878  25.144  0.00  0.00    +0.087 C 
ATOM      5  C   UNL     1       0.289   2.726  24.594  0.00  0.00    +0.020 C 
ATOM      6  C   UNL     1      -0.003   2.907  23.844  0.00  0.00    +0.019 C 
ATOM      7  C   UNL     1      -0.780   3.172  23.930  0.00  0.00    +0.072 C 
ATOM      8  N   UNL     1      -0.968   3.154  24.734  0.00  0.00    -0.269 NA
BRANCH   4   3
ATOM      3  C   UNL     1      -0.253   2.774  25.960  0.00  0.00    +0.158 C 
BRANCH   3   2
ATOM      1  C   UNL     1       0.512   2.417  27.114  0.00  0.00    +0.174 C 
ATOM      2  O   UNL     1       0.453   2.509  26.296  0.00  0.00    -0.350 OA
ENDBRANCH   3   2
ENDBRANCH   4   3
ENDBRANCH   9   8
BRANCH  12  13
ATOM     13  C   UNL     1      -3.064   4.710  26.006  0.00  0.00    +0.214 C 
ATOM     14  O   UNL     1      -3.653   4.552  26.561  0.00  0.00    -0.218 OA
ENDBRANCH  12  13
BRANCH  16  17
ATOM     17  C   UNL     1      -2.411   2.101  24.908  0.00  0.00    +0.148 C 
BRANCH  17  18
ATOM     18  N   UNL     1      -3.131   1.704  24.969  0.00  0.00    -0.184 NA
ATOM     19  C   UNL     1      -3.158   0.885  24.878  0.00  0.00    +0.344 C 
ATOM     20  O   UNL     1      -2.467   0.464  24.726  0.00  0.00    -0.249 OA
ATOM     21  N   UNL     1      -3.879   0.487  24.940  0.00  0.00    -0.161 NA
BRANCH  21  22
ATOM     22  C   UNL     1      -3.906  -0.333  24.848  0.00  0.00    +0.075 A 
ATOM     23  C   UNL     1      -4.142  -0.660  24.128  0.00  0.00    +0.020 A 
ATOM     24  C   UNL     1      -4.169  -1.479  24.037  0.00  0.00    +0.039 A 
ATOM     25  C   UNL     1      -3.960  -1.971  24.664  0.00  0.00    +0.147 A 
ATOM     31  C   UNL     1      -3.724  -1.645  25.384  0.00  0.00    +0.039 A 
ATOM     32  C   UNL     1      -3.697  -0.825  25.476  0.00  0.00    +0.020 A 
BRANCH  25  26
ATOM     26  O   UNL     1      -3.987  -2.791  24.572  0.00  0.00    -0.404 OA
BRANCH  26  27
ATOM     27  C   UNL     1      -3.327  -3.196  24.287  0.00  0.00    +0.575 C 
ATOM     28  F   UNL     1      -2.667  -3.600  24.001  0.00  0.00    -0.133 F 
ATOM     29  F   UNL     1      -3.637  -3.161  23.523  0.00  0.00    -0.133 F 
ATOM     30  F   UNL     1      -3.018  -3.230  25.051  0.00  0.00    -0.133 F 
ENDBRANCH  26  27
ENDBRANCH  25  26
ENDBRANCH  21  22
ENDBRANCH  17  18
ENDBRANCH  16  17
TORSDOF 9
ENDMDL
MODEL 2
REMARK VINA RESULT:      -8.2      1.540      2.762
REMARK  Name = 
REMARK  9 active torsions:
REMARK  status: ('A' for Active; 'I' for Inactive)
REMARK    1  A    between atoms: O_2  and  C_3
REMARK    2  A    between atoms: C_3  and  C_4
REMARK    3  A    between atoms: N_8  and  C_9
REMARK    4  A    between atoms: C_12  and  C_13
REMARK    5  A    between atoms: C_16  and  C_17
REMARK    6  A    between atoms: C_17  and  N_18
REMARK    7  A    between atoms: N_21  and  C_22
REMARK    8  A    between atoms: C_25  and  O_26
REMARK    9  A    between atoms: O_26  and  C_27
REMARK                            x       y       z     vdW  Elec       q    Type
REMARK                         _______ _______ _______ _____ _____    ______ ____
ROOT
ATOM      9  C   UNL     1      -2.329   3.606  25.234  0.00  0.00    +0.120 C 
ATOM     10  C   UNL     1      -1.801   4.232  25.127  0.00  0.00    +0.198 C 
ATOM     11  O   UNL     1      -1.992   5.034  25.141  0.00  0.00    -0.219 OA
ATOM     12  C   UNL     1      -1.050   3.913  25.002  0.00  0.00    +0.180 C 
ATOM     15  O   UNL     1      -1.114   3.091  25.033  0.00  0.00    -0.350 OA
ATOM     16  C   UNL     1      -1.904   2.901  25.176  0.00  0.00    +0.154 C 
ENDROOT
BRANCH   9   8
ATOM      4  C   UNL     1      -3.732   3.689  24.800  0.00  0.00    +0.087 C 
ATOM      5  C   UNL     1      -4.457   3.762  25.186  0.00  0.00    +0.020 C 
ATOM      6  C   UNL     1      -4.314   3.791  25.998  0.00  0.00    +0.019 C 
ATOM      7  C   UNL     1      -3.499   3.736  26.114  0.00  0.00    +0.072 C 
ATOM      8  N   UNL     1      -3.139   3.673  25.374  0.00  0.00    -0.269 NA
BRANCH   4   3
ATOM      3  C   UNL     1      -3.617   3.641  23.985  0.00  0.00    +0.158 C 
BRANCH   3   2
ATOM      1  C   UNL     1      -4.138   3.384  22.679  0.00  0.00    +0.174 C 
ATOM      2  O   UNL     1      -4.260   3.502  23.487  0.00  0.00    -0.350 OA
ENDBRANCH   3   2
ENDBRANCH   4   3
ENDBRANCH   9   8
BRANCH  12  13
ATOM     13  C   UNL     1      -0.358   4.342  24.871  0.00  0.00    +0.214 C 
ATOM     14  O   UNL     1       0.123   4.161  24.226  0.00  0.00    -0.218 OA
ENDBRANCH  12  13
BRANCH  16  17
ATOM     17  C   UNL     1      -2.214   2.140  25.248  0.00  0.00    +0.148 C 
BRANCH  17  18
ATOM     18  N   UNL     1      -1.708   1.496  25.341  0.00  0.00    -0.184 NA
ATOM     19  C   UNL     1      -1.988   0.730  25.212  0.00  0.00    +0.344 C 
ATOM     20  O   UNL     1      -2.773   0.610  24.992  0.00  0.00    -0.249 OA
ATOM     21  N   UNL     1      -1.481   0.085  25.305  0.00  0.00    -0.161 NA
BRANCH  21  22
ATOM     22  C   UNL     1      -1.761  -0.680  25.176  0.00  0.00    +0.075 A 
ATOM     23  C   UNL     1      -1.460  -1.130  24.553  0.00  0.00    +0.020 A 
ATOM     24  C   UNL     1      -1.740  -1.895  24.425  0.00  0.00    +0.039 A 
ATOM     25  C   UNL     1      -2.320  -2.210  24.918  0.00  0.00    +0.147 A 
ATOM     31  C   UNL     1      -2.622  -1.761  25.541  0.00  0.00    +0.039 A 
ATOM     32  C   UNL     1      -2.341  -0.995  25.670  0.00  0.00    +0.020 A 
BRANCH  25  26
ATOM     26  O   UNL     1      -2.600  -2.976  24.789  0.00  0.00    -0.404 OA
BRANCH  26  27
ATOM     27  C   UNL     1      -3.371  -3.093  24.520  0.00  0.00    +0.575 C 
ATOM     28  F   UNL     1      -4.142  -3.210  24.251  0.00  0.00    -0.133 F 
ATOM     29  F   UNL     1      -3.113  -3.003  23.741  0.00  0.00    -0.133 F 
ATOM     30  F   UNL     1      -3.629  -3.183  25.298  0.00  0.00    -0.133 F 
ENDBRANCH  26  27
ENDBRANCH  25  26
ENDBRANCH  21  22
ENDBRANCH  17  18
ENDBRANCH  16  17
TORSDOF 9
ENDMDL
MODEL 3
REMARK VINA RESULT:      -7.7      1.843      2.546
REMARK  Name = 
REMARK  9 active torsions:
REMARK  status: ('A' for Active; 'I' for Inactive)
REMARK    1  A    between atoms: O_2  and  C_3
REMARK    2  A    between atoms: C_3  and  C_4
REMARK    3  A    between atoms: N_8  and  C_9
REMARK    4  A    between atoms: C_12  and  C_13
REMARK    5  A    between atoms: C_16  and  C_17
REMARK    6  A    between atoms: C_17  and  N_18
REMARK    7  A    between atoms: N_21  and  C_22
REMARK    8  A    between atoms: C_25  and  O_26
REMARK    9  A    between atoms: O_26  and  C_27
REMARK                            x       y       z     vdW  Elec       q    Type
REMARK                         _______ _______ _______ _____ _____    ______ ____
ROOT
ATOM      9  C   UNL     1      -4.700   2.949  24.949  0.00  0.00    +0.120 C 
ATOM     10  C   UNL     1      -5.206   3.382  25.437  0.00  0.00    +0.198 C 
ATOM     11  O   UNL     1      -5.261   4.204  25.468  0.00  0.00    -0.219 OA
ATOM     12  C   UNL     1      -5.646   2.848  25.886  0.00  0.00    +0.180 C 
ATOM     15  O   UNL     1      -5.411   2.085  25.676  0.00  0.00    -0.350 OA
ATOM     16  C   UNL     1      -4.827   2.148  25.098  0.00  0.00    +0.154 C 
ENDROOT
BRANCH   9   8
ATOM      4  C   UNL     1      -3.399   3.528  24.581  0.00  0.00    +0.087 C 
ATOM      5  C   UNL     1      -3.058   3.794  23.879  0.00  0.00    +0.020 C 
ATOM      6  C   UNL     1      -3.608   3.693  23.272  0.00  0.00    +0.019 C 
ATOM      7  C   UNL     1      -4.290   3.364  23.600  0.00  0.00    +0.072 C 
ATOM      8  N   UNL     1      -4.161   3.262  24.408  0.00  0.00    -0.269 NA
BRANCH   4   3
ATOM      3  C   UNL     1      -3.043   3.527  25.324  0.00  0.00    +0.158 C 
BRANCH   3   2
ATOM      1  C   UNL     1      -1.870   3.685  26.127  0.00  0.00    +0.174 C 
ATOM      2  O   UNL     1      -2.263   3.786  25.408  0.00  0.00    -0.350 OA
ENDBRANCH   3   2
ENDBRANCH   4   3
ENDBRANCH   9   8
BRANCH  12  13
ATOM     13  C   UNL     1      -6.219   3.043  26.446  0.00  0.00    +0.214 C 
ATOM     14  O   UNL     1      -6.513   2.463  26.954  0.00  0.00    -0.218 OA
ENDBRANCH  12  13
BRANCH  16  17
ATOM     17  C   UNL     1      -4.438   1.518  24.731  0.00  0.00    +0.148 C 
BRANCH  17  18
ATOM     18  N   UNL     1      -4.710   0.747  24.839  0.00  0.00    -0.184 NA
ATOM     19  C   UNL     1      -4.188   0.113  24.763  0.00  0.00    +0.344 C 
ATOM     20  O   UNL     1      -3.396   0.249  24.579  0.00  0.00    -0.249 OA
ATOM     21  N   UNL     1      -4.460  -0.660  24.871  0.00  0.00    -0.161 NA
BRANCH  21  22
ATOM     22  C   UNL     1      -3.938  -1.294  24.795  0.00  0.00    +0.075 A 
ATOM     23  C   UNL     1      -3.934  -1.743  24.102  0.00  0.00    +0.020 A 
ATOM     24  C   UNL     1      -3.412  -2.378  24.026  0.00  0.00    +0.039 A 
ATOM     25  C   UNL     1      -2.895  -2.563  24.640  0.00  0.00    +0.147 A 
ATOM     31  C   UNL     1      -2.899  -2.114  25.332  0.00  0.00    +0.039 A 
ATOM     32  C   UNL     1      -3.421  -1.479  25.409  0.00  0.00    +0.020 A 
BRANCH  25  26
ATOM     26  O   UNL     1      -2.373  -3.198  24.564  0.00  0.00    -0.404 OA
BRANCH  26  27
ATOM     27  C   UNL     1      -1.614  -3.073  24.266  0.00  0.00    +0.575 C 
ATOM     28  F   UNL     1      -0.855  -2.949  23.966  0.00  0.00    -0.133 F 
ATOM     29  F   UNL     1      -1.883  -3.256  23.507  0.00  0.00    -0.133 F 
ATOM     30  F   UNL     1      -1.346  -2.891  25.023  0.00  0.00    -0.133 F 
ENDBRANCH  26  27
ENDBRANCH  25  26
ENDBRANCH  21  22
ENDBRANCH  17  18
ENDBRANCH  16  17
TORSDOF 9
ENDMDL
MODEL 4
REMARK VINA RESULT:      -7.7      3.240      4.943
REMARK  Name = 
REMARK  9 active torsions:
REMARK  status: ('A' for Active; 'I' for Inactive)
REMARK    1  A    between atoms: O_2  and  C_3
REMARK    2  A    between atoms: C_3  and  C_4
REMARK    3  A    between atoms: N_8  and  C_9
REMARK    4  A    between atoms: C_12  and  C_13
REMARK    5  A    between atoms: C_16  and  C_17
REMARK    6  A    between atoms: C_17  and  N_18
REMARK    7  A    between atoms: N_21  and  C_22
REMARK    8  A    between atoms: C_25  and  O_26
REMARK    9  A    between atoms: O_26  and  C_27
REMARK                            x       y       z     vdW  Elec       q    Type
REMARK                         _______ _______ _______ _____ _____    ______ ____
ROOT
ATOM      9  C   UNL     1      -3.497   1.424  24.362  0.00  0.00    +0.120 C 
ATOM     10  C   UNL     1      -4.123   1.030  24.728  0.00  0.00    +0.198 C 
ATOM     11  O   UNL     1      -4.895   1.312  24.803  0.00  0.00    -0.219 OA
ATOM     12  C   UNL     1      -3.841   0.305  25.004  0.00  0.00    +0.180 C 
ATOM     15  O   UNL     1      -3.041   0.252  24.810  0.00  0.00    -0.350 OA
ATOM     16  C   UNL     1      -2.828   0.943  24.413  0.00  0.00    +0.154 C 
ENDROOT
BRANCH   9   8
ATOM      4  C   UNL     1      -3.439   2.893  24.392  0.00  0.00    +0.087 C 
ATOM      5  C   UNL     1      -3.516   3.491  23.828  0.00  0.00    +0.020 C 
ATOM      6  C   UNL     1      -3.657   3.136  23.097  0.00  0.00    +0.019 C 
ATOM      7  C   UNL     1      -3.667   2.318  23.208  0.00  0.00    +0.072 C 
ATOM      8  N   UNL     1      -3.532   2.169  24.008  0.00  0.00    -0.269 NA
BRANCH   4   3
ATOM      3  C   UNL     1      -3.294   3.000  25.196  0.00  0.00    +0.158 C 
BRANCH   3   2
ATOM      1  C   UNL     1      -3.012   3.867  26.298  0.00  0.00    +0.174 C 
ATOM      2  O   UNL     1      -3.181   3.761  25.497  0.00  0.00    -0.350 OA
ENDBRANCH   3   2
ENDBRANCH   4   3
ENDBRANCH   9   8
BRANCH  12  13
ATOM     13  C   UNL     1      -4.283  -0.265  25.405  0.00  0.00    +0.214 C 
ATOM     14  O   UNL     1      -3.901  -0.889  25.785  0.00  0.00    -0.218 OA
ENDBRANCH  12  13
BRANCH  16  17
ATOM     17  C   UNL     1      -2.078   1.122  24.119  0.00  0.00    +0.148 C 
BRANCH  17  18
ATOM     18  N   UNL     1      -1.438   0.634  24.299  0.00  0.00    -0.184 NA
ATOM     19  C   UNL     1      -0.733   0.708  23.878  0.00  0.00    +0.344 C 
ATOM     20  O   UNL     1      -0.668   1.269  23.278  0.00  0.00    -0.249 OA
ATOM     21  N   UNL     1      -0.092   0.220  24.057  0.00  0.00    -0.161 NA
BRANCH  21  22
ATOM     22  C   UNL     1       0.613   0.294  23.636  0.00  0.00    +0.075 A 
ATOM     23  C   UNL     1       0.804  -0.257  23.051  0.00  0.00    +0.020 A 
ATOM     24  C   UNL     1       1.509  -0.182  22.630  0.00  0.00    +0.039 A 
ATOM     25  C   UNL     1       2.023   0.441  22.792  0.00  0.00    +0.147 A 
ATOM     31  C   UNL     1       1.833   0.991  23.376  0.00  0.00    +0.039 A 
ATOM     32  C   UNL     1       1.127   0.917  23.798  0.00  0.00    +0.020 A 
BRANCH  25  26
ATOM     26  O   UNL     1       2.729   0.515  22.370  0.00  0.00    -0.404 OA
BRANCH  26  27
ATOM     27  C   UNL     1       3.449   0.531  22.771  0.00  0.00    +0.575 C 
ATOM     28  F   UNL     1       4.170   0.546  23.173  0.00  0.00    -0.133 F 
ATOM     29  F   UNL     1       3.452  -0.294  22.799  0.00  0.00    -0.133 F 
ATOM     30  F   UNL     1       3.446   1.355  22.744  0.00  0.00    -0.133 F 
ENDBRANCH  26  27
ENDBRANCH  25  26
ENDBRANCH  21  22
ENDBRANCH  17  18
ENDBRANCH  16  17
TORSDOF 9
ENDMDL
MODEL 5
REMARK VINA RESULT:      -7.6      3.298      5.694
REMARK  Name = 
REMARK  9 active torsions:
REMARK  status: ('A' for Active; 'I' for Inactive)
REMARK    1  A    between atoms: O_2  and  C_3
REMARK    2  A    between atoms: C_3  and  C_4
REMARK    3  A    between atoms: N_8  and  C_9
REMARK    4  A    between atoms: C_12  and  C_13
REMARK    5  A    between atoms: C_16  and  C_17
REMARK    6  A    between atoms: C_17  and  N_18
REMARK    7  A    between atoms: N_21  and  C_22
REMARK    8  A    between atoms: C_25  and  O_26
REMARK    9  A    between atoms: O_26  and  C_27
REMARK                            x       y       z     vdW  Elec       q    Type
REMARK                         _______ _______ _______ _____ _____    ______ ____
ROOT
ATOM      9  C   UNL     1      -2.303  -1.264  24.762  0.00  0.00    +0.120 C 
ATOM     10  C   UNL     1      -2.758  -1.856  24.410  0.00  0.00    +0.198 C 
ATOM     11  O   UNL     1      -2.543  -2.648  24.329  0.00  0.00    -0.219 OA
ATOM     12  C   UNL     1      -3.465  -1.516  24.156  0.00  0.00    +0.180 C 
ATOM     15  O   UNL     1      -3.447  -0.715  24.350  0.00  0.00    -0.350 OA
ATOM     16  C   UNL     1      -2.729  -0.559  24.724  0.00  0.00    +0.154 C 
ENDROOT
BRANCH   9   8
ATOM      4  C   UNL     1      -0.834  -1.256  24.703  0.00  0.00    +0.087 C 
ATOM      5  C   UNL     1      -0.228  -1.409  25.242  0.00  0.00    +0.020 C 
ATOM      6  C   UNL     1      -0.573  -1.607  25.965  0.00  0.00    +0.019 C 
ATOM      7  C   UNL     1      -1.393  -1.577  25.873  0.00  0.00    +0.072 C 
ATOM      8  N   UNL     1      -1.553  -1.360  25.093  0.00  0.00    -0.269 NA
BRANCH   4   3
ATOM      3  C   UNL     1      -0.738  -1.038  23.914  0.00  0.00    +0.158 C 
BRANCH   3   2
ATOM      1  C   UNL     1       0.106  -0.452  22.919  0.00  0.00    +0.174 C 
ATOM      2  O   UNL     1       0.017  -0.882  23.619  0.00  0.00    -0.350 OA
ENDBRANCH   3   2
ENDBRANCH   4   3
ENDBRANCH   9   8
BRANCH  12  13
ATOM     13  C   UNL     1      -4.082  -1.910  23.774  0.00  0.00    +0.214 C 
ATOM     14  O   UNL     1      -4.852  -1.618  23.826  0.00  0.00    -0.218 OA
ENDBRANCH  12  13
BRANCH  16  17
ATOM     17  C   UNL     1      -2.481   0.175  25.011  0.00  0.00    +0.148 C 
BRANCH  17  18
ATOM     18  N   UNL     1      -2.981   0.829  24.957  0.00  0.00    -0.184 NA
ATOM     19  C   UNL     1      -2.676   1.588  25.057  0.00  0.00    +0.344 C 
ATOM     20  O   UNL     1      -1.873   1.694  25.209  0.00  0.00    -0.249 OA
ATOM     21  N   UNL     1      -3.176   2.243  25.003  0.00  0.00    -0.161 NA
BRANCH  21  22
ATOM     22  C   UNL     1      -2.871   3.003  25.103  0.00  0.00    +0.075 A 
ATOM     23  C   UNL     1      -2.780   3.315  25.862  0.00  0.00    +0.020 A 
ATOM     24  C   UNL     1      -2.475   4.075  25.961  0.00  0.00    +0.039 A 
ATOM     25  C   UNL     1      -2.261   4.523  25.304  0.00  0.00    +0.147 A 
ATOM     31  C   UNL     1      -2.351   4.212  24.545  0.00  0.00    +0.039 A 
ATOM     32  C   UNL     1      -2.657   3.451  24.445  0.00  0.00    +0.020 A 
BRANCH  25  26
ATOM     26  O   UNL     1      -1.956   5.284  25.404  0.00  0.00    -0.404 OA
BRANCH  26  27
ATOM     27  C   UNL     1      -1.237   5.488  25.054  0.00  0.00    +0.575 C 
ATOM     28  F   UNL     1      -0.519   5.694  24.703  0.00  0.00    -0.133 F 
ATOM     29  F   UNL     1      -1.636   5.982  24.526  0.00  0.00    -0.133 F 
ATOM     30  F   UNL     1      -0.839   4.995  25.581  0.00  0.00    -0.133 F 
ENDBRANCH  26  27
ENDBRANCH  25  26
ENDBRANCH  21  22
ENDBRANCH  17  18
ENDBRANCH  16  17
TORSDOF 9
ENDMDL
MODEL 6
REMARK VINA RESULT:      -7.2      4.157      6.144
REMARK  Name = 
REMARK  9 active torsions:
REMARK  status: ('A' for Active; 'I' for Inactive)
REMARK    1  A    between atoms: O_2  and  C_3
REMARK    2  A    between atoms: C_3  and  C_4
REMARK    3  A    between atoms: N_8  and  C_9
REMARK    4  A    between atoms: C_12  and  C_13
REMARK    5  A    between atoms: C_16  and  C_17
REMARK    6  A    between atoms: C_17  and  N_18
REMARK    7  A    between atoms: N_21  and  C_22
REMARK    8  A    between atoms: C_25  and  O_26
REMARK    9  A    between atoms: O_26  and  C_27
REMARK                            x       y       z     vdW  Elec       q    Type
REMARK                         _______ _______ _______ _____ _____    ______ ____
ROOT
ATOM      9  C   UNL     1      -1.255   0.488  24.724  0.00  0.00    +0.120 C 
ATOM     10  C   UNL     1      -1.786  -0.105  24.942  0.00  0.00    +0.198 C 
ATOM     11  O   UNL     1      -2.456  -0.006  25.412  0.00  0.00    -0.219 OA
ATOM     12  C   UNL     1      -1.528  -0.814  24.608  0.00  0.00    +0.180 C 
ATOM     15  O   UNL     1      -0.838  -0.658  24.183  0.00  0.00    -0.350 OA
ATOM     16  C   UNL     1      -0.669   0.146  24.254  0.00  0.00    +0.154 C 
ENDROOT
BRANCH   9   8
ATOM      4  C   UNL     1      -1.726   1.869  24.538  0.00  0.00    +0.087 C 
ATOM      5  C   UNL     1      -1.618   2.580  24.942  0.00  0.00    +0.020 C 
ATOM      6  C   UNL     1      -1.128   2.436  25.589  0.00  0.00    +0.019 C 
ATOM      7  C   UNL     1      -0.933   1.634  25.586  0.00  0.00    +0.072 C 
ATOM      8  N   UNL     1      -1.302   1.284  24.937  0.00  0.00    -0.269 NA
BRANCH   4   3
ATOM      3  C   UNL     1      -2.177   1.760  23.857  0.00  0.00    +0.158 C 
BRANCH   3   2
ATOM      1  C   UNL     1      -3.059   2.288  22.863  0.00  0.00    +0.174 C 
ATOM      2  O   UNL     1      -2.558   2.404  23.508  0.00  0.00    -0.350 OA
ENDBRANCH   3   2
ENDBRANCH   4   3
ENDBRANCH   9   8
BRANCH  12  13
ATOM     13  C   UNL     1      -1.895  -1.549  24.686  0.00  0.00    +0.214 C 
ATOM     14  O   UNL     1      -1.522  -2.228  24.404  0.00  0.00    -0.218 OA
ENDBRANCH  12  13
BRANCH  16  17
ATOM     17  C   UNL     1      -0.027   0.539  23.915  0.00  0.00    +0.148 C 
BRANCH  17  18
ATOM     18  N   UNL     1       0.454   0.149  23.371  0.00  0.00    -0.184 NA
ATOM     19  C   UNL     1       1.267   0.287  23.368  0.00  0.00    +0.344 C 
ATOM     20  O   UNL     1       1.598   0.813  23.908  0.00  0.00    -0.249 OA
ATOM     21  N   UNL     1       1.749  -0.103  22.822  0.00  0.00    -0.161 NA
BRANCH  21  22
ATOM     22  C   UNL     1       2.562   0.034  22.819  0.00  0.00    +0.075 A 
ATOM     23  C   UNL     1       3.079  -0.543  23.105  0.00  0.00    +0.020 A 
ATOM     24  C   UNL     1       3.892  -0.405  23.102  0.00  0.00    +0.039 A 
ATOM     25  C   UNL     1       4.189   0.308  22.814  0.00  0.00    +0.147 A 
ATOM     31  C   UNL     1       3.673   0.885  22.528  0.00  0.00    +0.039 A 
ATOM     32  C   UNL     1       2.859   0.747  22.531  0.00  0.00    +0.020 A 
BRANCH  25  26
ATOM     26  O   UNL     1       5.003   0.445  22.811  0.00  0.00    -0.404 OA
BRANCH  26  27
ATOM     27  C   UNL     1       5.443   0.327  23.498  0.00  0.00    +0.575 C 
ATOM     28  F   UNL     1       5.883   0.210  24.187  0.00  0.00    -0.133 F 
ATOM     29  F   UNL     1       5.203   1.065  23.779  0.00  0.00    -0.133 F 
ATOM     30  F   UNL     1       5.683  -0.410  23.219  0.00  0.00    -0.133 F 
ENDBRANCH  26  27
ENDBRANCH  25  26
ENDBRANCH  21  22
ENDBRANCH  17  18
ENDBRANCH  16  17
TORSDOF 9
ENDMDL
