MODEL 1
REMARK VINA RESULT:     -14.9      0.000      0.000
REMARK  Name = 
REMARK  2 active torsions:
REMARK  status: ('A' for Active; 'I' for Inactive)
REMARK    1  A    between atoms: O_2  and  C_3
REMARK    2  A    between atoms: C_12  and  C_19
REMARK                            x       y       z     vdW  Elec       q    Type
REMARK                         _______ _______ _______ _____ _____    ______ ____
ROOT
ATOM      3  C   UNL     1      -2.250   3.899  25.014  0.00  0.00    +0.137 C 
ATOM      4  C   UNL     1      -3.069   4.001  25.004  0.00  0.00    +0.061 C 
ATOM      5  C   UNL     1      -3.420   3.255  25.008  0.00  0.00    +0.157 C 
ATOM      6  N   UNL     1      -2.819   2.691  25.021  0.00  0.00    -0.267 N 
ATOM      7  C   UNL     1      -2.095   3.089  25.025  0.00  0.00    +0.124 C 
ATOM      8  C   UNL     1      -2.884   1.869  25.029  0.00  0.00    +0.251 C 
ATOM      9  O   UNL     1      -2.172   1.452  25.041  0.00  0.00    -0.270 OA
ATOM     10  C   UNL     1      -3.568   1.408  25.026  0.00  0.00    +0.069 A 
ATOM     11  C   UNL     1      -3.389   0.603  25.036  0.00  0.00    +0.006 A 
ATOM     12  C   UNL     1      -3.998   0.044  25.035  0.00  0.00    -0.000 A 
ATOM     13  C   UNL     1      -4.784   0.292  25.024  0.00  0.00    +0.001 A 
ATOM     14  C   UNL     1      -4.964   1.098  25.013  0.00  0.00    +0.017 A 
ATOM     15  C   UNL     1      -4.355   1.654  25.014  0.00  0.00    +0.078 A 
ATOM     16  N   UNL     1      -4.653   2.425  25.002  0.00  0.00    -0.178 NA
ATOM     17  C   UNL     1      -4.236   3.137  25.000  0.00  0.00    +0.264 C 
ATOM     18  O   UNL     1      -4.697   3.821  24.987  0.00  0.00    -0.271 OA
ENDROOT
BRANCH  12  19
ATOM     19  C   UNL     1      -3.819  -0.761  25.046  0.00  0.00    -0.004 A 
ATOM     20  C   UNL     1      -3.488  -1.101  25.722  0.00  0.00    -0.000 A 
ATOM     21  C   UNL     1      -3.309  -1.906  25.732  0.00  0.00    -0.000 A 
ATOM     22  C   UNL     1      -3.461  -2.371  25.068  0.00  0.00    -0.005 A 
ATOM     23  C   UNL     1      -3.791  -2.031  24.394  0.00  0.00    -0.026 A 
ATOM     24  C   UNL     1      -3.943  -2.497  23.729  0.00  0.00    +0.031 C 
ATOM     25  C   UNL     1      -3.970  -1.226  24.383  0.00  0.00    -0.026 A 
ATOM     26  C   UNL     1      -4.301  -0.886  23.707  0.00  0.00    +0.031 C 
ENDBRANCH  12  19
BRANCH   3   2
ATOM      1  C   UNL     1      -0.883   4.314  25.025  0.00  0.00    +0.174 C 
ATOM      2  O   UNL     1      -1.686   4.500  25.014  0.00  0.00    -0.352 OA
ENDBRANCH   3   2
TORSDOF 2
ENDMDL
MODEL 2
REMARK VINA RESULT:     -14.3      1.098      2.226
REMARK  Name = 
REMARK  2 active torsions:
REMARK  status: ('A' for Active; 'I' for Inactive)
REMARK    1  A    between atoms: O_2  and  C_3
REMARK    2  A    between atoms: C_12  and  C_19
REMARK                            x       y       z     vdW  Elec       q    Type
REMARK                         _______ _______ _______ _____ _____    ______ ____
ROOT
ATOM      3  C   UNL     1      -5.356   3.473  25.580  0.00  0.00    +0.137 C 
ATOM      4  C   UNL     1      -4.595   3.645  25.313  0.00  0.00    +0.061 C 
ATOM      5  C   UNL     1      -4.236   2.938  25.088  0.00  0.00    +0.157 C 
ATOM      6  N   UNL     1      -4.776   2.327  25.215  0.00  0.00    -0.267 N 
ATOM      7  C   UNL     1      -5.469   2.658  25.519  0.00  0.00    +0.124 C 
ATOM      8  C   UNL     1      -4.682   1.520  25.077  0.00  0.00    +0.251 C 
ATOM      9  O   UNL     1      -5.331   1.046  25.263  0.00  0.00    -0.270 OA
ATOM     10  C   UNL     1      -4.024   1.123  24.777  0.00  0.00    +0.069 A 
ATOM     11  C   UNL     1      -4.159   0.311  24.725  0.00  0.00    +0.006 A 
ATOM     12  C   UNL     1      -3.568  -0.189  24.438  0.00  0.00    -0.000 A 
ATOM     13  C   UNL     1      -2.842   0.125  24.203  0.00  0.00    +0.001 A 
ATOM     14  C   UNL     1      -2.706   0.937  24.254  0.00  0.00    +0.017 A 
ATOM     15  C   UNL     1      -3.298   1.435  24.542  0.00  0.00    +0.078 A 
ATOM     16  N   UNL     1      -3.050   2.223  24.548  0.00  0.00    -0.178 NA
ATOM     17  C   UNL     1      -3.469   2.891  24.791  0.00  0.00    +0.264 C 
ATOM     18  O   UNL     1      -3.064   3.608  24.729  0.00  0.00    -0.271 OA
ENDROOT
BRANCH  12  19
ATOM     19  C   UNL     1      -3.703  -1.001  24.386  0.00  0.00    -0.004 A 
ATOM     20  C   UNL     1      -4.155  -1.305  23.766  0.00  0.00    -0.000 A 
ATOM     21  C   UNL     1      -4.290  -2.117  23.714  0.00  0.00    -0.000 A 
ATOM     22  C   UNL     1      -3.973  -2.625  24.282  0.00  0.00    -0.005 A 
ATOM     23  C   UNL     1      -3.522  -2.321  24.901  0.00  0.00    -0.026 A 
ATOM     24  C   UNL     1      -3.205  -2.829  25.469  0.00  0.00    +0.031 C 
ATOM     25  C   UNL     1      -3.387  -1.509  24.953  0.00  0.00    -0.026 A 
ATOM     26  C   UNL     1      -2.934  -1.205  25.573  0.00  0.00    +0.031 C 
ENDBRANCH  12  19
BRANCH   3   2
ATOM      1  C   UNL     1      -5.990   4.750  25.484  0.00  0.00    +0.174 C 
ATOM      2  O   UNL     1      -5.908   4.019  25.858  0.00  0.00    -0.352 OA
ENDBRANCH   3   2
TORSDOF 2
ENDMDL
MODEL 3
REMARK VINA RESULT:     -13.0      1.421      2.411
REMARK  Name = 
REMARK  2 active torsions:
REMARK  status: ('A' for Active; 'I' for Inactive)
REMARK    1  A    between atoms: O_2  and  C_3
REMARK    2  A    between atoms: C_12  and  C_19
REMARK                            x       y       z     vdW  Elec       q    Type
REMARK                         _______ _______ _______ _____ _____    ______ ____
ROOT
ATOM      3  C   UNL     1      -1.569   3.812  25.481  0.00  0.00    +0.137 C 
ATOM      4  C   UNL     1      -0.838   3.430  25.480  0.00  0.00    +0.061 C 
ATOM      5  C   UNL     1      -0.966   2.632  25.317  0.00  0.00    +0.157 C 
ATOM      6  N   UNL     1      -1.777   2.520  25.217  0.00  0.00    -0.267 N 
ATOM      7  C   UNL     1      -2.150   3.249  25.318  0.00  0.00    +0.124 C 
ATOM      8  C   UNL     1      -2.183   1.822  25.045  0.00  0.00    +0.251 C 
ATOM      9  O   UNL     1      -3.002   1.892  24.979  0.00  0.00    -0.270 OA
ATOM     10  C   UNL     1      -1.877   1.065  24.932  0.00  0.00    +0.069 A 
ATOM     11  C   UNL     1      -2.475   0.519  24.771  0.00  0.00    +0.006 A 
ATOM     12  C   UNL     1      -2.286  -0.273  24.640  0.00  0.00    -0.000 A 
ATOM     13  C   UNL     1      -1.500  -0.520  24.670  0.00  0.00    +0.001 A 
ATOM     14  C   UNL     1      -0.901   0.025  24.831  0.00  0.00    +0.017 A 
ATOM     15  C   UNL     1      -1.091   0.817  24.962  0.00  0.00    +0.078 A 
ATOM     16  N   UNL     1      -0.415   1.267  25.113  0.00  0.00    -0.178 NA
ATOM     17  C   UNL     1      -0.360   2.075  25.270  0.00  0.00    +0.264 C 
ATOM     18  O   UNL     1       0.403   2.363  25.399  0.00  0.00    -0.271 OA
ENDROOT
BRANCH  12  19
ATOM     19  C   UNL     1      -2.884  -0.818  24.479  0.00  0.00    -0.004 A 
ATOM     20  C   UNL     1      -3.416  -0.677  23.863  0.00  0.00    -0.000 A 
ATOM     21  C   UNL     1      -4.014  -1.222  23.702  0.00  0.00    -0.000 A 
ATOM     22  C   UNL     1      -4.080  -1.909  24.156  0.00  0.00    -0.005 A 
ATOM     23  C   UNL     1      -3.548  -2.049  24.770  0.00  0.00    -0.026 A 
ATOM     24  C   UNL     1      -3.614  -2.736  25.224  0.00  0.00    +0.031 C 
ATOM     25  C   UNL     1      -2.950  -1.504  24.931  0.00  0.00    -0.026 A 
ATOM     26  C   UNL     1      -2.418  -1.645  25.547  0.00  0.00    +0.031 C 
ENDBRANCH  12  19
BRANCH   3   2
ATOM      1  C   UNL     1      -1.414   5.177  25.087  0.00  0.00    +0.174 C 
ATOM      2  O   UNL     1      -1.697   4.615  25.620  0.00  0.00    -0.352 OA
ENDBRANCH   3   2
TORSDOF 2
ENDMDL
MODEL 4
REMARK VINA RESULT:     -12.8      1.691      5.093
REMARK  Name = 
REMARK  2 active torsions:
REMARK  status: ('A' for Active; 'I' for Inactive)
REMARK    1  A    between atoms: O_2  and  C_3
REMARK    2  A    between atoms: C_12  and  C_19
REMARK                            x       y       z     vdW  Elec       q    Type
REMARK                         _______ _______ _______ _____ _____    ______ ____
ROOT
ATOM      3  C   UNL     1      -3.324  -1.148  24.234  0.00  0.00    +0.137 C 
ATOM      4  C   UNL     1      -2.603  -1.336  24.588  0.00  0.00    +0.061 C 
ATOM      5  C   UNL     1      -2.242  -0.633  24.822  0.00  0.00    +0.157 C 
ATOM      6  N   UNL     1      -2.739  -0.009  24.612  0.00  0.00    -0.267 N 
ATOM      7  C   UNL     1      -3.409  -0.327  24.248  0.00  0.00    +0.124 C 
ATOM      8  C   UNL     1      -2.626   0.800  24.727  0.00  0.00    +0.251 C 
ATOM      9  O   UNL     1      -3.232   1.289  24.452  0.00  0.00    -0.270 OA
ATOM     10  C   UNL     1      -1.988   1.186  25.079  0.00  0.00    +0.069 A 
ATOM     11  C   UNL     1      -2.094   2.004  25.083  0.00  0.00    +0.006 A 
ATOM     12  C   UNL     1      -1.516   2.493  25.411  0.00  0.00    -0.000 A 
ATOM     13  C   UNL     1      -0.833   2.164  25.736  0.00  0.00    +0.001 A 
ATOM     14  C   UNL     1      -0.727   1.346  25.733  0.00  0.00    +0.017 A 
ATOM     15  C   UNL     1      -1.304   0.857  25.404  0.00  0.00    +0.078 A 
ATOM     16  N   UNL     1      -1.091   0.061  25.457  0.00  0.00    -0.178 NA
ATOM     17  C   UNL     1      -1.509  -0.601  25.198  0.00  0.00    +0.264 C 
ATOM     18  O   UNL     1      -1.143  -1.329  25.333  0.00  0.00    -0.271 OA
ENDROOT
BRANCH  12  19
ATOM     19  C   UNL     1      -1.622   3.311  25.415  0.00  0.00    -0.004 A 
ATOM     20  C   UNL     1      -2.248   3.644  25.838  0.00  0.00    -0.000 A 
ATOM     21  C   UNL     1      -2.354   4.462  25.842  0.00  0.00    -0.000 A 
ATOM     22  C   UNL     1      -1.834   4.948  25.423  0.00  0.00    -0.005 A 
ATOM     23  C   UNL     1      -1.209   4.614  25.000  0.00  0.00    -0.026 A 
ATOM     24  C   UNL     1      -0.690   5.100  24.581  0.00  0.00    +0.031 C 
ATOM     25  C   UNL     1      -1.103   3.796  24.997  0.00  0.00    -0.026 A 
ATOM     26  C   UNL     1      -0.477   3.463  24.574  0.00  0.00    +0.031 C 
ENDBRANCH  12  19
BRANCH   3   2
ATOM      1  C   UNL     1      -3.946  -2.434  24.257  0.00  0.00    +0.174 C 
ATOM      2  O   UNL     1      -3.865  -1.685  23.920  0.00  0.00    -0.352 OA
ENDBRANCH   3   2
TORSDOF 2
ENDMDL
MODEL 5
REMARK VINA RESULT:     -12.3      2.279      4.210
REMARK  Name = 
REMARK  2 active torsions:
REMARK  status: ('A' for Active; 'I' for Inactive)
REMARK    1  A    between atoms: O_2  and  C_3
REMARK    2  A    between atoms: C_12  and  C_19
REMARK                            x       y       z     vdW  Elec       q    Type
REMARK                         _______ _______ _______ _____ _____    ______ ____
ROOT
ATOM      3  C   UNL     1      -0.648  -0.992  25.071  0.00  0.00    +0.137 C 
ATOM      4  C   UNL     1      -0.398  -0.485  24.471  0.00  0.00    +0.061 C 
ATOM      5  C   UNL     1      -0.988   0.078  24.349  0.00  0.00    +0.157 C 
ATOM      6  N   UNL     1      -1.604  -0.082  24.874  0.00  0.00    -0.267 N 
ATOM      7  C   UNL     1      -1.394  -0.744  25.321  0.00  0.00    +0.124 C 
ATOM      8  C   UNL     1      -2.318   0.322  24.968  0.00  0.00    +0.251 C 
ATOM      9  O   UNL     1      -2.824   0.023  25.547  0.00  0.00    -0.270 OA
ATOM     10  C   UNL     1      -2.592   0.984  24.560  0.00  0.00    +0.069 A 
ATOM     11  C   UNL     1      -3.338   1.215  24.826  0.00  0.00    +0.006 A 
ATOM     12  C   UNL     1      -3.712   1.869  24.489  0.00  0.00    -0.000 A 
ATOM     13  C   UNL     1      -3.340   2.291  23.886  0.00  0.00    +0.001 A 
ATOM     14  C   UNL     1      -2.593   2.061  23.620  0.00  0.00    +0.017 A 
ATOM     15  C   UNL     1      -2.220   1.407  23.958  0.00  0.00    +0.078 A 
ATOM     16  N   UNL     1      -1.482   1.272  23.614  0.00  0.00    -0.178 NA
ATOM     17  C   UNL     1      -0.934   0.680  23.788  0.00  0.00    +0.264 C 
ATOM     18  O   UNL     1      -0.240   0.693  23.342  0.00  0.00    -0.271 OA
ENDROOT
BRANCH  12  19
ATOM     19  C   UNL     1      -4.458   2.099  24.754  0.00  0.00    -0.004 A 
ATOM     20  C   UNL     1      -5.108   1.603  24.640  0.00  0.00    -0.000 A 
ATOM     21  C   UNL     1      -5.854   1.834  24.906  0.00  0.00    -0.000 A 
ATOM     22  C   UNL     1      -5.951   2.560  25.286  0.00  0.00    -0.005 A 
ATOM     23  C   UNL     1      -5.301   3.055  25.399  0.00  0.00    -0.026 A 
ATOM     24  C   UNL     1      -5.398   3.782  25.779  0.00  0.00    +0.031 C 
ATOM     25  C   UNL     1      -4.555   2.825  25.134  0.00  0.00    -0.026 A 
ATOM     26  C   UNL     1      -3.905   3.321  25.248  0.00  0.00    +0.031 C 
ENDBRANCH  12  19
BRANCH   3   2
ATOM      1  C   UNL     1      -0.467  -2.404  25.192  0.00  0.00    +0.174 C 
ATOM      2  O   UNL     1      -0.227  -1.635  25.369  0.00  0.00    -0.352 OA
ENDBRANCH   3   2
TORSDOF 2
ENDMDL
MODEL 6
REMARK VINA RESULT:     -12.3      1.929      4.427
REMARK  Name = 
REMARK  2 active torsions:
REMARK  status: ('A' for Active; 'I' for Inactive)
REMARK    1  A    between atoms: O_2  and  C_3
REMARK    2  A    between atoms: C_12  and  C_19
REMARK                            x       y       z     vdW  Elec       q    Type
REMARK                         _______ _______ _______ _____ _____    ______ ____
ROOT
ATOM      3  C   UNL     1      -1.393  -1.858  24.787  0.00  0.00    +0.137 C 
ATOM      4  C   UNL     1      -2.139  -2.201  24.711  0.00  0.00    +0.061 C 
ATOM      5  C   UNL     1      -2.696  -1.595  24.662  0.00  0.00    +0.157 C 
ATOM      6  N   UNL     1      -2.294  -0.876  24.709  0.00  0.00    -0.267 N 
ATOM      7  C   UNL     1      -1.488  -1.039  24.786  0.00  0.00    +0.124 C 
ATOM      8  C   UNL     1      -2.602  -0.111  24.687  0.00  0.00    +0.251 C 
ATOM      9  O   UNL     1      -2.051   0.499  24.747  0.00  0.00    -0.270 OA
ATOM     10  C   UNL     1      -3.389   0.124  24.612  0.00  0.00    +0.069 A 
ATOM     11  C   UNL     1      -3.460   0.945  24.614  0.00  0.00    +0.006 A 
ATOM     12  C   UNL     1      -4.204   1.296  24.545  0.00  0.00    -0.000 A 
ATOM     13  C   UNL     1      -4.877   0.824  24.474  0.00  0.00    +0.001 A 
ATOM     14  C   UNL     1      -4.806   0.001  24.472  0.00  0.00    +0.017 A 
ATOM     15  C   UNL     1      -4.062  -0.348  24.541  0.00  0.00    +0.078 A 
ATOM     16  N   UNL     1      -4.114  -1.172  24.528  0.00  0.00    -0.178 NA
ATOM     17  C   UNL     1      -3.506  -1.726  24.582  0.00  0.00    +0.264 C 
ATOM     18  O   UNL     1      -3.739  -2.517  24.551  0.00  0.00    -0.271 OA
ENDROOT
BRANCH  12  19
ATOM     19  C   UNL     1      -4.275   2.117  24.546  0.00  0.00    -0.004 A 
ATOM     20  C   UNL     1      -3.871   2.567  23.984  0.00  0.00    -0.000 A 
ATOM     21  C   UNL     1      -3.942   3.389  23.986  0.00  0.00    -0.000 A 
ATOM     22  C   UNL     1      -4.417   3.761  24.549  0.00  0.00    -0.005 A 
ATOM     23  C   UNL     1      -4.821   3.311  25.109  0.00  0.00    -0.026 A 
ATOM     24  C   UNL     1      -5.296   3.684  25.672  0.00  0.00    +0.031 C 
ATOM     25  C   UNL     1      -4.750   2.490  25.108  0.00  0.00    -0.026 A 
ATOM     26  C   UNL     1      -5.154   2.040  25.670  0.00  0.00    +0.031 C 
ENDBRANCH  12  19
BRANCH   3   2
ATOM      1  C   UNL     1      -0.188  -2.134  25.504  0.00  0.00    +0.174 C 
ATOM      2  O   UNL     1      -0.678  -2.263  24.853  0.00  0.00    -0.352 OA
ENDBRANCH   3   2
TORSDOF 2
ENDMDL
MODEL 7
REMARK VINA RESULT:     -12.1      1.493      4.687
REMARK  Name = 
REMARK  2 active torsions:
REMARK  status: ('A' for Active; 'I' for Inactive)
REMARK    1  A    between atoms: O_2  and  C_3
REMARK    2  A    between atoms: C_12  and  C_19
REMARK                            x       y       z     vdW  Elec       q    Type
REMARK                         _______ _______ _______ _____ _____    ______ ____
ROOT
ATOM      3  C   UNL     1      -3.278  -1.514  25.286  0.00  0.00    +0.137 C 
ATOM      4  C   UNL     1      -3.949  -1.180  24.943  0.00  0.00    +0.061 C 
ATOM      5  C   UNL     1      -3.791  -0.385  24.792  0.00  0.00    +0.157 C 
ATOM      6  N   UNL     1      -3.021  -0.226  25.042  0.00  0.00    -0.267 N 
ATOM      7  C   UNL     1      -2.703  -0.925  25.348  0.00  0.00    +0.124 C 
ATOM      8  C   UNL     1      -2.606   0.486  25.011  0.00  0.00    +0.251 C 
ATOM      9  O   UNL     1      -1.837   0.465  25.309  0.00  0.00    -0.270 OA
ATOM     10  C   UNL     1      -2.858   1.215  24.722  0.00  0.00    +0.069 A 
ATOM     11  C   UNL     1      -2.269   1.788  24.794  0.00  0.00    +0.006 A 
ATOM     12  C   UNL     1      -2.410   2.560  24.536  0.00  0.00    -0.000 A 
ATOM     13  C   UNL     1      -3.139   2.757  24.207  0.00  0.00    +0.001 A 
ATOM     14  C   UNL     1      -3.729   2.185  24.135  0.00  0.00    +0.017 A 
ATOM     15  C   UNL     1      -3.588   1.414  24.392  0.00  0.00    +0.078 A 
ATOM     16  N   UNL     1      -4.246   0.931  24.271  0.00  0.00    -0.178 NA
ATOM     17  C   UNL     1      -4.336   0.130  24.449  0.00  0.00    +0.264 C 
ATOM     18  O   UNL     1      -5.069  -0.198  24.258  0.00  0.00    -0.271 OA
ENDROOT
BRANCH  12  19
ATOM     19  C   UNL     1      -1.821   3.133  24.608  0.00  0.00    -0.004 A 
ATOM     20  C   UNL     1      -1.069   2.993  24.296  0.00  0.00    -0.000 A 
ATOM     21  C   UNL     1      -0.480   3.565  24.368  0.00  0.00    -0.000 A 
ATOM     22  C   UNL     1      -0.641   4.278  24.751  0.00  0.00    -0.005 A 
ATOM     23  C   UNL     1      -1.392   4.417  25.062  0.00  0.00    -0.026 A 
ATOM     24  C   UNL     1      -1.554   5.130  25.446  0.00  0.00    +0.031 C 
ATOM     25  C   UNL     1      -1.981   3.844  24.991  0.00  0.00    -0.026 A 
ATOM     26  C   UNL     1      -2.733   3.984  25.303  0.00  0.00    +0.031 C 
ENDBRANCH  12  19
BRANCH   3   2
ATOM      1  C   UNL     1      -3.254  -2.908  24.973  0.00  0.00    +0.174 C 
ATOM      2  O   UNL     1      -3.195  -2.299  25.526  0.00  0.00    -0.352 OA
ENDBRANCH   3   2
TORSDOF 2
ENDMDL
MODEL 8
REMARK VINA RESULT:     -11.8      1.838      2.299
REMARK  Name = 
REMARK  2 active torsions:
REMARK  status: ('A' for Active; 'I' for Inactive)
REMARK    1  A    between atoms: O_2  and  C_3
REMARK    2  A    between atoms: C_12  and  C_19
REMARK                            x       y       z     vdW  Elec       q    Type
REMARK                         _______ _______ _______ _____ _____    ______ ____
ROOT
ATOM      3  C   UNL     1       0.407   1.791  24.209  0.00  0.00    +0.137 C 
ATOM      4  C   UNL     1      -0.202   2.293  24.450  0.00  0.00    +0.061 C 
ATOM      5  C   UNL     1      -0.877   1.836  24.572  0.00  0.00    +0.157 C 
ATOM      6  N   UNL     1      -0.686   1.051  24.407  0.00  0.00    -0.267 N 
ATOM      7  C   UNL     1       0.108   1.023  24.182  0.00  0.00    +0.124 C 
ATOM      8  C   UNL     1      -1.170   0.384  24.445  0.00  0.00    +0.251 C 
ATOM      9  O   UNL     1      -0.812  -0.331  24.243  0.00  0.00    -0.270 OA
ATOM     10  C   UNL     1      -1.965   0.338  24.659  0.00  0.00    +0.069 A 
ATOM     11  C   UNL     1      -2.243  -0.438  24.625  0.00  0.00    +0.006 A 
ATOM     12  C   UNL     1      -3.027  -0.606  24.819  0.00  0.00    -0.000 A 
ATOM     13  C   UNL     1      -3.534   0.004  25.047  0.00  0.00    +0.001 A 
ATOM     14  C   UNL     1      -3.257   0.781  25.081  0.00  0.00    +0.017 A 
ATOM     15  C   UNL     1      -2.473   0.947  24.887  0.00  0.00    +0.078 A 
ATOM     16  N   UNL     1      -2.310   1.753  24.958  0.00  0.00    -0.178 NA
ATOM     17  C   UNL     1      -1.600   2.148  24.817  0.00  0.00    +0.264 C 
ATOM     18  O   UNL     1      -1.615   2.965  24.938  0.00  0.00    -0.271 OA
ENDROOT
BRANCH  12  19
ATOM     19  C   UNL     1      -3.304  -1.382  24.785  0.00  0.00    -0.004 A 
ATOM     20  C   UNL     1      -3.087  -1.923  25.369  0.00  0.00    -0.000 A 
ATOM     21  C   UNL     1      -3.364  -2.699  25.334  0.00  0.00    -0.000 A 
ATOM     22  C   UNL     1      -3.858  -2.935  24.717  0.00  0.00    -0.005 A 
ATOM     23  C   UNL     1      -4.075  -2.393  24.134  0.00  0.00    -0.026 A 
ATOM     24  C   UNL     1      -4.570  -2.628  23.517  0.00  0.00    +0.031 C 
ATOM     25  C   UNL     1      -3.798  -1.617  24.168  0.00  0.00    -0.026 A 
ATOM     26  C   UNL     1      -4.016  -1.075  23.584  0.00  0.00    +0.031 C 
ENDBRANCH  12  19
BRANCH   3   2
ATOM      1  C   UNL     1       1.661   1.520  23.581  0.00  0.00    +0.174 C 
ATOM      2  O   UNL     1       1.179   2.018  24.027  0.00  0.00    -0.352 OA
ENDBRANCH   3   2
TORSDOF 2
ENDMDL
MODEL 9
REMARK VINA RESULT:     -11.1      1.725      2.578
REMARK  Name = 
REMARK  2 active torsions:
REMARK  status: ('A' for Active; 'I' for Inactive)
REMARK    1  A    between atoms: O_2  and  C_3
REMARK    2  A    between atoms: C_12  and  C_19
REMARK                            x       y       z     vdW  Elec       q    Type
REMARK                         _______ _______ _______ _____ _____    ______ ____
ROOT
ATOM      3  C   UNL     1      -5.041   3.533  25.579  0.00  0.00    +0.137 C 
ATOM      4  C   UNL     1      -5.555   2.930  25.351  0.00  0.00    +0.061 C 
ATOM      5  C   UNL     1      -5.103   2.270  25.152  0.00  0.00    +0.157 C 
ATOM      6  N   UNL     1      -4.308   2.465  25.256  0.00  0.00    -0.267 N 
ATOM      7  C   UNL     1      -4.270   3.246  25.520  0.00  0.00    +0.124 C 
ATOM      8  C   UNL     1      -3.642   1.995  25.131  0.00  0.00    +0.251 C 
ATOM      9  O   UNL     1      -2.916   2.354  25.287  0.00  0.00    -0.270 OA
ATOM     10  C   UNL     1      -3.606   1.213  24.871  0.00  0.00    +0.069 A 
ATOM     11  C   UNL     1      -2.827   0.948  24.819  0.00  0.00    +0.006 A 
ATOM     12  C   UNL     1      -2.668   0.178  24.569  0.00  0.00    -0.000 A 
ATOM     13  C   UNL     1      -3.290  -0.327  24.369  0.00  0.00    +0.001 A 
ATOM     14  C   UNL     1      -4.070  -0.062  24.420  0.00  0.00    +0.017 A 
ATOM     15  C   UNL     1      -4.227   0.708  24.671  0.00  0.00    +0.078 A 
ATOM     16  N   UNL     1      -5.038   0.861  24.682  0.00  0.00    -0.178 NA
ATOM     17  C   UNL     1      -5.427   1.556  24.897  0.00  0.00    +0.264 C 
ATOM     18  O   UNL     1      -6.251   1.533  24.849  0.00  0.00    -0.271 OA
ENDROOT
BRANCH  12  19
ATOM     19  C   UNL     1      -1.889  -0.088  24.518  0.00  0.00    -0.004 A 
ATOM     20  C   UNL     1      -1.377   0.242  23.960  0.00  0.00    -0.000 A 
ATOM     21  C   UNL     1      -0.598  -0.024  23.909  0.00  0.00    -0.000 A 
ATOM     22  C   UNL     1      -0.330  -0.618  24.415  0.00  0.00    -0.005 A 
ATOM     23  C   UNL     1      -0.842  -0.946  24.972  0.00  0.00    -0.026 A 
ATOM     24  C   UNL     1      -0.574  -1.541  25.478  0.00  0.00    +0.031 C 
ATOM     25  C   UNL     1      -1.621  -0.681  25.023  0.00  0.00    -0.026 A 
ATOM     26  C   UNL     1      -2.133  -1.010  25.581  0.00  0.00    +0.031 C 
ENDBRANCH  12  19
BRANCH   3   2
ATOM      1  C   UNL     1      -5.918   4.657  25.488  0.00  0.00    +0.174 C 
ATOM      2  O   UNL     1      -5.260   4.290  25.822  0.00  0.00    -0.352 OA
ENDBRANCH   3   2
TORSDOF 2
ENDMDL
