MODEL 1
REMARK VINA RESULT:     -11.9      0.000      0.000
REMARK  Name = 
REMARK  3 active torsions:
REMARK  status: ('A' for Active; 'I' for Inactive)
REMARK    1  A    between atoms: C_4  and  C_13
REMARK    2  A    between atoms: N_5  and  C_7
REMARK    3  A    between atoms: C_15  and  C_18
REMARK                            x       y       z     vdW  Elec       q    Type
REMARK                         _______ _______ _______ _____ _____    ______ ____
ROOT
ATOM      1  O   UNL     1      -5.086   3.837  25.392  0.00  0.00    -0.222 OA
ATOM      2  C   UNL     1      -4.506   3.296  25.163  0.00  0.00    +0.170 C 
ATOM      3  C   UNL     1      -4.641   2.536  24.872  0.00  0.00    +0.060 C 
ATOM      4  C   UNL     1      -3.908   2.191  24.713  0.00  0.00    +0.140 C 
ATOM      5  N   UNL     1      -3.322   2.738  24.906  0.00  0.00    -0.265 NA
ATOM      6  C   UNL     1      -3.692   3.422  25.184  0.00  0.00    +0.106 C 
ENDROOT
BRANCH   5   7
ATOM      7  C   UNL     1      -2.508   2.623  24.833  0.00  0.00    +0.063 C 
ATOM      8  C   UNL     1      -2.070   2.359  25.481  0.00  0.00    +0.048 C 
ATOM      9  C   UNL     1      -1.256   2.243  25.409  0.00  0.00    +0.144 C 
ATOM     10  O   UNL     1      -0.881   2.392  24.689  0.00  0.00    -0.354 OA
ATOM     11  C   UNL     1      -1.319   2.656  24.042  0.00  0.00    +0.144 C 
ATOM     12  C   UNL     1      -2.133   2.772  24.114  0.00  0.00    +0.048 C 
ENDBRANCH   5   7
BRANCH   4  13
ATOM     13  C   UNL     1      -3.785   1.432  24.414  0.00  0.00    +0.251 A 
ATOM     14  N   UNL     1      -3.834   0.729  24.842  0.00  0.00    -0.190 NA
ATOM     15  C   UNL     1      -3.669   0.105  24.326  0.00  0.00    +0.203 A 
ATOM     16  N   UNL     1      -3.519   0.424  23.581  0.00  0.00    -0.056 NA
ATOM     17  O   UNL     1      -3.590   1.244  23.635  0.00  0.00    -0.336 OA
BRANCH  15  18
ATOM     18  C   UNL     1      -3.658  -0.696  24.523  0.00  0.00    +0.039 A 
ATOM     19  C   UNL     1      -3.317  -0.942  25.233  0.00  0.00    +0.005 A 
ATOM     20  C   UNL     1      -3.305  -1.743  25.428  0.00  0.00    +0.030 A 
ATOM     21  C   UNL     1      -3.635  -2.299  24.915  0.00  0.00    +0.140 A 
ATOM     22  F   UNL     1      -3.623  -3.099  25.111  0.00  0.00    -0.204 F 
ATOM     23  C   UNL     1      -3.976  -2.053  24.206  0.00  0.00    +0.030 A 
ATOM     24  C   UNL     1      -3.988  -1.251  24.009  0.00  0.00    +0.005 A 
ENDBRANCH  15  18
ENDBRANCH   4  13
TORSDOF 3
ENDMDL
MODEL 2
REMARK VINA RESULT:     -11.7      2.171      3.984
REMARK  Name = 
REMARK  3 active torsions:
REMARK  status: ('A' for Active; 'I' for Inactive)
REMARK    1  A    between atoms: C_4  and  C_13
REMARK    2  A    between atoms: N_5  and  C_7
REMARK    3  A    between atoms: C_15  and  C_18
REMARK                            x       y       z     vdW  Elec       q    Type
REMARK                         _______ _______ _______ _____ _____    ______ ____
ROOT
ATOM      1  O   UNL     1      -3.950  -3.103  24.219  0.00  0.00    -0.222 OA
ATOM      2  C   UNL     1      -3.643  -2.345  24.327  0.00  0.00    +0.170 C 
ATOM      3  C   UNL     1      -4.030  -1.637  24.156  0.00  0.00    +0.060 C 
ATOM      4  C   UNL     1      -3.521  -1.016  24.349  0.00  0.00    +0.140 C 
ATOM      5  N   UNL     1      -2.821  -1.341  24.640  0.00  0.00    -0.265 NA
ATOM      6  C   UNL     1      -2.896  -2.163  24.626  0.00  0.00    +0.106 C 
ENDROOT
BRANCH   5   7
ATOM      7  C   UNL     1      -2.161  -0.920  24.899  0.00  0.00    +0.063 C 
ATOM      8  C   UNL     1      -2.085  -0.723  25.697  0.00  0.00    +0.048 C 
ATOM      9  C   UNL     1      -1.424  -0.301  25.956  0.00  0.00    +0.144 C 
ATOM     10  O   UNL     1      -0.841  -0.076  25.417  0.00  0.00    -0.354 OA
ATOM     11  C   UNL     1      -0.917  -0.274  24.620  0.00  0.00    +0.144 C 
ATOM     12  C   UNL     1      -1.577  -0.696  24.361  0.00  0.00    +0.048 C 
ENDBRANCH   5   7
BRANCH   4  13
ATOM     13  C   UNL     1      -3.684  -0.212  24.267  0.00  0.00    +0.251 A 
ATOM     14  N   UNL     1      -4.135   0.247  24.783  0.00  0.00    -0.190 NA
ATOM     15  C   UNL     1      -4.155   1.018  24.488  0.00  0.00    +0.203 A 
ATOM     16  N   UNL     1      -3.717   1.035  23.790  0.00  0.00    -0.056 NA
ATOM     17  O   UNL     1      -3.425   0.275  23.653  0.00  0.00    -0.336 OA
BRANCH  15  18
ATOM     18  C   UNL     1      -4.545   1.659  24.831  0.00  0.00    +0.039 A 
ATOM     19  C   UNL     1      -4.139   2.364  24.968  0.00  0.00    +0.005 A 
ATOM     20  C   UNL     1      -4.529   3.004  25.312  0.00  0.00    +0.030 A 
ATOM     21  C   UNL     1      -5.326   2.940  25.518  0.00  0.00    +0.140 A 
ATOM     22  F   UNL     1      -5.716   3.580  25.861  0.00  0.00    -0.204 F 
ATOM     23  C   UNL     1      -5.732   2.235  25.381  0.00  0.00    +0.030 A 
ATOM     24  C   UNL     1      -5.342   1.594  25.037  0.00  0.00    +0.005 A 
ENDBRANCH  15  18
ENDBRANCH   4  13
TORSDOF 3
ENDMDL
MODEL 3
REMARK VINA RESULT:     -11.4      1.354      2.455
REMARK  Name = 
REMARK  3 active torsions:
REMARK  status: ('A' for Active; 'I' for Inactive)
REMARK    1  A    between atoms: C_4  and  C_13
REMARK    2  A    between atoms: N_5  and  C_7
REMARK    3  A    between atoms: C_15  and  C_18
REMARK                            x       y       z     vdW  Elec       q    Type
REMARK                         _______ _______ _______ _____ _____    ______ ____
ROOT
ATOM      1  O   UNL     1       0.430   1.963  25.007  0.00  0.00    -0.222 OA
ATOM      2  C   UNL     1      -0.355   1.795  24.816  0.00  0.00    +0.170 C 
ATOM      3  C   UNL     1      -0.796   1.158  25.099  0.00  0.00    +0.060 C 
ATOM      4  C   UNL     1      -1.550   1.204  24.767  0.00  0.00    +0.140 C 
ATOM      5  N   UNL     1      -1.574   1.869  24.279  0.00  0.00    -0.265 NA
ATOM      6  C   UNL     1      -0.834   2.234  24.309  0.00  0.00    +0.106 C 
ENDROOT
BRANCH   5   7
ATOM      7  C   UNL     1      -2.222   2.124  23.837  0.00  0.00    +0.063 C 
ATOM      8  C   UNL     1      -2.308   1.882  23.053  0.00  0.00    +0.048 C 
ATOM      9  C   UNL     1      -2.956   2.137  22.611  0.00  0.00    +0.144 C 
ATOM     10  O   UNL     1      -3.519   2.633  22.954  0.00  0.00    -0.354 OA
ATOM     11  C   UNL     1      -3.434   2.875  23.737  0.00  0.00    +0.144 C 
ATOM     12  C   UNL     1      -2.785   2.620  24.180  0.00  0.00    +0.048 C 
ENDBRANCH   5   7
BRANCH   4  13
ATOM     13  C   UNL     1      -2.170   0.677  24.899  0.00  0.00    +0.251 A 
ATOM     14  N   UNL     1      -2.263  -0.062  24.545  0.00  0.00    -0.190 NA
ATOM     15  C   UNL     1      -2.958  -0.399  24.837  0.00  0.00    +0.203 A 
ATOM     16  N   UNL     1      -3.295   0.132  25.370  0.00  0.00    -0.056 NA
ATOM     17  O   UNL     1      -2.808   0.798  25.409  0.00  0.00    -0.336 OA
BRANCH  15  18
ATOM     18  C   UNL     1      -3.263  -1.138  24.630  0.00  0.00    +0.039 A 
ATOM     19  C   UNL     1      -2.941  -1.823  24.959  0.00  0.00    +0.005 A 
ATOM     20  C   UNL     1      -3.246  -2.561  24.753  0.00  0.00    +0.030 A 
ATOM     21  C   UNL     1      -3.872  -2.615  24.218  0.00  0.00    +0.140 A 
ATOM     22  F   UNL     1      -4.176  -3.352  24.011  0.00  0.00    -0.204 F 
ATOM     23  C   UNL     1      -4.193  -1.930  23.889  0.00  0.00    +0.030 A 
ATOM     24  C   UNL     1      -3.888  -1.191  24.096  0.00  0.00    +0.005 A 
ENDBRANCH  15  18
ENDBRANCH   4  13
TORSDOF 3
ENDMDL
MODEL 4
REMARK VINA RESULT:     -11.2      2.091      4.190
REMARK  Name = 
REMARK  3 active torsions:
REMARK  status: ('A' for Active; 'I' for Inactive)
REMARK    1  A    between atoms: C_4  and  C_13
REMARK    2  A    between atoms: N_5  and  C_7
REMARK    3  A    between atoms: C_15  and  C_18
REMARK                            x       y       z     vdW  Elec       q    Type
REMARK                         _______ _______ _______ _____ _____    ______ ____
ROOT
ATOM      1  O   UNL     1       0.098  -0.010  24.428  0.00  0.00    -0.222 OA
ATOM      2  C   UNL     1      -0.724  -0.051  24.480  0.00  0.00    +0.170 C 
ATOM      3  C   UNL     1      -1.252   0.552  24.285  0.00  0.00    +0.060 C 
ATOM      4  C   UNL     1      -2.017   0.274  24.420  0.00  0.00    +0.140 C 
ATOM      5  N   UNL     1      -1.961  -0.501  24.698  0.00  0.00    -0.265 NA
ATOM      6  C   UNL     1      -1.161  -0.701  24.734  0.00  0.00    +0.106 C 
ENDROOT
BRANCH   5   7
ATOM      7  C   UNL     1      -2.593  -0.990  24.902  0.00  0.00    +0.063 C 
ATOM      8  C   UNL     1      -2.854  -1.020  25.685  0.00  0.00    +0.048 C 
ATOM      9  C   UNL     1      -3.487  -1.509  25.890  0.00  0.00    +0.144 C 
ATOM     10  O   UNL     1      -3.857  -1.968  25.313  0.00  0.00    -0.354 OA
ATOM     11  C   UNL     1      -3.596  -1.937  24.531  0.00  0.00    +0.144 C 
ATOM     12  C   UNL     1      -2.964  -1.448  24.326  0.00  0.00    +0.048 C 
ENDBRANCH   5   7
BRANCH   4  13
ATOM     13  C   UNL     1      -2.715   0.696  24.298  0.00  0.00    +0.251 A 
ATOM     14  N   UNL     1      -3.065   1.219  24.832  0.00  0.00    -0.190 NA
ATOM     15  C   UNL     1      -3.752   1.516  24.485  0.00  0.00    +0.203 A 
ATOM     16  N   UNL     1      -3.827   1.177  23.737  0.00  0.00    -0.056 NA
ATOM     17  O   UNL     1      -3.186   0.670  23.621  0.00  0.00    -0.336 OA
BRANCH  15  18
ATOM     18  C   UNL     1      -4.274   2.057  24.826  0.00  0.00    +0.039 A 
ATOM     19  C   UNL     1      -4.063   2.853  24.884  0.00  0.00    +0.005 A 
ATOM     20  C   UNL     1      -4.584   3.393  25.225  0.00  0.00    +0.030 A 
ATOM     21  C   UNL     1      -5.316   3.139  25.509  0.00  0.00    +0.140 A 
ATOM     22  F   UNL     1      -5.836   3.679  25.850  0.00  0.00    -0.204 F 
ATOM     23  C   UNL     1      -5.526   2.343  25.452  0.00  0.00    +0.030 A 
ATOM     24  C   UNL     1      -5.005   1.802  25.110  0.00  0.00    +0.005 A 
ENDBRANCH  15  18
ENDBRANCH   4  13
TORSDOF 3
ENDMDL
