MODEL 1
REMARK VINA RESULT:     -14.1      0.000      0.000
REMARK  Name = 
REMARK  5 active torsions:
REMARK  status: ('A' for Active; 'I' for Inactive)
REMARK    1  A    between atoms: N_4  and  C_21
REMARK    2  A    between atoms: C_7  and  C_8
REMARK    3  A    between atoms: C_10  and  N_11
REMARK    4  A    between atoms: C_12  and  C_14
REMARK    5  A    between atoms: C_24  and  C_27
REMARK                            x       y       z     vdW  Elec       q    Type
REMARK                         _______ _______ _______ _____ _____    ______ ____
ROOT
ATOM      1  C   UNL     1      -5.927   1.965  25.130  0.00  0.00    +0.054 C 
ATOM      2  C   UNL     1      -5.266   1.480  25.029  0.00  0.00    +0.077 A 
ATOM      3  N   UNL     1      -5.276   0.661  24.938  0.00  0.00    -0.170 NA
ATOM      4  N   UNL     1      -4.496   0.405  24.853  0.00  0.00    -0.234 N 
ATOM      5  C   UNL     1      -4.005   1.066  24.892  0.00  0.00    +0.058 A 
ATOM      6  C   UNL     1      -3.181   1.063  24.833  0.00  0.00    +0.052 C 
ATOM      7  C   UNL     1      -4.481   1.731  25.001  0.00  0.00    +0.010 A 
ENDROOT
BRANCH   4  21
ATOM     21  C   UNL     1      -4.250  -0.376  24.748  0.00  0.00    +0.082 A 
ATOM     22  C   UNL     1      -4.332  -0.738  24.012  0.00  0.00    +0.019 A 
ATOM     23  C   UNL     1      -4.087  -1.519  23.907  0.00  0.00    -0.003 A 
ATOM     24  C   UNL     1      -3.760  -1.937  24.537  0.00  0.00    -0.023 A 
ATOM     25  C   UNL     1      -3.678  -1.575  25.275  0.00  0.00    -0.003 A 
ATOM     26  C   UNL     1      -3.924  -0.794  25.380  0.00  0.00    +0.019 A 
BRANCH  24  27
ATOM     27  C   UNL     1      -3.515  -2.718  24.432  0.00  0.00    +0.019 C 
ATOM     28  C   UNL     1      -3.269  -3.498  24.328  0.00  0.00    +0.004 C 
ATOM     29  C   UNL     1      -4.146  -2.847  23.916  0.00  0.00    +0.004 C 
ATOM     30  C   UNL     1      -2.884  -2.589  24.948  0.00  0.00    +0.004 C 
ENDBRANCH  24  27
ENDBRANCH   4  21
BRANCH   7   8
ATOM      8  C   UNL     1      -4.217   2.510  25.069  0.00  0.00    +0.048 C 
ATOM      9  C   UNL     1      -3.510   2.811  24.769  0.00  0.00    +0.035 C 
ATOM     10  C   UNL     1      -3.470   3.611  24.965  0.00  0.00    +0.118 C 
ATOM     19  C   UNL     1      -4.153   3.805  25.386  0.00  0.00    -0.009 C 
ATOM     20  C   UNL     1      -4.614   3.125  25.451  0.00  0.00    -0.025 C 
BRANCH  10  11
ATOM     11  N   UNL     1      -2.857   4.128  24.773  0.00  0.00    -0.196 NA
ATOM     12  C   UNL     1      -2.246   4.262  25.312  0.00  0.00    +0.300 C 
ATOM     13  O   UNL     1      -2.248   3.879  26.042  0.00  0.00    -0.265 OA
BRANCH  12  14
ATOM     14  C   UNL     1      -1.632   4.779  25.119  0.00  0.00    +0.200 A 
ATOM     15  C   UNL     1      -0.871   4.563  24.885  0.00  0.00    +0.046 A 
ATOM     16  C   UNL     1      -0.440   5.253  24.748  0.00  0.00    +0.044 A 
ATOM     17  C   UNL     1      -0.936   5.896  24.898  0.00  0.00    +0.180 A 
ATOM     18  O   UNL     1      -1.672   5.603  25.127  0.00  0.00    -0.446 OA
ENDBRANCH  12  14
ENDBRANCH  10  11
ENDBRANCH   7   8
TORSDOF 5
ENDMDL
MODEL 2
REMARK VINA RESULT:     -11.8      1.851      5.832
REMARK  Name = 
REMARK  5 active torsions:
REMARK  status: ('A' for Active; 'I' for Inactive)
REMARK    1  A    between atoms: N_4  and  C_21
REMARK    2  A    between atoms: C_7  and  C_8
REMARK    3  A    between atoms: C_10  and  N_11
REMARK    4  A    between atoms: C_12  and  C_14
REMARK    5  A    between atoms: C_24  and  C_27
REMARK                            x       y       z     vdW  Elec       q    Type
REMARK                         _______ _______ _______ _____ _____    ______ ____
ROOT
ATOM      1  C   UNL     1      -5.548   2.366  25.720  0.00  0.00    +0.054 C 
ATOM      2  C   UNL     1      -4.772   2.481  25.462  0.00  0.00    +0.077 A 
ATOM      3  N   UNL     1      -4.342   3.182  25.519  0.00  0.00    -0.170 NA
ATOM      4  N   UNL     1      -3.595   3.049  25.195  0.00  0.00    -0.234 N 
ATOM      5  C   UNL     1      -3.563   2.265  24.939  0.00  0.00    +0.058 A 
ATOM      6  C   UNL     1      -2.917   1.897  24.580  0.00  0.00    +0.052 C 
ATOM      7  C   UNL     1      -4.292   1.914  25.104  0.00  0.00    +0.010 A 
ENDROOT
BRANCH   4  21
ATOM     21  C   UNL     1      -2.985   3.602  25.137  0.00  0.00    +0.082 A 
ATOM     22  C   UNL     1      -2.942   4.100  24.481  0.00  0.00    +0.019 A 
ATOM     23  C   UNL     1      -2.332   4.654  24.423  0.00  0.00    -0.003 A 
ATOM     24  C   UNL     1      -1.768   4.709  25.021  0.00  0.00    -0.023 A 
ATOM     25  C   UNL     1      -1.811   4.211  25.678  0.00  0.00    -0.003 A 
ATOM     26  C   UNL     1      -2.420   3.657  25.735  0.00  0.00    +0.019 A 
BRANCH  24  27
ATOM     27  C   UNL     1      -1.158   5.263  24.963  0.00  0.00    +0.019 C 
ATOM     28  C   UNL     1      -0.549   5.816  24.906  0.00  0.00    +0.004 C 
ATOM     29  C   UNL     1      -1.696   5.871  25.112  0.00  0.00    +0.004 C 
ATOM     30  C   UNL     1      -0.621   4.655  24.815  0.00  0.00    +0.004 C 
ENDBRANCH  24  27
ENDBRANCH   4  21
BRANCH   7   8
ATOM      8  C   UNL     1      -4.501   1.133  24.940  0.00  0.00    +0.048 C 
ATOM      9  C   UNL     1      -4.055   0.463  25.119  0.00  0.00    +0.035 C 
ATOM     10  C   UNL     1      -4.472  -0.199  24.857  0.00  0.00    +0.118 C 
ATOM     19  C   UNL     1      -5.176   0.063  24.515  0.00  0.00    -0.009 C 
ATOM     20  C   UNL     1      -5.194   0.885  24.566  0.00  0.00    -0.025 C 
BRANCH  10  11
ATOM     11  N   UNL     1      -4.229  -0.984  24.924  0.00  0.00    -0.196 NA
ATOM     12  C   UNL     1      -3.951  -1.389  24.261  0.00  0.00    +0.300 C 
ATOM     13  O   UNL     1      -3.916  -1.009  23.530  0.00  0.00    -0.265 OA
BRANCH  12  14
ATOM     14  C   UNL     1      -3.708  -2.175  24.329  0.00  0.00    +0.200 A 
ATOM     15  C   UNL     1      -3.027  -2.440  24.712  0.00  0.00    +0.046 A 
ATOM     16  C   UNL     1      -3.001  -3.262  24.646  0.00  0.00    +0.044 A 
ATOM     17  C   UNL     1      -3.667  -3.505  24.222  0.00  0.00    +0.180 A 
ATOM     18  O   UNL     1      -4.103  -2.832  24.026  0.00  0.00    -0.446 OA
ENDBRANCH  12  14
ENDBRANCH  10  11
ENDBRANCH   7   8
TORSDOF 5
ENDMDL
MODEL 3
REMARK VINA RESULT:     -11.2      3.191      4.859
REMARK  Name = 
REMARK  5 active torsions:
REMARK  status: ('A' for Active; 'I' for Inactive)
REMARK    1  A    between atoms: N_4  and  C_21
REMARK    2  A    between atoms: C_7  and  C_8
REMARK    3  A    between atoms: C_10  and  N_11
REMARK    4  A    between atoms: C_12  and  C_14
REMARK    5  A    between atoms: C_24  and  C_27
REMARK                            x       y       z     vdW  Elec       q    Type
REMARK                         _______ _______ _______ _____ _____    ______ ____
ROOT
ATOM      1  C   UNL     1      -2.831  -1.800  24.268  0.00  0.00    +0.054 C 
ATOM      2  C   UNL     1      -2.931  -1.001  24.453  0.00  0.00    +0.077 A 
ATOM      3  N   UNL     1      -3.651  -0.616  24.558  0.00  0.00    -0.170 NA
ATOM      4  N   UNL     1      -3.493   0.175  24.734  0.00  0.00    -0.234 N 
ATOM      5  C   UNL     1      -2.675   0.277  24.737  0.00  0.00    +0.058 A 
ATOM      6  C   UNL     1      -2.274   0.983  24.888  0.00  0.00    +0.052 C 
ATOM      7  C   UNL     1      -2.327  -0.451  24.563  0.00  0.00    +0.010 A 
ENDROOT
BRANCH   4  21
ATOM     21  C   UNL     1      -4.056   0.761  24.881  0.00  0.00    +0.082 A 
ATOM     22  C   UNL     1      -4.593   0.670  25.499  0.00  0.00    +0.019 A 
ATOM     23  C   UNL     1      -5.155   1.256  25.646  0.00  0.00    -0.003 A 
ATOM     24  C   UNL     1      -5.180   1.932  25.175  0.00  0.00    -0.023 A 
ATOM     25  C   UNL     1      -4.641   2.023  24.556  0.00  0.00    -0.003 A 
ATOM     26  C   UNL     1      -4.079   1.437  24.409  0.00  0.00    +0.019 A 
BRANCH  24  27
ATOM     27  C   UNL     1      -5.742   2.518  25.322  0.00  0.00    +0.019 C 
ATOM     28  C   UNL     1      -6.304   3.104  25.469  0.00  0.00    +0.004 C 
ATOM     29  C   UNL     1      -5.146   3.022  25.591  0.00  0.00    +0.004 C 
ATOM     30  C   UNL     1      -6.337   2.015  25.053  0.00  0.00    +0.004 C 
ENDBRANCH  24  27
ENDBRANCH   4  21
BRANCH   7   8
ATOM      8  C   UNL     1      -1.517  -0.600  24.510  0.00  0.00    +0.048 C 
ATOM      9  C   UNL     1      -1.049  -0.506  23.838  0.00  0.00    +0.035 C 
ATOM     10  C   UNL     1      -0.276  -0.716  24.033  0.00  0.00    +0.118 C 
ATOM     19  C   UNL     1      -0.266  -0.942  24.827  0.00  0.00    -0.009 C 
ATOM     20  C   UNL     1      -1.033  -0.869  25.122  0.00  0.00    -0.025 C 
BRANCH  10  11
ATOM     11  N   UNL     1       0.373  -0.705  23.525  0.00  0.00    -0.196 NA
ATOM     12  C   UNL     1       0.797  -0.007  23.411  0.00  0.00    +0.300 C 
ATOM     13  O   UNL     1       0.572   0.682  23.806  0.00  0.00    -0.265 OA
BRANCH  12  14
ATOM     14  C   UNL     1       1.447   0.004  22.903  0.00  0.00    +0.200 A 
ATOM     15  C   UNL     1       2.195   0.306  23.078  0.00  0.00    +0.046 A 
ATOM     16  C   UNL     1       2.673   0.203  22.413  0.00  0.00    +0.044 A 
ATOM     17  C   UNL     1       2.221  -0.163  21.828  0.00  0.00    +0.180 A 
ATOM     18  O   UNL     1       1.463  -0.286  22.131  0.00  0.00    -0.446 OA
ENDBRANCH  12  14
ENDBRANCH  10  11
ENDBRANCH   7   8
TORSDOF 5
ENDMDL
MODEL 4
REMARK VINA RESULT:     -11.1      2.023      2.774
REMARK  Name = 
REMARK  5 active torsions:
REMARK  status: ('A' for Active; 'I' for Inactive)
REMARK    1  A    between atoms: N_4  and  C_21
REMARK    2  A    between atoms: C_7  and  C_8
REMARK    3  A    between atoms: C_10  and  N_11
REMARK    4  A    between atoms: C_12  and  C_14
REMARK    5  A    between atoms: C_24  and  C_27
REMARK                            x       y       z     vdW  Elec       q    Type
REMARK                         _______ _______ _______ _____ _____    ______ ____
ROOT
ATOM      1  C   UNL     1       0.393   0.404  23.978  0.00  0.00    +0.054 C 
ATOM      2  C   UNL     1      -0.363   0.195  24.236  0.00  0.00    +0.077 A 
ATOM      3  N   UNL     1      -0.764  -0.500  24.048  0.00  0.00    -0.170 NA
ATOM      4  N   UNL     1      -1.499  -0.481  24.424  0.00  0.00    -0.234 N 
ATOM      5  C   UNL     1      -1.551   0.227  24.844  0.00  0.00    +0.058 A 
ATOM      6  C   UNL     1      -2.194   0.474  25.300  0.00  0.00    +0.052 C 
ATOM      7  C   UNL     1      -0.849   0.645  24.728  0.00  0.00    +0.010 A 
ENDROOT
BRANCH   4  21
ATOM     21  C   UNL     1      -2.079  -1.067  24.386  0.00  0.00    +0.082 A 
ATOM     22  C   UNL     1      -2.816  -0.895  24.059  0.00  0.00    +0.019 A 
ATOM     23  C   UNL     1      -3.397  -1.480  24.021  0.00  0.00    -0.003 A 
ATOM     24  C   UNL     1      -3.239  -2.236  24.309  0.00  0.00    -0.023 A 
ATOM     25  C   UNL     1      -2.501  -2.409  24.636  0.00  0.00    -0.003 A 
ATOM     26  C   UNL     1      -1.921  -1.823  24.674  0.00  0.00    +0.019 A 
BRANCH  24  27
ATOM     27  C   UNL     1      -3.820  -2.822  24.271  0.00  0.00    +0.019 C 
ATOM     28  C   UNL     1      -4.400  -3.407  24.233  0.00  0.00    +0.004 C 
ATOM     29  C   UNL     1      -3.354  -3.314  24.743  0.00  0.00    +0.004 C 
ATOM     30  C   UNL     1      -4.285  -2.330  23.800  0.00  0.00    +0.004 C 
ENDBRANCH  24  27
ENDBRANCH   4  21
BRANCH   7   8
ATOM      8  C   UNL     1      -0.667   1.383  25.048  0.00  0.00    +0.048 C 
ATOM      9  C   UNL     1      -0.809   2.114  24.695  0.00  0.00    +0.035 C 
ATOM     10  C   UNL     1      -0.540   2.702  25.207  0.00  0.00    +0.118 C 
ATOM     19  C   UNL     1      -0.231   2.333  25.878  0.00  0.00    -0.009 C 
ATOM     20  C   UNL     1      -0.310   1.519  25.780  0.00  0.00    -0.025 C 
BRANCH  10  11
ATOM     11  N   UNL     1      -0.573   3.515  25.073  0.00  0.00    -0.196 NA
ATOM     12  C   UNL     1      -1.253   3.939  25.270  0.00  0.00    +0.300 C 
ATOM     13  O   UNL     1      -1.901   3.550  25.601  0.00  0.00    -0.265 OA
BRANCH  12  14
ATOM     14  C   UNL     1      -1.285   4.753  25.136  0.00  0.00    +0.200 A 
ATOM     15  C   UNL     1      -1.938   5.240  25.266  0.00  0.00    +0.046 A 
ATOM     16  C   UNL     1      -1.727   6.011  25.059  0.00  0.00    +0.044 A 
ATOM     17  C   UNL     1      -0.943   5.999  24.801  0.00  0.00    +0.180 A 
ATOM     18  O   UNL     1      -0.670   5.222  24.849  0.00  0.00    -0.446 OA
ENDBRANCH  12  14
ENDBRANCH  10  11
ENDBRANCH   7   8
TORSDOF 5
ENDMDL
MODEL 5
REMARK VINA RESULT:     -11.1      2.628      6.499
REMARK  Name = 
REMARK  5 active torsions:
REMARK  status: ('A' for Active; 'I' for Inactive)
REMARK    1  A    between atoms: N_4  and  C_21
REMARK    2  A    between atoms: C_7  and  C_8
REMARK    3  A    between atoms: C_10  and  N_11
REMARK    4  A    between atoms: C_12  and  C_14
REMARK    5  A    between atoms: C_24  and  C_27
REMARK                            x       y       z     vdW  Elec       q    Type
REMARK                         _______ _______ _______ _____ _____    ______ ____
ROOT
ATOM      1  C   UNL     1       0.574   0.305  23.871  0.00  0.00    +0.054 C 
ATOM      2  C   UNL     1       0.014   0.819  24.194  0.00  0.00    +0.077 A 
ATOM      3  N   UNL     1       0.053   1.643  24.190  0.00  0.00    -0.170 NA
ATOM      4  N   UNL     1      -0.619   1.932  24.572  0.00  0.00    -0.234 N 
ATOM      5  C   UNL     1      -1.073   1.286  24.811  0.00  0.00    +0.058 A 
ATOM      6  C   UNL     1      -1.793   1.322  25.214  0.00  0.00    +0.052 C 
ATOM      7  C   UNL     1      -0.682   0.598  24.578  0.00  0.00    +0.010 A 
ENDROOT
BRANCH   4  21
ATOM     21  C   UNL     1      -0.805   2.727  24.692  0.00  0.00    +0.082 A 
ATOM     22  C   UNL     1      -0.483   3.131  25.335  0.00  0.00    +0.019 A 
ATOM     23  C   UNL     1      -0.668   3.927  25.456  0.00  0.00    -0.003 A 
ATOM     24  C   UNL     1      -1.175   4.316  24.935  0.00  0.00    -0.023 A 
ATOM     25  C   UNL     1      -1.497   3.911  24.291  0.00  0.00    -0.003 A 
ATOM     26  C   UNL     1      -1.311   3.115  24.171  0.00  0.00    +0.019 A 
BRANCH  24  27
ATOM     27  C   UNL     1      -1.360   5.111  25.056  0.00  0.00    +0.019 C 
ATOM     28  C   UNL     1      -1.546   5.905  25.176  0.00  0.00    +0.004 C 
ATOM     29  C   UNL     1      -0.645   5.331  24.706  0.00  0.00    +0.004 C 
ATOM     30  C   UNL     1      -2.074   4.891  25.404  0.00  0.00    +0.004 C 
ENDBRANCH  24  27
ENDBRANCH   4  21
BRANCH   7   8
ATOM      8  C   UNL     1      -0.942  -0.174  24.707  0.00  0.00    +0.048 C 
ATOM      9  C   UNL     1      -1.540  -0.561  24.292  0.00  0.00    +0.035 C 
ATOM     10  C   UNL     1      -1.617  -1.320  24.602  0.00  0.00    +0.118 C 
ATOM     19  C   UNL     1      -1.065  -1.404  25.210  0.00  0.00    -0.009 C 
ATOM     20  C   UNL     1      -0.648  -0.696  25.274  0.00  0.00    -0.025 C 
BRANCH  10  11
ATOM     11  N   UNL     1      -2.151  -1.897  24.350  0.00  0.00    -0.196 NA
ATOM     12  C   UNL     1      -2.917  -1.911  24.655  0.00  0.00    +0.300 C 
ATOM     13  O   UNL     1      -3.151  -1.350  25.212  0.00  0.00    -0.265 OA
BRANCH  12  14
ATOM     14  C   UNL     1      -3.451  -2.488  24.402  0.00  0.00    +0.200 A 
ATOM     15  C   UNL     1      -4.099  -2.366  23.906  0.00  0.00    +0.046 A 
ATOM     16  C   UNL     1      -4.478  -3.090  23.799  0.00  0.00    +0.044 A 
ATOM     17  C   UNL     1      -4.065  -3.661  24.229  0.00  0.00    +0.180 A 
ATOM     18  O   UNL     1      -3.430  -3.288  24.602  0.00  0.00    -0.446 OA
ENDBRANCH  12  14
ENDBRANCH  10  11
ENDBRANCH   7   8
TORSDOF 5
ENDMDL
MODEL 6
REMARK VINA RESULT:     -11.0      3.035      4.824
REMARK  Name = 
REMARK  5 active torsions:
REMARK  status: ('A' for Active; 'I' for Inactive)
REMARK    1  A    between atoms: N_4  and  C_21
REMARK    2  A    between atoms: C_7  and  C_8
REMARK    3  A    between atoms: C_10  and  N_11
REMARK    4  A    between atoms: C_12  and  C_14
REMARK    5  A    between atoms: C_24  and  C_27
REMARK                            x       y       z     vdW  Elec       q    Type
REMARK                         _______ _______ _______ _____ _____    ______ ____
ROOT
ATOM      1  C   UNL     1      -0.987   4.318  24.872  0.00  0.00    +0.054 C 
ATOM      2  C   UNL     1      -1.545   3.711  24.924  0.00  0.00    +0.077 A 
ATOM      3  N   UNL     1      -2.362   3.808  24.975  0.00  0.00    -0.170 NA
ATOM      4  N   UNL     1      -2.705   3.058  25.017  0.00  0.00    -0.234 N 
ATOM      5  C   UNL     1      -2.099   2.499  24.992  0.00  0.00    +0.058 A 
ATOM      6  C   UNL     1      -2.194   1.679  25.020  0.00  0.00    +0.052 C 
ATOM      7  C   UNL     1      -1.381   2.902  24.935  0.00  0.00    +0.010 A 
ENDROOT
BRANCH   4  21
ATOM     21  C   UNL     1      -3.512   2.897  25.073  0.00  0.00    +0.082 A 
ATOM     22  C   UNL     1      -3.907   2.547  24.440  0.00  0.00    +0.019 A 
ATOM     23  C   UNL     1      -4.715   2.385  24.496  0.00  0.00    -0.003 A 
ATOM     24  C   UNL     1      -5.126   2.573  25.185  0.00  0.00    -0.023 A 
ATOM     25  C   UNL     1      -4.731   2.924  25.820  0.00  0.00    -0.003 A 
ATOM     26  C   UNL     1      -3.923   3.085  25.763  0.00  0.00    +0.019 A 
BRANCH  24  27
ATOM     27  C   UNL     1      -5.933   2.412  25.242  0.00  0.00    +0.019 C 
ATOM     28  C   UNL     1      -6.740   2.250  25.298  0.00  0.00    +0.004 C 
ATOM     29  C   UNL     1      -6.043   3.109  25.670  0.00  0.00    +0.004 C 
ATOM     30  C   UNL     1      -5.823   1.715  24.814  0.00  0.00    +0.004 C 
ENDBRANCH  24  27
ENDBRANCH   4  21
BRANCH   7   8
ATOM      8  C   UNL     1      -0.633   2.557  24.896  0.00  0.00    +0.048 C 
ATOM      9  C   UNL     1      -0.239   2.329  24.209  0.00  0.00    +0.035 C 
ATOM     10  C   UNL     1       0.489   2.010  24.426  0.00  0.00    +0.118 C 
ATOM     19  C   UNL     1       0.545   2.040  25.249  0.00  0.00    -0.009 C 
ATOM     20  C   UNL     1      -0.148   2.378  25.539  0.00  0.00    -0.025 C 
BRANCH  10  11
ATOM     11  N   UNL     1       1.062   1.712  23.913  0.00  0.00    -0.196 NA
ATOM     12  C   UNL     1       1.063   0.911  23.714  0.00  0.00    +0.300 C 
ATOM     13  O   UNL     1       0.491   0.407  24.030  0.00  0.00    -0.265 OA
BRANCH  12  14
ATOM     14  C   UNL     1       1.636   0.614  23.200  0.00  0.00    +0.200 A 
ATOM     15  C   UNL     1       1.524   0.018  22.641  0.00  0.00    +0.046 A 
ATOM     16  C   UNL     1       2.241  -0.104  22.251  0.00  0.00    +0.044 A 
ATOM     17  C   UNL     1       2.796   0.417  22.569  0.00  0.00    +0.180 A 
ATOM     18  O   UNL     1       2.422   0.861  23.156  0.00  0.00    -0.446 OA
ENDBRANCH  12  14
ENDBRANCH  10  11
ENDBRANCH   7   8
TORSDOF 5
ENDMDL
MODEL 7
REMARK VINA RESULT:     -10.7      3.957      5.231
REMARK  Name = 
REMARK  5 active torsions:
REMARK  status: ('A' for Active; 'I' for Inactive)
REMARK    1  A    between atoms: N_4  and  C_21
REMARK    2  A    between atoms: C_7  and  C_8
REMARK    3  A    between atoms: C_10  and  N_11
REMARK    4  A    between atoms: C_12  and  C_14
REMARK    5  A    between atoms: C_24  and  C_27
REMARK                            x       y       z     vdW  Elec       q    Type
REMARK                         _______ _______ _______ _____ _____    ______ ____
ROOT
ATOM      1  C   UNL     1      -0.693  -0.937  25.188  0.00  0.00    +0.054 C 
ATOM      2  C   UNL     1      -1.143  -0.320  24.873  0.00  0.00    +0.077 A 
ATOM      3  N   UNL     1      -1.885  -0.079  25.138  0.00  0.00    -0.170 NA
ATOM      4  N   UNL     1      -2.130   0.554  24.667  0.00  0.00    -0.234 N 
ATOM      5  C   UNL     1      -1.538   0.702  24.112  0.00  0.00    +0.058 A 
ATOM      6  C   UNL     1      -1.554   1.288  23.531  0.00  0.00    +0.052 C 
ATOM      7  C   UNL     1      -0.927   0.161  24.239  0.00  0.00    +0.010 A 
ENDROOT
BRANCH   4  21
ATOM     21  C   UNL     1      -2.841   0.966  24.739  0.00  0.00    +0.082 A 
ATOM     22  C   UNL     1      -2.843   1.736  25.034  0.00  0.00    +0.019 A 
ATOM     23  C   UNL     1      -3.555   2.148  25.106  0.00  0.00    -0.003 A 
ATOM     24  C   UNL     1      -4.263   1.790  24.883  0.00  0.00    -0.023 A 
ATOM     25  C   UNL     1      -4.261   1.019  24.588  0.00  0.00    -0.003 A 
ATOM     26  C   UNL     1      -3.549   0.607  24.516  0.00  0.00    +0.019 A 
BRANCH  24  27
ATOM     27  C   UNL     1      -4.975   2.202  24.955  0.00  0.00    +0.019 C 
ATOM     28  C   UNL     1      -5.686   2.613  25.027  0.00  0.00    +0.004 C 
ATOM     29  C   UNL     1      -4.651   2.834  24.535  0.00  0.00    +0.004 C 
ATOM     30  C   UNL     1      -5.297   1.570  25.375  0.00  0.00    +0.004 C 
ENDBRANCH  24  27
ENDBRANCH   4  21
BRANCH   7   8
ATOM      8  C   UNL     1      -0.226   0.113  23.808  0.00  0.00    +0.048 C 
ATOM      9  C   UNL     1       0.489   0.475  24.000  0.00  0.00    +0.035 C 
ATOM     10  C   UNL     1       1.039   0.279  23.419  0.00  0.00    +0.118 C 
ATOM     19  C   UNL     1       0.665  -0.206  22.866  0.00  0.00    -0.009 C 
ATOM     20  C   UNL     1      -0.117  -0.309  23.106  0.00  0.00    -0.025 C 
BRANCH  10  11
ATOM     11  N   UNL     1       1.827   0.524  23.393  0.00  0.00    -0.196 NA
ATOM     12  C   UNL     1       2.333   0.226  22.814  0.00  0.00    +0.300 C 
ATOM     13  O   UNL     1       2.053  -0.317  22.260  0.00  0.00    -0.265 OA
BRANCH  12  14
ATOM     14  C   UNL     1       3.121   0.471  22.789  0.00  0.00    +0.200 A 
ATOM     15  C   UNL     1       3.783  -0.015  22.870  0.00  0.00    +0.046 A 
ATOM     16  C   UNL     1       4.456   0.459  22.809  0.00  0.00    +0.044 A 
ATOM     17  C   UNL     1       4.210   1.238  22.691  0.00  0.00    +0.180 A 
ATOM     18  O   UNL     1       3.384   1.245  22.678  0.00  0.00    -0.446 OA
ENDBRANCH  12  14
ENDBRANCH  10  11
ENDBRANCH   7   8
TORSDOF 5
ENDMDL
