MODEL 1
REMARK VINA RESULT:      -8.8      0.000      0.000
REMARK  Name = 
REMARK  6 active torsions:
REMARK  status: ('A' for Active; 'I' for Inactive)
REMARK    1  A    between atoms: O_2  and  C_3
REMARK    2  A    between atoms: C_3  and  C_5
REMARK    3  A    between atoms: C_5  and  O_6
REMARK    4  A    between atoms: O_6  and  C_7
REMARK    5  A    between atoms: C_11  and  N_15
REMARK    6  A    between atoms: C_18  and  C_22
REMARK                            x       y       z     vdW  Elec       q    Type
REMARK                         _______ _______ _______ _____ _____    ______ ____
ROOT
ATOM      7  C   UNL     1      -0.107   0.600  23.802  0.00  0.00    +0.175 C 
ATOM      8  C   UNL     1      -0.469  -0.080  24.098  0.00  0.00    +0.174 C 
ATOM      9  O   UNL     1      -1.168   0.146  24.472  0.00  0.00    -0.349 OA
ATOM     10  C   UNL     1      -1.239   0.966  24.409  0.00  0.00    +0.167 C 
ATOM     11  C   UNL     1      -1.714   1.612  24.601  0.00  0.00    +0.154 C 
ATOM     12  C   UNL     1      -1.352   2.291  24.305  0.00  0.00    +0.166 C 
ATOM     13  O   UNL     1      -0.653   2.066  23.930  0.00  0.00    -0.349 OA
ATOM     14  C   UNL     1      -0.583   1.246  23.994  0.00  0.00    +0.173 C 
ENDROOT
BRANCH  11  15
ATOM     15  N   UNL     1      -2.427   1.583  25.016  0.00  0.00    -0.200 NA
ATOM     16  C   UNL     1      -3.089   1.978  24.724  0.00  0.00    +0.236 A 
ATOM     17  N   UNL     1      -3.802   1.949  25.139  0.00  0.00    -0.217 NA
ATOM     18  C   UNL     1      -4.465   2.344  24.847  0.00  0.00    +0.063 A 
ATOM     19  C   UNL     1      -4.416   2.768  24.141  0.00  0.00    +0.035 A 
ATOM     20  C   UNL     1      -3.704   2.796  23.727  0.00  0.00    +0.103 A 
ATOM     21  N   UNL     1      -3.040   2.402  24.018  0.00  0.00    -0.211 NA
BRANCH  18  22
ATOM     22  C   UNL     1      -5.178   2.316  25.263  0.00  0.00    +0.036 C 
ATOM     23  C   UNL     1      -5.890   2.287  25.677  0.00  0.00    +0.006 C 
ATOM     24  C   UNL     1      -5.359   1.596  24.902  0.00  0.00    +0.006 C 
ATOM     25  C   UNL     1      -4.997   3.035  25.623  0.00  0.00    +0.006 C 
ENDBRANCH  18  22
ENDBRANCH  11  15
BRANCH   7   6
ATOM      6  O   UNL     1       0.605   0.628  23.387  0.00  0.00    -0.340 OA
BRANCH   6   5
ATOM      5  C   UNL     1       0.955  -0.069  23.119  0.00  0.00    +0.252 C 
BRANCH   5   3
ATOM      3  C   UNL     1       1.601  -0.037  22.607  0.00  0.00    +0.348 C 
ATOM      4  O   UNL     1       1.515  -0.266  21.820  0.00  0.00    -0.247 OA
BRANCH   3   2
ATOM      1  C   UNL     1       2.999   0.171  22.400  0.00  0.00    +0.256 C 
ATOM      2  O   UNL     1       2.333   0.225  22.882  0.00  0.00    -0.443 OA
ENDBRANCH   3   2
ENDBRANCH   5   3
ENDBRANCH   6   5
ENDBRANCH   7   6
TORSDOF 6
ENDMDL
MODEL 2
REMARK VINA RESULT:      -8.7      2.872      4.551
REMARK  Name = 
REMARK  6 active torsions:
REMARK  status: ('A' for Active; 'I' for Inactive)
REMARK    1  A    between atoms: O_2  and  C_3
REMARK    2  A    between atoms: C_3  and  C_5
REMARK    3  A    between atoms: C_5  and  O_6
REMARK    4  A    between atoms: O_6  and  C_7
REMARK    5  A    between atoms: C_11  and  N_15
REMARK    6  A    between atoms: C_18  and  C_22
REMARK                            x       y       z     vdW  Elec       q    Type
REMARK                         _______ _______ _______ _____ _____    ______ ____
ROOT
ATOM      7  C   UNL     1      -2.721   2.826  24.382  0.00  0.00    +0.175 C 
ATOM      8  C   UNL     1      -2.170   2.498  23.862  0.00  0.00    +0.174 C 
ATOM      9  O   UNL     1      -2.413   1.730  23.686  0.00  0.00    -0.349 OA
ATOM     10  C   UNL     1      -3.113   1.582  24.096  0.00  0.00    +0.167 C 
ATOM     11  C   UNL     1      -3.696   1.017  24.241  0.00  0.00    +0.154 C 
ATOM     12  C   UNL     1      -4.246   1.344  24.761  0.00  0.00    +0.166 C 
ATOM     13  O   UNL     1      -4.004   2.113  24.938  0.00  0.00    -0.349 OA
ATOM     14  C   UNL     1      -3.304   2.259  24.527  0.00  0.00    +0.173 C 
ENDROOT
BRANCH  11  15
ATOM     15  N   UNL     1      -3.724   0.256  23.922  0.00  0.00    -0.200 NA
ATOM     16  C   UNL     1      -3.676  -0.401  24.419  0.00  0.00    +0.236 A 
ATOM     17  N   UNL     1      -3.704  -1.162  24.099  0.00  0.00    -0.217 NA
ATOM     18  C   UNL     1      -3.656  -1.819  24.596  0.00  0.00    +0.063 A 
ATOM     19  C   UNL     1      -3.582  -1.716  25.411  0.00  0.00    +0.035 A 
ATOM     20  C   UNL     1      -3.554  -0.956  25.729  0.00  0.00    +0.103 A 
ATOM     21  N   UNL     1      -3.602  -0.298  25.234  0.00  0.00    -0.211 NA
BRANCH  18  22
ATOM     22  C   UNL     1      -3.684  -2.580  24.276  0.00  0.00    +0.036 C 
ATOM     23  C   UNL     1      -3.711  -3.339  23.957  0.00  0.00    +0.006 C 
ATOM     24  C   UNL     1      -4.420  -2.413  23.943  0.00  0.00    +0.006 C 
ATOM     25  C   UNL     1      -2.948  -2.746  24.610  0.00  0.00    +0.006 C 
ENDBRANCH  18  22
ENDBRANCH  11  15
BRANCH   7   6
ATOM      6  O   UNL     1      -2.694   3.586  24.701  0.00  0.00    -0.340 OA
BRANCH   6   5
ATOM      5  C   UNL     1      -1.966   3.942  24.858  0.00  0.00    +0.252 C 
BRANCH   5   3
ATOM      3  C   UNL     1      -1.937   4.669  25.245  0.00  0.00    +0.348 C 
ATOM      4  O   UNL     1      -2.289   4.757  25.986  0.00  0.00    -0.247 OA
BRANCH   3   2
ATOM      1  C   UNL     1      -0.738   5.389  24.951  0.00  0.00    +0.256 C 
ATOM      2  O   UNL     1      -1.557   5.310  24.891  0.00  0.00    -0.443 OA
ENDBRANCH   3   2
ENDBRANCH   5   3
ENDBRANCH   6   5
ENDBRANCH   7   6
TORSDOF 6
ENDMDL
MODEL 3
REMARK VINA RESULT:      -8.5      2.752      4.239
REMARK  Name = 
REMARK  6 active torsions:
REMARK  status: ('A' for Active; 'I' for Inactive)
REMARK    1  A    between atoms: O_2  and  C_3
REMARK    2  A    between atoms: C_3  and  C_5
REMARK    3  A    between atoms: C_5  and  O_6
REMARK    4  A    between atoms: O_6  and  C_7
REMARK    5  A    between atoms: C_11  and  N_15
REMARK    6  A    between atoms: C_18  and  C_22
REMARK                            x       y       z     vdW  Elec       q    Type
REMARK                         _______ _______ _______ _____ _____    ______ ____
ROOT
ATOM      7  C   UNL     1      -3.992   0.034  24.228  0.00  0.00    +0.175 C 
ATOM      8  C   UNL     1      -4.387   0.402  24.853  0.00  0.00    +0.174 C 
ATOM      9  O   UNL     1      -4.147   1.191  24.875  0.00  0.00    -0.349 OA
ATOM     10  C   UNL     1      -3.605   1.311  24.266  0.00  0.00    +0.167 C 
ATOM     11  C   UNL     1      -3.122   1.872  23.902  0.00  0.00    +0.154 C 
ATOM     12  C   UNL     1      -2.728   1.505  23.279  0.00  0.00    +0.166 C 
ATOM     13  O   UNL     1      -2.967   0.715  23.255  0.00  0.00    -0.349 OA
ATOM     14  C   UNL     1      -3.509   0.596  23.866  0.00  0.00    +0.173 C 
ENDROOT
BRANCH  11  15
ATOM     15  N   UNL     1      -3.046   2.664  24.125  0.00  0.00    -0.200 NA
ATOM     16  C   UNL     1      -2.313   2.956  24.365  0.00  0.00    +0.236 A 
ATOM     17  N   UNL     1      -2.238   3.748  24.587  0.00  0.00    -0.217 NA
ATOM     18  C   UNL     1      -1.505   4.040  24.827  0.00  0.00    +0.063 A 
ATOM     19  C   UNL     1      -0.847   3.542  24.845  0.00  0.00    +0.035 A 
ATOM     20  C   UNL     1      -0.923   2.752  24.622  0.00  0.00    +0.103 A 
ATOM     21  N   UNL     1      -1.656   2.458  24.382  0.00  0.00    -0.211 NA
BRANCH  18  22
ATOM     22  C   UNL     1      -1.429   4.831  25.049  0.00  0.00    +0.036 C 
ATOM     23  C   UNL     1      -1.354   5.622  25.272  0.00  0.00    +0.006 C 
ATOM     24  C   UNL     1      -2.121   4.771  25.495  0.00  0.00    +0.006 C 
ATOM     25  C   UNL     1      -0.738   4.890  24.604  0.00  0.00    +0.006 C 
ENDBRANCH  18  22
ENDBRANCH  11  15
BRANCH   7   6
ATOM      6  O   UNL     1      -4.068  -0.756  24.007  0.00  0.00    -0.340 OA
BRANCH   6   5
ATOM      5  C   UNL     1      -4.084  -1.348  24.582  0.00  0.00    +0.252 C 
BRANCH   5   3
ATOM      3  C   UNL     1      -3.991  -2.137  24.365  0.00  0.00    +0.348 C 
ATOM      4  O   UNL     1      -4.333  -2.417  23.668  0.00  0.00    -0.247 OA
BRANCH   3   2
ATOM      1  C   UNL     1      -3.249  -3.348  24.532  0.00  0.00    +0.256 C 
ATOM      2  O   UNL     1      -3.556  -2.649  24.845  0.00  0.00    -0.443 OA
ENDBRANCH   3   2
ENDBRANCH   5   3
ENDBRANCH   6   5
ENDBRANCH   7   6
TORSDOF 6
ENDMDL
MODEL 4
REMARK VINA RESULT:      -8.0      2.197      2.984
REMARK  Name = 
REMARK  6 active torsions:
REMARK  status: ('A' for Active; 'I' for Inactive)
REMARK    1  A    between atoms: O_2  and  C_3
REMARK    2  A    between atoms: C_3  and  C_5
REMARK    3  A    between atoms: C_5  and  O_6
REMARK    4  A    between atoms: O_6  and  C_7
REMARK    5  A    between atoms: C_11  and  N_15
REMARK    6  A    between atoms: C_18  and  C_22
REMARK                            x       y       z     vdW  Elec       q    Type
REMARK                         _______ _______ _______ _____ _____    ______ ____
ROOT
ATOM      7  C   UNL     1       1.674   0.457  23.064  0.00  0.00    +0.175 C 
ATOM      8  C   UNL     1       1.415  -0.182  22.609  0.00  0.00    +0.174 C 
ATOM      9  O   UNL     1       0.615  -0.302  22.772  0.00  0.00    -0.349 OA
ATOM     10  C   UNL     1       0.379   0.261  23.327  0.00  0.00    +0.167 C 
ATOM     11  C   UNL     1      -0.259   0.535  23.771  0.00  0.00    +0.154 C 
ATOM     12  C   UNL     1      -0.000   1.172  24.225  0.00  0.00    +0.166 C 
ATOM     13  O   UNL     1       0.800   1.294  24.062  0.00  0.00    -0.349 OA
ATOM     14  C   UNL     1       1.034   0.730  23.507  0.00  0.00    +0.173 C 
ENDROOT
BRANCH  11  15
ATOM     15  N   UNL     1      -1.024   0.224  23.762  0.00  0.00    -0.200 NA
ATOM     16  C   UNL     1      -1.349  -0.091  24.452  0.00  0.00    +0.236 A 
ATOM     17  N   UNL     1      -2.114  -0.401  24.443  0.00  0.00    -0.217 NA
ATOM     18  C   UNL     1      -2.438  -0.717  25.133  0.00  0.00    +0.063 A 
ATOM     19  C   UNL     1      -1.999  -0.722  25.831  0.00  0.00    +0.035 A 
ATOM     20  C   UNL     1      -1.235  -0.412  25.839  0.00  0.00    +0.103 A 
ATOM     21  N   UNL     1      -0.910  -0.096  25.150  0.00  0.00    -0.211 NA
BRANCH  18  22
ATOM     22  C   UNL     1      -3.203  -1.027  25.124  0.00  0.00    +0.036 C 
ATOM     23  C   UNL     1      -3.967  -1.337  25.115  0.00  0.00    +0.006 C 
ATOM     24  C   UNL     1      -3.511  -0.271  25.248  0.00  0.00    +0.006 C 
ATOM     25  C   UNL     1      -2.895  -1.782  24.999  0.00  0.00    +0.006 C 
ENDBRANCH  18  22
ENDBRANCH  11  15
BRANCH   7   6
ATOM      6  O   UNL     1       2.438   0.766  23.072  0.00  0.00    -0.340 OA
BRANCH   6   5
ATOM      5  C   UNL     1       3.056   0.352  22.716  0.00  0.00    +0.252 C 
BRANCH   5   3
ATOM      3  C   UNL     1       3.836   0.592  22.833  0.00  0.00    +0.348 C 
ATOM      4  O   UNL     1       4.049   1.378  22.699  0.00  0.00    -0.247 OA
BRANCH   3   2
ATOM      1  C   UNL     1       5.159   0.304  23.288  0.00  0.00    +0.256 C 
ATOM      2  O   UNL     1       4.403   0.048  23.084  0.00  0.00    -0.443 OA
ENDBRANCH   3   2
ENDBRANCH   5   3
ENDBRANCH   6   5
ENDBRANCH   7   6
TORSDOF 6
ENDMDL
MODEL 5
REMARK VINA RESULT:      -5.8     15.434     16.649
REMARK  Name = 
REMARK  6 active torsions:
REMARK  status: ('A' for Active; 'I' for Inactive)
REMARK    1  A    between atoms: O_2  and  C_3
REMARK    2  A    between atoms: C_3  and  C_5
REMARK    3  A    between atoms: C_5  and  O_6
REMARK    4  A    between atoms: O_6  and  C_7
REMARK    5  A    between atoms: C_11  and  N_15
REMARK    6  A    between atoms: C_18  and  C_22
REMARK                            x       y       z     vdW  Elec       q    Type
REMARK                         _______ _______ _______ _____ _____    ______ ____
ROOT
ATOM      7  C   UNL     1      -5.126 -10.422  15.124  0.00  0.00    +0.175 C 
ATOM      8  C   UNL     1      -4.327 -10.584  14.992  0.00  0.00    +0.174 C 
ATOM      9  O   UNL     1      -4.197 -10.574  14.177  0.00  0.00    -0.349 OA
ATOM     10  C   UNL     1      -4.914 -10.405  13.805  0.00  0.00    +0.167 C 
ATOM     11  C   UNL     1      -5.276 -10.294  13.073  0.00  0.00    +0.154 C 
ATOM     12  C   UNL     1      -6.074 -10.132  13.205  0.00  0.00    +0.166 C 
ATOM     13  O   UNL     1      -6.205 -10.143  14.019  0.00  0.00    -0.349 OA
ATOM     14  C   UNL     1      -5.488 -10.311  14.390  0.00  0.00    +0.173 C 
ENDROOT
BRANCH  11  15
ATOM     15  N   UNL     1      -4.905 -10.338  12.337  0.00  0.00    -0.200 NA
ATOM     16  C   UNL     1      -5.028  -9.744  11.778  0.00  0.00    +0.236 A 
ATOM     17  N   UNL     1      -4.657  -9.788  11.042  0.00  0.00    -0.217 NA
ATOM     18  C   UNL     1      -4.780  -9.194  10.482  0.00  0.00    +0.063 A 
ATOM     19  C   UNL     1      -5.274  -8.557  10.658  0.00  0.00    +0.035 A 
ATOM     20  C   UNL     1      -5.644  -8.514  11.394  0.00  0.00    +0.103 A 
ATOM     21  N   UNL     1      -5.522  -9.107  11.954  0.00  0.00    -0.211 NA
BRANCH  18  22
ATOM     22  C   UNL     1      -4.409  -9.238   9.746  0.00  0.00    +0.036 C 
ATOM     23  C   UNL     1      -4.038  -9.282   9.011  0.00  0.00    +0.006 C 
ATOM     24  C   UNL     1      -3.720  -8.926  10.076  0.00  0.00    +0.006 C 
ATOM     25  C   UNL     1      -5.098  -9.550   9.418  0.00  0.00    +0.006 C 
ENDBRANCH  18  22
ENDBRANCH  11  15
BRANCH   7   6
ATOM      6  O   UNL     1      -5.496 -10.378  15.859  0.00  0.00    -0.340 OA
BRANCH   6   5
ATOM      5  C   UNL     1      -5.103 -10.639  16.536  0.00  0.00    +0.252 C 
BRANCH   5   3
ATOM      3  C   UNL     1      -5.476 -10.603  17.270  0.00  0.00    +0.348 C 
ATOM      4  O   UNL     1      -6.289 -10.733  17.326  0.00  0.00    -0.247 OA
BRANCH   3   2
ATOM      1  C   UNL     1      -5.264 -10.753  18.675  0.00  0.00    +0.256 C 
ATOM      2  O   UNL     1      -5.038 -10.436  17.949  0.00  0.00    -0.443 OA
ENDBRANCH   3   2
ENDBRANCH   5   3
ENDBRANCH   6   5
ENDBRANCH   7   6
TORSDOF 6
ENDMDL
MODEL 6
REMARK VINA RESULT:      -5.5     17.827     19.025
REMARK  Name = 
REMARK  6 active torsions:
REMARK  status: ('A' for Active; 'I' for Inactive)
REMARK    1  A    between atoms: O_2  and  C_3
REMARK    2  A    between atoms: C_3  and  C_5
REMARK    3  A    between atoms: C_5  and  O_6
REMARK    4  A    between atoms: O_6  and  C_7
REMARK    5  A    between atoms: C_11  and  N_15
REMARK    6  A    between atoms: C_18  and  C_22
REMARK                            x       y       z     vdW  Elec       q    Type
REMARK                         _______ _______ _______ _____ _____    ______ ____
ROOT
ATOM      7  C   UNL     1      -8.651  -6.765   8.528  0.00  0.00    +0.175 C 
ATOM      8  C   UNL     1      -8.030  -6.401   8.124  0.00  0.00    +0.174 C 
ATOM      9  O   UNL     1      -7.366  -6.886   8.188  0.00  0.00    -0.349 OA
ATOM     10  C   UNL     1      -7.575  -7.549   8.631  0.00  0.00    +0.167 C 
ATOM     11  C   UNL     1      -7.295  -8.259   8.945  0.00  0.00    +0.154 C 
ATOM     12  C   UNL     1      -7.916  -8.622   9.349  0.00  0.00    +0.166 C 
ATOM     13  O   UNL     1      -8.580  -8.137   9.286  0.00  0.00    -0.349 OA
ATOM     14  C   UNL     1      -8.369  -7.474   8.842  0.00  0.00    +0.173 C 
ENDROOT
BRANCH  11  15
ATOM     15  N   UNL     1      -6.528  -8.553   8.868  0.00  0.00    -0.200 NA
ATOM     16  C   UNL     1      -6.092  -8.747   9.541  0.00  0.00    +0.236 A 
ATOM     17  N   UNL     1      -5.324  -9.041   9.463  0.00  0.00    -0.217 NA
ATOM     18  C   UNL     1      -4.888  -9.235  10.136  0.00  0.00    +0.063 A 
ATOM     19  C   UNL     1      -5.217  -9.134  10.885  0.00  0.00    +0.035 A 
ATOM     20  C   UNL     1      -5.984  -8.839  10.962  0.00  0.00    +0.103 A 
ATOM     21  N   UNL     1      -6.421  -8.646  10.290  0.00  0.00    -0.211 NA
BRANCH  18  22
ATOM     22  C   UNL     1      -4.120  -9.529  10.059  0.00  0.00    +0.036 C 
ATOM     23  C   UNL     1      -3.354  -9.824   9.982  0.00  0.00    +0.006 C 
ATOM     24  C   UNL     1      -4.402 -10.294  10.185  0.00  0.00    +0.006 C 
ATOM     25  C   UNL     1      -3.840  -8.764   9.932  0.00  0.00    +0.006 C 
ENDBRANCH  18  22
ENDBRANCH  11  15
BRANCH   7   6
ATOM      6  O   UNL     1      -9.417  -6.470   8.605  0.00  0.00    -0.340 OA
BRANCH   6   5
ATOM      5  C   UNL     1      -9.547  -5.655   8.622  0.00  0.00    +0.252 C 
BRANCH   5   3
ATOM      3  C   UNL     1     -10.284  -5.359   8.842  0.00  0.00    +0.348 C 
ATOM      4  O   UNL     1     -10.718  -5.733   9.436  0.00  0.00    -0.247 OA
BRANCH   3   2
ATOM      1  C   UNL     1     -10.673  -3.985   8.889  0.00  0.00    +0.256 C 
ATOM      2  O   UNL     1     -10.589  -4.689   8.469  0.00  0.00    -0.443 OA
ENDBRANCH   3   2
ENDBRANCH   5   3
ENDBRANCH   6   5
ENDBRANCH   7   6
TORSDOF 6
ENDMDL
MODEL 7
REMARK VINA RESULT:      -5.5     14.871     16.360
REMARK  Name = 
REMARK  6 active torsions:
REMARK  status: ('A' for Active; 'I' for Inactive)
REMARK    1  A    between atoms: O_2  and  C_3
REMARK    2  A    between atoms: C_3  and  C_5
REMARK    3  A    between atoms: C_5  and  O_6
REMARK    4  A    between atoms: O_6  and  C_7
REMARK    5  A    between atoms: C_11  and  N_15
REMARK    6  A    between atoms: C_18  and  C_22
REMARK                            x       y       z     vdW  Elec       q    Type
REMARK                         _______ _______ _______ _____ _____    ______ ____
ROOT
ATOM      7  C   UNL     1      -6.605  -9.826  15.915  0.00  0.00    +0.175 C 
ATOM      8  C   UNL     1      -5.943  -9.579  16.342  0.00  0.00    +0.174 C 
ATOM      9  O   UNL     1      -5.271  -9.789  15.912  0.00  0.00    -0.349 OA
ATOM     10  C   UNL     1      -5.517 -10.165  15.220  0.00  0.00    +0.167 C 
ATOM     11  C   UNL     1      -5.254 -10.526  14.527  0.00  0.00    +0.154 C 
ATOM     12  C   UNL     1      -5.916 -10.772  14.100  0.00  0.00    +0.166 C 
ATOM     13  O   UNL     1      -6.588 -10.562  14.530  0.00  0.00    -0.349 OA
ATOM     14  C   UNL     1      -6.341 -10.187  15.222  0.00  0.00    +0.173 C 
ENDROOT
BRANCH  11  15
ATOM     15  N   UNL     1      -4.466 -10.624  14.300  0.00  0.00    -0.200 NA
ATOM     16  C   UNL     1      -4.242 -10.485  13.518  0.00  0.00    +0.236 A 
ATOM     17  N   UNL     1      -3.455 -10.584  13.292  0.00  0.00    -0.217 NA
ATOM     18  C   UNL     1      -3.231 -10.444  12.510  0.00  0.00    +0.063 A 
ATOM     19  C   UNL     1      -3.793 -10.207  11.955  0.00  0.00    +0.035 A 
ATOM     20  C   UNL     1      -4.580 -10.109  12.182  0.00  0.00    +0.103 A 
ATOM     21  N   UNL     1      -4.805 -10.248  12.964  0.00  0.00    -0.211 NA
BRANCH  18  22
ATOM     22  C   UNL     1      -2.443 -10.543  12.283  0.00  0.00    +0.036 C 
ATOM     23  C   UNL     1      -1.656 -10.641  12.057  0.00  0.00    +0.006 C 
ATOM     24  C   UNL     1      -2.199 -10.323  13.040  0.00  0.00    +0.006 C 
ATOM     25  C   UNL     1      -2.689 -10.762  11.527  0.00  0.00    +0.006 C 
ENDBRANCH  18  22
ENDBRANCH  11  15
BRANCH   7   6
ATOM      6  O   UNL     1      -7.392  -9.727  16.142  0.00  0.00    -0.340 OA
BRANCH   6   5
ATOM      5  C   UNL     1      -7.583  -9.214  16.759  0.00  0.00    +0.252 C 
BRANCH   5   3
ATOM      3  C   UNL     1      -8.370  -9.106  16.977  0.00  0.00    +0.348 C 
ATOM      4  O   UNL     1      -8.785  -9.719  17.341  0.00  0.00    -0.247 OA
BRANCH   3   2
ATOM      1  C   UNL     1      -9.439  -8.192  17.231  0.00  0.00    +0.256 C 
ATOM      2  O   UNL     1      -8.744  -8.384  16.832  0.00  0.00    -0.443 OA
ENDBRANCH   3   2
ENDBRANCH   5   3
ENDBRANCH   6   5
ENDBRANCH   7   6
TORSDOF 6
ENDMDL
MODEL 8
REMARK VINA RESULT:      -5.3     14.068     14.757
REMARK  Name = 
REMARK  6 active torsions:
REMARK  status: ('A' for Active; 'I' for Inactive)
REMARK    1  A    between atoms: O_2  and  C_3
REMARK    2  A    between atoms: C_3  and  C_5
REMARK    3  A    between atoms: C_5  and  O_6
REMARK    4  A    between atoms: O_6  and  C_7
REMARK    5  A    between atoms: C_11  and  N_15
REMARK    6  A    between atoms: C_18  and  C_22
REMARK                            x       y       z     vdW  Elec       q    Type
REMARK                         _______ _______ _______ _____ _____    ______ ____
ROOT
ATOM      7  C   UNL     1      -4.259 -10.613  15.642  0.00  0.00    +0.175 C 
ATOM      8  C   UNL     1      -4.479 -10.658  14.848  0.00  0.00    +0.174 C 
ATOM      9  O   UNL     1      -5.301 -10.600  14.808  0.00  0.00    -0.349 OA
ATOM     10  C   UNL     1      -5.590 -10.519  15.577  0.00  0.00    +0.167 C 
ATOM     11  C   UNL     1      -6.275 -10.434  16.028  0.00  0.00    +0.154 C 
ATOM     12  C   UNL     1      -6.055 -10.388  16.821  0.00  0.00    +0.166 C 
ATOM     13  O   UNL     1      -5.233 -10.446  16.862  0.00  0.00    -0.349 OA
ATOM     14  C   UNL     1      -4.946 -10.527  16.092  0.00  0.00    +0.173 C 
ENDROOT
BRANCH  11  15
ATOM     15  N   UNL     1      -7.046 -10.400  15.735  0.00  0.00    -0.200 NA
ATOM     16  C   UNL     1      -7.604  -9.912  16.099  0.00  0.00    +0.236 A 
ATOM     17  N   UNL     1      -8.375  -9.878  15.807  0.00  0.00    -0.217 NA
ATOM     18  C   UNL     1      -8.932  -9.391  16.171  0.00  0.00    +0.063 A 
ATOM     19  C   UNL     1      -8.719  -8.938  16.827  0.00  0.00    +0.035 A 
ATOM     20  C   UNL     1      -7.949  -8.973  17.118  0.00  0.00    +0.103 A 
ATOM     21  N   UNL     1      -7.391  -9.460  16.755  0.00  0.00    -0.211 NA
BRANCH  18  22
ATOM     22  C   UNL     1      -9.704  -9.357  15.878  0.00  0.00    +0.036 C 
ATOM     23  C   UNL     1     -10.474  -9.323  15.586  0.00  0.00    +0.006 C 
ATOM     24  C   UNL     1      -9.463  -8.809  15.310  0.00  0.00    +0.006 C 
ATOM     25  C   UNL     1      -9.943  -9.905  16.446  0.00  0.00    +0.006 C 
ENDBRANCH  18  22
ENDBRANCH  11  15
BRANCH   7   6
ATOM      6  O   UNL     1      -3.489 -10.647  15.934  0.00  0.00    -0.340 OA
BRANCH   6   5
ATOM      5  C   UNL     1      -2.849 -10.631  15.414  0.00  0.00    +0.252 C 
BRANCH   5   3
ATOM      3  C   UNL     1      -2.081 -10.564  15.706  0.00  0.00    +0.348 C 
ATOM      4  O   UNL     1      -1.916 -10.777  16.486  0.00  0.00    -0.247 OA
BRANCH   3   2
ATOM      1  C   UNL     1      -0.805  -9.941  15.550  0.00  0.00    +0.256 C 
ATOM      2  O   UNL     1      -1.476 -10.285  15.218  0.00  0.00    -0.443 OA
ENDBRANCH   3   2
ENDBRANCH   5   3
ENDBRANCH   6   5
ENDBRANCH   7   6
TORSDOF 6
ENDMDL
MODEL 9
REMARK VINA RESULT:      -5.0     17.265     18.664
REMARK  Name = 
REMARK  6 active torsions:
REMARK  status: ('A' for Active; 'I' for Inactive)
REMARK    1  A    between atoms: O_2  and  C_3
REMARK    2  A    between atoms: C_3  and  C_5
REMARK    3  A    between atoms: C_5  and  O_6
REMARK    4  A    between atoms: O_6  and  C_7
REMARK    5  A    between atoms: C_11  and  N_15
REMARK    6  A    between atoms: C_18  and  C_22
REMARK                            x       y       z     vdW  Elec       q    Type
REMARK                         _______ _______ _______ _____ _____    ______ ____
ROOT
ATOM      7  C   UNL     1      -7.186  -8.957   9.699  0.00  0.00    +0.175 C 
ATOM      8  C   UNL     1      -7.342  -8.950  10.509  0.00  0.00    +0.174 C 
ATOM      9  O   UNL     1      -6.714  -9.324  10.893  0.00  0.00    -0.349 OA
ATOM     10  C   UNL     1      -6.170  -9.561  10.320  0.00  0.00    +0.167 C 
ATOM     11  C   UNL     1      -5.446  -9.937  10.203  0.00  0.00    +0.154 C 
ATOM     12  C   UNL     1      -5.289  -9.944   9.393  0.00  0.00    +0.166 C 
ATOM     13  O   UNL     1      -5.917  -9.571   9.009  0.00  0.00    -0.349 OA
ATOM     14  C   UNL     1      -6.461  -9.334   9.583  0.00  0.00    +0.173 C 
ENDROOT
BRANCH  11  15
ATOM     15  N   UNL     1      -4.962 -10.253  10.793  0.00  0.00    -0.200 NA
ATOM     16  C   UNL     1      -4.167 -10.037  10.833  0.00  0.00    +0.236 A 
ATOM     17  N   UNL     1      -3.683 -10.352  11.423  0.00  0.00    -0.217 NA
ATOM     18  C   UNL     1      -2.888 -10.136  11.463  0.00  0.00    +0.063 A 
ATOM     19  C   UNL     1      -2.576  -9.606  10.914  0.00  0.00    +0.035 A 
ATOM     20  C   UNL     1      -3.060  -9.291  10.325  0.00  0.00    +0.103 A 
ATOM     21  N   UNL     1      -3.855  -9.506  10.284  0.00  0.00    -0.211 NA
BRANCH  18  22
ATOM     22  C   UNL     1      -2.405 -10.452  12.053  0.00  0.00    +0.036 C 
ATOM     23  C   UNL     1      -1.922 -10.767  12.642  0.00  0.00    +0.006 C 
ATOM     24  C   UNL     1      -1.782 -10.504  11.514  0.00  0.00    +0.006 C 
ATOM     25  C   UNL     1      -3.028 -10.400  12.591  0.00  0.00    +0.006 C 
ENDBRANCH  18  22
ENDBRANCH  11  15
BRANCH   7   6
ATOM      6  O   UNL     1      -7.669  -8.642   9.110  0.00  0.00    -0.340 OA
BRANCH   6   5
ATOM      5  C   UNL     1      -8.275  -8.119   9.309  0.00  0.00    +0.252 C 
BRANCH   5   3
ATOM      3  C   UNL     1      -8.702  -7.736   8.716  0.00  0.00    +0.348 C 
ATOM      4  O   UNL     1      -9.072  -8.177   8.125  0.00  0.00    -0.247 OA
BRANCH   3   2
ATOM      1  C   UNL     1      -9.423  -6.546   8.392  0.00  0.00    +0.256 C 
ATOM      2  O   UNL     1      -8.759  -6.913   8.713  0.00  0.00    -0.443 OA
ENDBRANCH   3   2
ENDBRANCH   5   3
ENDBRANCH   6   5
ENDBRANCH   7   6
TORSDOF 6
ENDMDL
