MODEL 1
REMARK VINA RESULT:     -15.6      0.000      0.000
REMARK  Name = 
REMARK  3 active torsions:
REMARK  status: ('A' for Active; 'I' for Inactive)
REMARK    1  A    between atoms: C_2  and  C_25
REMARK    2  A    between atoms: C_12  and  C_17
REMARK    3  A    between atoms: C_21  and  C_23
REMARK                            x       y       z     vdW  Elec       q    Type
REMARK                         _______ _______ _______ _____ _____    ______ ____
ROOT
ATOM      1  O   UNL     1      -0.986  -0.428  24.654  0.00  0.00    -0.268 OA
ATOM      2  C   UNL     1      -1.827  -0.601  24.606  0.00  0.00    +0.268 C 
ATOM      3  N   UNL     1      -2.112  -1.409  24.573  0.00  0.00    -0.274 N 
ATOM      4  C   UNL     1      -1.996  -2.236  24.560  0.00  0.00    +0.096 C 
ATOM      5  C   UNL     1      -2.936  -2.534  24.504  0.00  0.00    +0.043 C 
ATOM      6  C   UNL     1      -3.644  -2.936  24.458  0.00  0.00    +0.011 C 
ATOM      7  C   UNL     1      -3.426  -2.269  24.485  0.00  0.00    +0.058 C 
ATOM      8  C   UNL     1      -2.513  -1.997  24.539  0.00  0.00    +0.100 C 
ATOM      9  C   UNL     1      -3.745  -1.407  24.488  0.00  0.00    +0.041 A 
ATOM     10  C   UNL     1      -4.453  -0.986  24.460  0.00  0.00    +0.013 A 
ATOM     11  C   UNL     1      -4.444  -0.161  24.479  0.00  0.00    +0.006 A 
ATOM     12  C   UNL     1      -3.620   0.193  24.530  0.00  0.00    +0.056 A 
ATOM     13  C   UNL     1      -3.017  -0.179  24.553  0.00  0.00    +0.261 A 
ATOM     14  O   UNL     1      -2.038   0.238  24.614  0.00  0.00    -0.267 OA
ATOM     15  N   UNL     1      -3.026  -1.003  24.534  0.00  0.00    -0.299 N 
ATOM     16  C   UNL     1      -3.260  -1.630  24.508  0.00  0.00    +0.110 C 
ENDROOT
BRANCH  12  17
ATOM     17  C   UNL     1      -3.399   0.921  24.558  0.00  0.00    +0.005 A 
ATOM     18  C   UNL     1      -3.210   1.568  24.585  0.00  0.00    +0.000 A 
ATOM     19  C   UNL     1      -2.988   2.295  24.613  0.00  0.00    +0.001 A 
ATOM     20  C   UNL     1      -3.670   2.698  24.842  0.00  0.00    +0.010 A 
ATOM     21  C   UNL     1      -4.370   2.283  24.979  0.00  0.00    +0.068 A 
ATOM     22  C   UNL     1      -4.387   1.462  24.885  0.00  0.00    +0.010 A 
BRANCH  21  23
ATOM     23  C   UNL     1      -5.088   2.720  25.222  0.00  0.00    +0.100 C 
ATOM     24  N   UNL     1      -5.765   3.147  25.470  0.00  0.00    -0.191 NA
ENDBRANCH  21  23
ENDBRANCH  12  17
BRANCH   2  25
ATOM     25  C   UNL     1      -2.525  -0.040  24.582  0.00  0.00    +0.154 A 
ATOM     26  C   UNL     1      -2.968   0.182  25.241  0.00  0.00    +0.123 A 
ATOM     27  N   UNL     1      -3.602   0.703  25.155  0.00  0.00    -0.239 NA
ATOM     28  C   UNL     1      -3.792   1.002  24.410  0.00  0.00    +0.120 A 
ATOM     29  C   UNL     1      -3.349   0.780  23.751  0.00  0.00    +0.120 A 
ATOM     30  N   UNL     1      -2.715   0.258  23.837  0.00  0.00    -0.236 NA
ENDBRANCH   2  25
TORSDOF 3
ENDMDL
MODEL 2
REMARK VINA RESULT:     -15.3      1.218      3.999
REMARK  Name = 
REMARK  3 active torsions:
REMARK  status: ('A' for Active; 'I' for Inactive)
REMARK    1  A    between atoms: C_2  and  C_25
REMARK    2  A    between atoms: C_12  and  C_17
REMARK    3  A    between atoms: C_21  and  C_23
REMARK                            x       y       z     vdW  Elec       q    Type
REMARK                         _______ _______ _______ _____ _____    ______ ____
ROOT
ATOM      1  O   UNL     1      -5.861   1.952  24.738  0.00  0.00    -0.268 OA
ATOM      2  C   UNL     1      -5.003   1.957  24.803  0.00  0.00    +0.268 C 
ATOM      3  N   UNL     1      -4.577   2.676  24.997  0.00  0.00    -0.274 N 
ATOM      4  C   UNL     1      -4.542   3.489  25.184  0.00  0.00    +0.096 C 
ATOM      5  C   UNL     1      -3.564   3.595  25.280  0.00  0.00    +0.043 C 
ATOM      6  C   UNL     1      -2.797   3.844  25.393  0.00  0.00    +0.011 C 
ATOM      7  C   UNL     1      -3.131   3.248  25.233  0.00  0.00    +0.058 C 
ATOM      8  C   UNL     1      -4.078   3.162  25.144  0.00  0.00    +0.100 C 
ATOM      9  C   UNL     1      -2.973   2.362  25.044  0.00  0.00    +0.041 A 
ATOM     10  C   UNL     1      -2.353   1.824  24.968  0.00  0.00    +0.013 A 
ATOM     11  C   UNL     1      -2.511   1.037  24.778  0.00  0.00    +0.006 A 
ATOM     12  C   UNL     1      -3.384   0.856  24.672  0.00  0.00    +0.056 A 
ATOM     13  C   UNL     1      -3.910   1.326  24.740  0.00  0.00    +0.261 A 
ATOM     14  O   UNL     1      -4.946   1.114  24.616  0.00  0.00    -0.267 OA
ATOM     15  N   UNL     1      -3.752   2.113  24.930  0.00  0.00    -0.299 N 
ATOM     16  C   UNL     1      -3.410   2.669  25.081  0.00  0.00    +0.110 C 
ENDROOT
BRANCH  12  17
ATOM     17  C   UNL     1      -3.733   0.201  24.498  0.00  0.00    +0.005 A 
ATOM     18  C   UNL     1      -4.034  -0.382  24.346  0.00  0.00    +0.000 A 
ATOM     19  C   UNL     1      -4.383  -1.035  24.172  0.00  0.00    +0.001 A 
ATOM     20  C   UNL     1      -3.790  -1.602  24.259  0.00  0.00    +0.010 A 
ATOM     21  C   UNL     1      -3.031  -1.374  24.488  0.00  0.00    +0.068 A 
ATOM     22  C   UNL     1      -2.865  -0.578  24.631  0.00  0.00    +0.010 A 
BRANCH  21  23
ATOM     23  C   UNL     1      -2.409  -1.983  24.577  0.00  0.00    +0.100 C 
ATOM     24  N   UNL     1      -1.808  -2.563  24.642  0.00  0.00    -0.191 NA
ENDBRANCH  21  23
ENDBRANCH  12  17
BRANCH   2  25
ATOM     25  C   UNL     1      -4.418   1.288  24.694  0.00  0.00    +0.154 A 
ATOM     26  C   UNL     1      -4.135   0.812  25.305  0.00  0.00    +0.123 A 
ATOM     27  N   UNL     1      -3.595   0.209  25.142  0.00  0.00    -0.239 NA
ATOM     28  C   UNL     1      -3.339   0.083  24.367  0.00  0.00    +0.120 A 
ATOM     29  C   UNL     1      -3.622   0.560  23.757  0.00  0.00    +0.120 A 
ATOM     30  N   UNL     1      -4.162   1.163  23.920  0.00  0.00    -0.236 NA
ENDBRANCH   2  25
TORSDOF 3
ENDMDL
