MODEL 1
REMARK VINA RESULT:     -13.1      0.000      0.000
REMARK  Name = 
REMARK  1 active torsions:
REMARK  status: ('A' for Active; 'I' for Inactive)
REMARK    1  A    between atoms: C_14  and  C_16
REMARK                            x       y       z     vdW  Elec       q    Type
REMARK                         _______ _______ _______ _____ _____    ______ ____
ROOT
ATOM      1  C   UNL     1      -6.364   1.970  25.658  0.00  0.00    +0.012 C 
ATOM      2  C   UNL     1      -5.594   2.140  25.413  0.00  0.00    +0.103 C 
ATOM      3  C   UNL     1      -5.015   1.585  25.217  0.00  0.00    +0.051 C 
ATOM      4  C   UNL     1      -5.023   0.760  25.204  0.00  0.00    +0.004 C 
ATOM      5  C   UNL     1      -4.346   0.345  24.979  0.00  0.00    +0.001 C 
ATOM      6  C   UNL     1      -3.662   0.756  24.766  0.00  0.00    +0.008 C 
ATOM      7  C   UNL     1      -3.669  -0.069  24.753  0.00  0.00    +0.000 C 
ATOM      8  C   UNL     1      -2.985   0.341  24.541  0.00  0.00    +0.034 C 
ATOM      9  C   UNL     1      -2.302   0.751  24.328  0.00  0.00    +0.023 A 
ATOM     10  C   UNL     1      -2.295   1.576  24.341  0.00  0.00    +0.063 A 
ATOM     11  N   UNL     1      -1.545   1.829  24.104  0.00  0.00    -0.227 NA
ATOM     12  C   UNL     1      -1.090   1.160  23.945  0.00  0.00    +0.185 A 
ATOM     13  N   UNL     1      -0.305   1.157  23.692  0.00  0.00    -0.154 NA
ATOM     14  C   UNL     1       0.082   0.442  23.555  0.00  0.00    +0.247 C 
ATOM     15  O   UNL     1      -0.317  -0.271  23.670  0.00  0.00    -0.273 OA
ATOM     25  S   UNL     1      -1.557   0.494  24.084  0.00  0.00    -0.054 S 
ATOM     26  C   UNL     1      -2.972   1.991  24.566  0.00  0.00    +0.044 C 
ATOM     27  C   UNL     1      -2.964   2.815  24.579  0.00  0.00    +0.006 C 
ATOM     28  C   UNL     1      -3.654   1.581  24.779  0.00  0.00    +0.046 C 
ATOM     29  C   UNL     1      -4.332   1.996  25.004  0.00  0.00    +0.170 C 
ATOM     30  O   UNL     1      -4.488   2.803  25.069  0.00  0.00    -0.452 OA
ATOM     31  C   UNL     1      -5.268   2.892  25.322  0.00  0.00    +0.316 C 
ATOM     32  O   UNL     1      -5.655   3.607  25.459  0.00  0.00    -0.250 OA
ENDROOT
BRANCH  14  16
ATOM     16  C   UNL     1       0.867   0.439  23.302  0.00  0.00    +0.082 C 
ATOM     17  C   UNL     1       1.407   0.975  23.621  0.00  0.00    +0.031 C 
ATOM     18  C   UNL     1       2.192   0.972  23.369  0.00  0.00    +0.094 C 
ATOM     19  N   UNL     1       2.438   0.432  22.796  0.00  0.00    -0.280 N 
ATOM     20  C   UNL     1       1.899  -0.105  22.476  0.00  0.00    +0.094 C 
ATOM     21  C   UNL     1       1.114  -0.102  22.729  0.00  0.00    +0.031 C 
ATOM     22  C   UNL     1       3.223   0.429  22.543  0.00  0.00    +0.226 C 
ATOM     23  C   UNL     1       3.762   0.965  22.862  0.00  0.00    +0.095 C 
ATOM     24  O   UNL     1       3.470  -0.111  21.970  0.00  0.00    -0.275 OA
ENDBRANCH  14  16
TORSDOF 1
ENDMDL
MODEL 2
REMARK VINA RESULT:      -9.8      2.981      4.956
REMARK  Name = 
REMARK  1 active torsions:
REMARK  status: ('A' for Active; 'I' for Inactive)
REMARK    1  A    between atoms: C_14  and  C_16
REMARK                            x       y       z     vdW  Elec       q    Type
REMARK                         _______ _______ _______ _____ _____    ______ ____
ROOT
ATOM      1  C   UNL     1      -1.366   6.296  25.231  0.00  0.00    +0.012 C 
ATOM      2  C   UNL     1      -1.304   5.497  25.035  0.00  0.00    +0.103 C 
ATOM      3  C   UNL     1      -1.887   4.924  25.148  0.00  0.00    +0.051 C 
ATOM      4  C   UNL     1      -2.648   4.965  25.464  0.00  0.00    +0.004 C 
ATOM      5  C   UNL     1      -3.114   4.286  25.506  0.00  0.00    +0.001 C 
ATOM      6  C   UNL     1      -2.818   3.565  25.232  0.00  0.00    +0.008 C 
ATOM      7  C   UNL     1      -3.580   3.606  25.549  0.00  0.00    +0.000 C 
ATOM      8  C   UNL     1      -3.284   2.885  25.275  0.00  0.00    +0.034 C 
ATOM      9  C   UNL     1      -2.990   2.166  25.001  0.00  0.00    +0.023 A 
ATOM     10  C   UNL     1      -2.229   2.124  24.686  0.00  0.00    +0.063 A 
ATOM     11  N   UNL     1      -2.087   1.343  24.461  0.00  0.00    -0.227 NA
ATOM     12  C   UNL     1      -2.761   0.901  24.638  0.00  0.00    +0.185 A 
ATOM     13  N   UNL     1      -2.860   0.093  24.505  0.00  0.00    -0.154 NA
ATOM     14  C   UNL     1      -3.568  -0.275  24.712  0.00  0.00    +0.247 C 
ATOM     15  O   UNL     1      -4.178   0.164  25.052  0.00  0.00    -0.273 OA
ATOM     25  S   UNL     1      -3.318   1.410  24.972  0.00  0.00    -0.054 S 
ATOM     26  C   UNL     1      -1.763   2.804  24.643  0.00  0.00    +0.044 C 
ATOM     27  C   UNL     1      -1.002   2.763  24.327  0.00  0.00    +0.006 C 
ATOM     28  C   UNL     1      -2.058   3.524  24.916  0.00  0.00    +0.046 C 
ATOM     29  C   UNL     1      -1.591   4.204  24.874  0.00  0.00    +0.170 C 
ATOM     30  O   UNL     1      -0.827   4.332  24.593  0.00  0.00    -0.452 OA
ATOM     31  C   UNL     1      -0.649   5.131  24.692  0.00  0.00    +0.316 C 
ATOM     32  O   UNL     1       0.059   5.500  24.485  0.00  0.00    -0.250 OA
ENDROOT
BRANCH  14  16
ATOM     16  C   UNL     1      -3.667  -1.083  24.578  0.00  0.00    +0.082 C 
ATOM     17  C   UNL     1      -4.089  -1.345  23.919  0.00  0.00    +0.031 C 
ATOM     18  C   UNL     1      -4.188  -2.153  23.786  0.00  0.00    +0.094 C 
ATOM     19  N   UNL     1      -3.865  -2.700  24.312  0.00  0.00    -0.280 N 
ATOM     20  C   UNL     1      -3.443  -2.438  24.972  0.00  0.00    +0.094 C 
ATOM     21  C   UNL     1      -3.344  -1.631  25.105  0.00  0.00    +0.031 C 
ATOM     22  C   UNL     1      -3.964  -3.508  24.179  0.00  0.00    +0.226 C 
ATOM     23  C   UNL     1      -4.385  -3.769  23.520  0.00  0.00    +0.095 C 
ATOM     24  O   UNL     1      -3.641  -4.056  24.706  0.00  0.00    -0.275 OA
ENDBRANCH  14  16
TORSDOF 1
ENDMDL
MODEL 3
REMARK VINA RESULT:      -9.3      1.024      1.328
REMARK  Name = 
REMARK  1 active torsions:
REMARK  status: ('A' for Active; 'I' for Inactive)
REMARK    1  A    between atoms: C_14  and  C_16
REMARK                            x       y       z     vdW  Elec       q    Type
REMARK                         _______ _______ _______ _____ _____    ______ ____
ROOT
ATOM      1  C   UNL     1      -5.269   2.663  25.146  0.00  0.00    +0.012 C 
ATOM      2  C   UNL     1      -4.445   2.648  25.167  0.00  0.00    +0.103 C 
ATOM      3  C   UNL     1      -3.957   2.160  24.714  0.00  0.00    +0.051 C 
ATOM      4  C   UNL     1      -4.125   1.585  24.147  0.00  0.00    +0.004 C 
ATOM      5  C   UNL     1      -3.510   1.178  23.777  0.00  0.00    +0.001 C 
ATOM      6  C   UNL     1      -2.726   1.346  23.976  0.00  0.00    +0.008 C 
ATOM      7  C   UNL     1      -2.895   0.771  23.408  0.00  0.00    +0.000 C 
ATOM      8  C   UNL     1      -2.111   0.939  23.606  0.00  0.00    +0.034 C 
ATOM      9  C   UNL     1      -1.328   1.107  23.804  0.00  0.00    +0.023 A 
ATOM     10  C   UNL     1      -1.160   1.681  24.371  0.00  0.00    +0.063 A 
ATOM     11  N   UNL     1      -0.340   1.728  24.452  0.00  0.00    -0.227 NA
ATOM     12  C   UNL     1      -0.001   1.182  23.935  0.00  0.00    +0.185 A 
ATOM     13  N   UNL     1       0.805   1.043  23.836  0.00  0.00    -0.154 NA
ATOM     14  C   UNL     1       1.064   0.477  23.296  0.00  0.00    +0.247 C 
ATOM     15  O   UNL     1       0.515   0.048  22.854  0.00  0.00    -0.273 OA
ATOM     25  S   UNL     1      -0.612   0.798  23.535  0.00  0.00    -0.054 S 
ATOM     26  C   UNL     1      -1.775   2.089  24.740  0.00  0.00    +0.044 C 
ATOM     27  C   UNL     1      -1.607   2.663  25.308  0.00  0.00    +0.006 C 
ATOM     28  C   UNL     1      -2.558   1.921  24.543  0.00  0.00    +0.046 C 
ATOM     29  C   UNL     1      -3.174   2.328  24.912  0.00  0.00    +0.170 C 
ATOM     30  O   UNL     1      -3.177   2.919  25.487  0.00  0.00    -0.452 OA
ATOM     31  C   UNL     1      -3.962   3.117  25.645  0.00  0.00    +0.316 C 
ATOM     32  O   UNL     1      -4.221   3.683  26.186  0.00  0.00    -0.250 OA
ENDROOT
BRANCH  14  16
ATOM     16  C   UNL     1       1.871   0.338  23.197  0.00  0.00    +0.082 C 
ATOM     17  C   UNL     1       2.346   0.906  22.833  0.00  0.00    +0.031 C 
ATOM     18  C   UNL     1       3.153   0.768  22.733  0.00  0.00    +0.094 C 
ATOM     19  N   UNL     1       3.486   0.061  22.998  0.00  0.00    -0.280 N 
ATOM     20  C   UNL     1       3.010  -0.507  23.362  0.00  0.00    +0.094 C 
ATOM     21  C   UNL     1       2.204  -0.369  23.462  0.00  0.00    +0.031 C 
ATOM     22  C   UNL     1       4.293  -0.077  22.899  0.00  0.00    +0.226 C 
ATOM     23  C   UNL     1       4.767   0.490  22.535  0.00  0.00    +0.095 C 
ATOM     24  O   UNL     1       4.626  -0.784  23.164  0.00  0.00    -0.275 OA
ENDBRANCH  14  16
TORSDOF 1
ENDMDL
