MODEL 1
REMARK VINA RESULT:     -13.0      0.000      0.000
REMARK  Name = 
REMARK  3 active torsions:
REMARK  status: ('A' for Active; 'I' for Inactive)
REMARK    1  A    between atoms: C_4  and  C_5
REMARK    2  A    between atoms: C_5  and  N_6
REMARK    3  A    between atoms: N_12  and  C_13
REMARK                            x       y       z     vdW  Elec       q    Type
REMARK                         _______ _______ _______ _____ _____    ______ ____
ROOT
ATOM      6  N   UNL     1      -4.047   0.978  24.617  0.00  0.00    -0.266 NA
ATOM      7  C   UNL     1      -4.587   1.419  25.059  0.00  0.00    +0.094 C 
ATOM      8  C   UNL     1      -4.388   2.177  25.317  0.00  0.00    +0.112 C 
ATOM      9  N   UNL     1      -3.647   2.493  25.134  0.00  0.00    -0.261 N 
ATOM     10  C   UNL     1      -3.108   2.053  24.692  0.00  0.00    +0.113 C 
ATOM     11  C   UNL     1      -2.426   2.506  24.597  0.00  0.00    +0.116 C 
ATOM     12  N   UNL     1      -2.544   3.228  24.980  0.00  0.00    -0.264 N 
ATOM     19  C   UNL     1      -3.298   3.220  25.311  0.00  0.00    +0.307 C 
ATOM     20  O   UNL     1      -3.645   3.831  25.745  0.00  0.00    -0.252 OA
ATOM     21  C   UNL     1      -3.308   1.295  24.434  0.00  0.00    +0.094 C 
ENDROOT
BRANCH  12  13
ATOM     13  C   UNL     1      -2.001   3.848  25.023  0.00  0.00    +0.082 C 
ATOM     14  C   UNL     1      -2.268   4.629  25.037  0.00  0.00    +0.052 C 
ATOM     15  C   UNL     1      -1.725   5.248  25.081  0.00  0.00    +0.144 C 
ATOM     16  O   UNL     1      -0.917   5.088  25.110  0.00  0.00    -0.354 OA
ATOM     17  C   UNL     1      -0.650   4.308  25.096  0.00  0.00    +0.144 C 
ATOM     18  C   UNL     1      -1.193   3.687  25.053  0.00  0.00    +0.052 C 
ENDBRANCH  12  13
BRANCH   6   5
ATOM      5  C   UNL     1      -4.248   0.221  24.359  0.00  0.00    +0.101 C 
BRANCH   5   4
ATOM      1  C   UNL     1      -3.124  -1.473  26.433  0.00  0.00    +0.130 C 
ATOM      2  N   UNL     1      -3.456  -1.219  25.722  0.00  0.00    -0.324 N 
ATOM      3  C   UNL     1      -3.660  -0.442  25.532  0.00  0.00    +0.073 A 
ATOM      4  C   UNL     1      -3.972  -0.441  24.769  0.00  0.00    +0.012 A 
ATOM     22  C   UNL     1      -3.961  -1.215  24.487  0.00  0.00    +0.015 A 
ATOM     23  C   UNL     1      -3.642  -1.696  25.077  0.00  0.00    +0.060 A 
ATOM     24  C   UNL     1      -3.563  -2.508  24.948  0.00  0.00    +0.017 A 
ATOM     25  C   UNL     1      -3.802  -2.838  24.232  0.00  0.00    +0.001 A 
ATOM     26  C   UNL     1      -4.121  -2.357  23.642  0.00  0.00    +0.000 A 
ATOM     27  C   UNL     1      -4.201  -1.546  23.769  0.00  0.00    +0.001 A 
ENDBRANCH   5   4
ENDBRANCH   6   5
TORSDOF 3
ENDMDL
MODEL 2
REMARK VINA RESULT:     -12.2      2.169      5.644
REMARK  Name = 
REMARK  3 active torsions:
REMARK  status: ('A' for Active; 'I' for Inactive)
REMARK    1  A    between atoms: C_4  and  C_5
REMARK    2  A    between atoms: C_5  and  N_6
REMARK    3  A    between atoms: N_12  and  C_13
REMARK                            x       y       z     vdW  Elec       q    Type
REMARK                         _______ _______ _______ _____ _____    ______ ____
ROOT
ATOM      6  N   UNL     1      -1.191   1.723  24.862  0.00  0.00    -0.266 NA
ATOM      7  C   UNL     1      -0.777   1.448  25.521  0.00  0.00    +0.094 C 
ATOM      8  C   UNL     1      -0.881   0.672  25.780  0.00  0.00    +0.112 C 
ATOM      9  N   UNL     1      -1.400   0.170  25.379  0.00  0.00    -0.261 N 
ATOM     10  C   UNL     1      -1.813   0.445  24.721  0.00  0.00    +0.113 C 
ATOM     11  C   UNL     1      -2.283  -0.172  24.440  0.00  0.00    +0.116 C 
ATOM     12  N   UNL     1      -2.160  -0.829  24.925  0.00  0.00    -0.264 N 
ATOM     19  C   UNL     1      -1.614  -0.617  25.505  0.00  0.00    +0.307 C 
ATOM     20  O   UNL     1      -1.331  -1.106  26.107  0.00  0.00    -0.252 OA
ATOM     21  C   UNL     1      -1.709   1.221  24.462  0.00  0.00    +0.094 C 
ENDROOT
BRANCH  12  13
ATOM     13  C   UNL     1      -2.519  -1.567  24.844  0.00  0.00    +0.082 C 
ATOM     14  C   UNL     1      -2.135  -2.170  24.433  0.00  0.00    +0.052 C 
ATOM     15  C   UNL     1      -2.494  -2.907  24.351  0.00  0.00    +0.144 C 
ATOM     16  O   UNL     1      -3.238  -3.043  24.681  0.00  0.00    -0.354 OA
ATOM     17  C   UNL     1      -3.623  -2.440  25.093  0.00  0.00    +0.144 C 
ATOM     18  C   UNL     1      -3.263  -1.701  25.174  0.00  0.00    +0.052 C 
ENDBRANCH  12  13
BRANCH   6   5
ATOM      5  C   UNL     1      -1.086   2.499  24.603  0.00  0.00    +0.101 C 
BRANCH   5   4
ATOM      1  C   UNL     1      -3.249   3.924  25.916  0.00  0.00    +0.130 C 
ATOM      2  N   UNL     1      -2.543   3.760  25.523  0.00  0.00    -0.324 N 
ATOM      3  C   UNL     1      -2.278   3.013  25.294  0.00  0.00    +0.073 A 
ATOM      4  C   UNL     1      -1.549   3.105  24.920  0.00  0.00    +0.012 A 
ATOM     22  C   UNL     1      -1.363   3.908  24.918  0.00  0.00    +0.015 A 
ATOM     23  C   UNL     1      -1.978   4.313  25.291  0.00  0.00    +0.060 A 
ATOM     24  C   UNL     1      -1.942   5.134  25.370  0.00  0.00    +0.017 A 
ATOM     25  C   UNL     1      -1.293   5.549  25.077  0.00  0.00    +0.001 A 
ATOM     26  C   UNL     1      -0.678   5.144  24.704  0.00  0.00    +0.000 A 
ATOM     27  C   UNL     1      -0.713   4.324  24.624  0.00  0.00    +0.001 A 
ENDBRANCH   5   4
ENDBRANCH   6   5
TORSDOF 3
ENDMDL
MODEL 3
REMARK VINA RESULT:     -10.7      2.812      4.211
REMARK  Name = 
REMARK  3 active torsions:
REMARK  status: ('A' for Active; 'I' for Inactive)
REMARK    1  A    between atoms: C_4  and  C_5
REMARK    2  A    between atoms: C_5  and  N_6
REMARK    3  A    between atoms: N_12  and  C_13
REMARK                            x       y       z     vdW  Elec       q    Type
REMARK                         _______ _______ _______ _____ _____    ______ ____
ROOT
ATOM      6  N   UNL     1      -3.013   0.950  24.315  0.00  0.00    -0.266 NA
ATOM      7  C   UNL     1      -2.848   0.402  24.910  0.00  0.00    +0.094 C 
ATOM      8  C   UNL     1      -2.092   0.078  24.975  0.00  0.00    +0.112 C 
ATOM      9  N   UNL     1      -1.501   0.303  24.445  0.00  0.00    -0.261 N 
ATOM     10  C   UNL     1      -1.665   0.851  23.852  0.00  0.00    +0.113 C 
ATOM     11  C   UNL     1      -0.976   0.966  23.413  0.00  0.00    +0.116 C 
ATOM     12  N   UNL     1      -0.385   0.489  23.736  0.00  0.00    -0.264 N 
ATOM     19  C   UNL     1      -0.710   0.079  24.374  0.00  0.00    +0.307 C 
ATOM     20  O   UNL     1      -0.313  -0.460  24.857  0.00  0.00    -0.252 OA
ATOM     21  C   UNL     1      -2.421   1.175  23.786  0.00  0.00    +0.094 C 
ENDROOT
BRANCH  12  13
ATOM     13  C   UNL     1       0.393   0.432  23.468  0.00  0.00    +0.082 C 
ATOM     14  C   UNL     1       0.612  -0.185  22.966  0.00  0.00    +0.052 C 
ATOM     15  C   UNL     1       1.390  -0.242  22.698  0.00  0.00    +0.144 C 
ATOM     16  O   UNL     1       1.949   0.317  22.932  0.00  0.00    -0.354 OA
ATOM     17  C   UNL     1       1.730   0.934  23.435  0.00  0.00    +0.144 C 
ATOM     18  C   UNL     1       0.952   0.991  23.703  0.00  0.00    +0.052 C 
ENDBRANCH  12  13
BRANCH   6   5
ATOM      5  C   UNL     1      -3.769   1.274  24.251  0.00  0.00    +0.101 C 
BRANCH   5   4
ATOM      1  C   UNL     1      -3.605   3.786  25.699  0.00  0.00    +0.130 C 
ATOM      2  N   UNL     1      -3.898   3.092  25.363  0.00  0.00    -0.324 N 
ATOM      3  C   UNL     1      -3.463   2.544  24.925  0.00  0.00    +0.073 A 
ATOM      4  C   UNL     1      -3.973   1.937  24.697  0.00  0.00    +0.012 A 
ATOM     22  C   UNL     1      -4.723   2.110  24.994  0.00  0.00    +0.015 A 
ATOM     23  C   UNL     1      -4.676   2.823  25.406  0.00  0.00    +0.060 A 
ATOM     24  C   UNL     1      -5.350   3.136  25.766  0.00  0.00    +0.017 A 
ATOM     25  C   UNL     1      -6.069   2.736  25.715  0.00  0.00    +0.001 A 
ATOM     26  C   UNL     1      -6.115   2.022  25.304  0.00  0.00    +0.000 A 
ATOM     27  C   UNL     1      -5.443   1.709  24.943  0.00  0.00    +0.001 A 
ENDBRANCH   5   4
ENDBRANCH   6   5
TORSDOF 3
ENDMDL
