MODEL 1
REMARK VINA RESULT:      -9.9      0.000      0.000
REMARK  Name = 
REMARK  5 active torsions:
REMARK  status: ('A' for Active; 'I' for Inactive)
REMARK    1  A    between atoms: C_4  and  C_8
REMARK    2  A    between atoms: N_13  and  C_14
REMARK    3  A    between atoms: C_18  and  N_22
REMARK    4  A    between atoms: N_25  and  C_26
REMARK    5  A    between atoms: C_26  and  C_27
REMARK                            x       y       z     vdW  Elec       q    Type
REMARK                         _______ _______ _______ _____ _____    ______ ____
ROOT
ATOM     14  C   UNL     1      -1.008   1.690  24.865  0.00  0.00    +0.154 C 
ATOM     15  C   UNL     1      -0.576   2.285  25.236  0.00  0.00    +0.166 C 
ATOM     16  O   UNL     1       0.198   2.254  24.948  0.00  0.00    -0.350 OA
ATOM     17  C   UNL     1       0.242   1.639  24.401  0.00  0.00    +0.166 C 
ATOM     18  C   UNL     1       0.746   1.240  23.885  0.00  0.00    +0.156 C 
ATOM     19  C   UNL     1       0.312   0.644  23.513  0.00  0.00    +0.166 C 
ATOM     20  O   UNL     1      -0.460   0.675  23.800  0.00  0.00    -0.350 OA
ATOM     21  C   UNL     1      -0.504   1.291  24.349  0.00  0.00    +0.166 C 
ENDROOT
BRANCH  14  13
ATOM      8  C   UNL     1      -3.731   2.552  24.966  0.00  0.00    +0.086 A 
ATOM      9  C   UNL     1      -3.497   3.318  24.769  0.00  0.00    +0.040 A 
ATOM     10  C   UNL     1      -2.698   3.485  24.645  0.00  0.00    +0.103 A 
ATOM     11  N   UNL     1      -2.135   2.887  24.718  0.00  0.00    -0.211 NA
ATOM     12  C   UNL     1      -2.371   2.121  24.915  0.00  0.00    +0.237 A 
ATOM     13  N   UNL     1      -1.808   1.522  24.989  0.00  0.00    -0.200 NA
ATOM     29  N   UNL     1      -3.168   1.954  25.039  0.00  0.00    -0.212 NA
BRANCH   8   4
ATOM      1  F   UNL     1      -6.081   2.753  26.580  0.00  0.00    -0.204 F 
ATOM      2  C   UNL     1      -5.705   2.486  25.896  0.00  0.00    +0.140 A 
ATOM      3  C   UNL     1      -4.907   2.653  25.773  0.00  0.00    +0.031 A 
ATOM      4  C   UNL     1      -4.530   2.385  25.089  0.00  0.00    +0.020 A 
ATOM      5  C   UNL     1      -4.952   1.950  24.529  0.00  0.00    +0.002 A 
ATOM      6  C   UNL     1      -5.751   1.783  24.653  0.00  0.00    +0.002 A 
ATOM      7  C   UNL     1      -6.127   2.051  25.336  0.00  0.00    +0.030 A 
ENDBRANCH   8   4
ENDBRANCH  14  13
BRANCH  18  22
ATOM     22  N   UNL     1       1.545   1.408  23.761  0.00  0.00    -0.184 NA
ATOM     23  C   UNL     1       2.012   0.887  23.324  0.00  0.00    +0.340 C 
ATOM     24  O   UNL     1       1.681   0.199  23.010  0.00  0.00    -0.249 OA
ATOM     25  N   UNL     1       2.810   1.054  23.200  0.00  0.00    -0.182 NA
BRANCH  25  26
ATOM     26  C   UNL     1       3.278   0.533  22.763  0.00  0.00    +0.143 C 
BRANCH  26  27
ATOM     27  C   UNL     1       4.048   0.745  22.556  0.00  0.00    -0.003 C 
ATOM     28  C   UNL     1       4.687   0.444  22.983  0.00  0.00    -0.003 C 
ENDBRANCH  26  27
ENDBRANCH  25  26
ENDBRANCH  18  22
TORSDOF 5
ENDMDL
MODEL 2
REMARK VINA RESULT:      -9.4      2.381      2.865
REMARK  Name = 
REMARK  5 active torsions:
REMARK  status: ('A' for Active; 'I' for Inactive)
REMARK    1  A    between atoms: C_4  and  C_8
REMARK    2  A    between atoms: N_13  and  C_14
REMARK    3  A    between atoms: C_18  and  N_22
REMARK    4  A    between atoms: N_25  and  C_26
REMARK    5  A    between atoms: C_26  and  C_27
REMARK                            x       y       z     vdW  Elec       q    Type
REMARK                         _______ _______ _______ _____ _____    ______ ____
ROOT
ATOM     14  C   UNL     1       0.091   0.794  23.631  0.00  0.00    +0.154 C 
ATOM     15  C   UNL     1       0.331   1.384  24.154  0.00  0.00    +0.166 C 
ATOM     16  O   UNL     1       1.146   1.482  24.069  0.00  0.00    -0.350 OA
ATOM     17  C   UNL     1       1.409   0.954  23.493  0.00  0.00    +0.166 C 
ATOM     18  C   UNL     1       2.074   0.689  23.085  0.00  0.00    +0.156 C 
ATOM     19  C   UNL     1       1.833   0.098  22.560  0.00  0.00    +0.166 C 
ATOM     20  O   UNL     1       1.018  -0.001  22.645  0.00  0.00    -0.350 OA
ATOM     21  C   UNL     1       0.756   0.529  23.222  0.00  0.00    +0.166 C 
ENDROOT
BRANCH  14  13
ATOM      8  C   UNL     1      -2.263  -0.412  24.714  0.00  0.00    +0.086 A 
ATOM      9  C   UNL     1      -1.898  -0.464  25.451  0.00  0.00    +0.040 A 
ATOM     10  C   UNL     1      -1.126  -0.188  25.549  0.00  0.00    +0.103 A 
ATOM     11  N   UNL     1      -0.720   0.140  24.910  0.00  0.00    -0.211 NA
ATOM     12  C   UNL     1      -1.087   0.191  24.172  0.00  0.00    +0.237 A 
ATOM     13  N   UNL     1      -0.681   0.518  23.533  0.00  0.00    -0.200 NA
ATOM     29  N   UNL     1      -1.858  -0.084  24.074  0.00  0.00    -0.212 NA
BRANCH   8   4
ATOM      1  F   UNL     1      -4.077  -2.555  24.182  0.00  0.00    -0.204 F 
ATOM      2  C   UNL     1      -3.941  -1.759  24.350  0.00  0.00    +0.140 A 
ATOM      3  C   UNL     1      -3.170  -1.484  24.448  0.00  0.00    +0.031 A 
ATOM      4  C   UNL     1      -3.035  -0.688  24.616  0.00  0.00    +0.020 A 
ATOM      5  C   UNL     1      -3.671  -0.167  24.686  0.00  0.00    +0.002 A 
ATOM      6  C   UNL     1      -4.443  -0.443  24.588  0.00  0.00    +0.002 A 
ATOM      7  C   UNL     1      -4.578  -1.239  24.420  0.00  0.00    +0.030 A 
ENDBRANCH   8   4
ENDBRANCH  14  13
BRANCH  18  22
ATOM     22  N   UNL     1       2.846   0.965  23.183  0.00  0.00    -0.184 NA
ATOM     23  C   UNL     1       3.482   0.445  23.107  0.00  0.00    +0.340 C 
ATOM     24  O   UNL     1       3.347  -0.351  22.933  0.00  0.00    -0.249 OA
ATOM     25  N   UNL     1       4.253   0.721  23.205  0.00  0.00    -0.182 NA
BRANCH  25  26
ATOM     26  C   UNL     1       4.889   0.201  23.129  0.00  0.00    +0.143 C 
BRANCH  26  27
ATOM     27  C   UNL     1       5.600   0.360  23.517  0.00  0.00    -0.003 C 
ATOM     28  C   UNL     1       6.211  -0.195  23.503  0.00  0.00    -0.003 C 
ENDBRANCH  26  27
ENDBRANCH  25  26
ENDBRANCH  18  22
TORSDOF 5
ENDMDL
MODEL 3
REMARK VINA RESULT:      -8.4      2.493      6.946
REMARK  Name = 
REMARK  5 active torsions:
REMARK  status: ('A' for Active; 'I' for Inactive)
REMARK    1  A    between atoms: C_4  and  C_8
REMARK    2  A    between atoms: N_13  and  C_14
REMARK    3  A    between atoms: C_18  and  N_22
REMARK    4  A    between atoms: N_25  and  C_26
REMARK    5  A    between atoms: C_26  and  C_27
REMARK                            x       y       z     vdW  Elec       q    Type
REMARK                         _______ _______ _______ _____ _____    ______ ____
ROOT
ATOM     14  C   UNL     1      -0.217   0.812  23.960  0.00  0.00    +0.154 C 
ATOM     15  C   UNL     1      -0.618   0.092  23.923  0.00  0.00    +0.166 C 
ATOM     16  O   UNL     1      -1.427   0.254  23.905  0.00  0.00    -0.350 OA
ATOM     17  C   UNL     1      -1.525   1.072  23.931  0.00  0.00    +0.166 C 
ATOM     18  C   UNL     1      -2.085   1.677  23.936  0.00  0.00    +0.156 C 
ATOM     19  C   UNL     1      -1.683   2.397  23.972  0.00  0.00    +0.166 C 
ATOM     20  O   UNL     1      -0.874   2.236  23.990  0.00  0.00    -0.350 OA
ATOM     21  C   UNL     1      -0.777   1.417  23.964  0.00  0.00    +0.166 C 
ENDROOT
BRANCH  14  13
ATOM      8  C   UNL     1       2.379   0.253  22.902  0.00  0.00    +0.086 A 
ATOM      9  C   UNL     1       2.039  -0.221  22.318  0.00  0.00    +0.040 A 
ATOM     10  C   UNL     1       1.220  -0.318  22.291  0.00  0.00    +0.103 A 
ATOM     11  N   UNL     1       0.741   0.059  22.847  0.00  0.00    -0.211 NA
ATOM     12  C   UNL     1       1.082   0.532  23.431  0.00  0.00    +0.237 A 
ATOM     13  N   UNL     1       0.603   0.909  23.987  0.00  0.00    -0.200 NA
ATOM     29  N   UNL     1       1.900   0.629  23.458  0.00  0.00    -0.212 NA
BRANCH   8   4
ATOM      1  F   UNL     1       4.959  -0.695  23.684  0.00  0.00    -0.204 F 
ATOM      2  C   UNL     1       4.488  -0.124  23.320  0.00  0.00    +0.140 A 
ATOM      3  C   UNL     1       3.670  -0.221  23.293  0.00  0.00    +0.031 A 
ATOM      4  C   UNL     1       3.198   0.350  22.929  0.00  0.00    +0.020 A 
ATOM      5  C   UNL     1       3.545   1.018  22.591  0.00  0.00    +0.002 A 
ATOM      6  C   UNL     1       4.365   1.115  22.619  0.00  0.00    +0.002 A 
ATOM      7  C   UNL     1       4.836   0.544  22.983  0.00  0.00    +0.030 A 
ENDBRANCH   8   4
ENDBRANCH  14  13
BRANCH  18  22
ATOM     22  N   UNL     1      -2.905   1.580  23.908  0.00  0.00    -0.184 NA
ATOM     23  C   UNL     1      -3.383   1.960  24.462  0.00  0.00    +0.340 C 
ATOM     24  O   UNL     1      -3.043   2.437  25.043  0.00  0.00    -0.249 OA
ATOM     25  N   UNL     1      -4.202   1.863  24.435  0.00  0.00    -0.182 NA
BRANCH  25  26
ATOM     26  C   UNL     1      -4.681   2.244  24.989  0.00  0.00    +0.143 C 
BRANCH  26  27
ATOM     27  C   UNL     1      -5.500   2.147  24.962  0.00  0.00    -0.003 C 
ATOM     28  C   UNL     1      -5.953   2.276  25.639  0.00  0.00    -0.003 C 
ENDBRANCH  26  27
ENDBRANCH  25  26
ENDBRANCH  18  22
TORSDOF 5
ENDMDL
MODEL 4
REMARK VINA RESULT:      -7.3     16.134     17.281
REMARK  Name = 
REMARK  5 active torsions:
REMARK  status: ('A' for Active; 'I' for Inactive)
REMARK    1  A    between atoms: C_4  and  C_8
REMARK    2  A    between atoms: N_13  and  C_14
REMARK    3  A    between atoms: C_18  and  N_22
REMARK    4  A    between atoms: N_25  and  C_26
REMARK    5  A    between atoms: C_26  and  C_27
REMARK                            x       y       z     vdW  Elec       q    Type
REMARK                         _______ _______ _______ _____ _____    ______ ____
ROOT
ATOM     14  C   UNL     1      -5.792 -10.194  13.722  0.00  0.00    +0.154 C 
ATOM     15  C   UNL     1      -6.608 -10.101  13.795  0.00  0.00    +0.166 C 
ATOM     16  O   UNL     1      -6.790 -10.081  14.600  0.00  0.00    -0.350 OA
ATOM     17  C   UNL     1      -6.088 -10.162  15.023  0.00  0.00    +0.166 C 
ATOM     18  C   UNL     1      -5.766 -10.200  15.781  0.00  0.00    +0.156 C 
ATOM     19  C   UNL     1      -4.949 -10.294  15.708  0.00  0.00    +0.166 C 
ATOM     20  O   UNL     1      -4.766 -10.314  14.904  0.00  0.00    -0.350 OA
ATOM     21  C   UNL     1      -5.470 -10.232  14.480  0.00  0.00    +0.166 C 
ENDROOT
BRANCH  14  13
ATOM      8  C   UNL     1      -5.297  -9.254  11.069  0.00  0.00    +0.086 A 
ATOM      9  C   UNL     1      -5.891  -8.689  11.157  0.00  0.00    +0.040 A 
ATOM     10  C   UNL     1      -6.313  -8.642  11.866  0.00  0.00    +0.103 A 
ATOM     11  N   UNL     1      -6.139  -9.159  12.485  0.00  0.00    -0.211 NA
ATOM     12  C   UNL     1      -5.544  -9.724  12.395  0.00  0.00    +0.237 A 
ATOM     13  N   UNL     1      -5.371 -10.242  13.013  0.00  0.00    -0.200 NA
ATOM     29  N   UNL     1      -5.124  -9.772  11.687  0.00  0.00    -0.212 NA
BRANCH   8   4
ATOM      1  F   UNL     1      -2.890  -8.833   9.587  0.00  0.00    -0.204 F 
ATOM      2  C   UNL     1      -3.673  -9.091   9.620  0.00  0.00    +0.140 A 
ATOM      3  C   UNL     1      -4.093  -9.044  10.327  0.00  0.00    +0.031 A 
ATOM      4  C   UNL     1      -4.876  -9.302  10.360  0.00  0.00    +0.020 A 
ATOM      5  C   UNL     1      -5.239  -9.607   9.685  0.00  0.00    +0.002 A 
ATOM      6  C   UNL     1      -4.818  -9.655   8.977  0.00  0.00    +0.002 A 
ATOM      7  C   UNL     1      -4.035  -9.397   8.944  0.00  0.00    +0.030 A 
ENDBRANCH   8   4
ENDBRANCH  14  13
BRANCH  18  22
ATOM     22  N   UNL     1      -6.187 -10.153  16.490  0.00  0.00    -0.184 NA
ATOM     23  C   UNL     1      -5.841 -10.410  17.193  0.00  0.00    +0.340 C 
ATOM     24  O   UNL     1      -5.074 -10.715  17.188  0.00  0.00    -0.249 OA
ATOM     25  N   UNL     1      -6.262 -10.363  17.900  0.00  0.00    -0.182 NA
BRANCH  25  26
ATOM     26  C   UNL     1      -5.915 -10.620  18.604  0.00  0.00    +0.143 C 
BRANCH  26  27
ATOM     27  C   UNL     1      -6.251 -10.412  19.329  0.00  0.00    -0.003 C 
ATOM     28  C   UNL     1      -5.996 -10.781  20.022  0.00  0.00    -0.003 C 
ENDBRANCH  26  27
ENDBRANCH  25  26
ENDBRANCH  18  22
TORSDOF 5
ENDMDL
MODEL 5
REMARK VINA RESULT:      -6.5     15.483     16.265
REMARK  Name = 
REMARK  5 active torsions:
REMARK  status: ('A' for Active; 'I' for Inactive)
REMARK    1  A    between atoms: C_4  and  C_8
REMARK    2  A    between atoms: N_13  and  C_14
REMARK    3  A    between atoms: C_18  and  N_22
REMARK    4  A    between atoms: N_25  and  C_26
REMARK    5  A    between atoms: C_26  and  C_27
REMARK                            x       y       z     vdW  Elec       q    Type
REMARK                         _______ _______ _______ _____ _____    ______ ____
ROOT
ATOM     14  C   UNL     1      -5.353 -10.492  14.576  0.00  0.00    +0.154 C 
ATOM     15  C   UNL     1      -4.582 -10.773  14.491  0.00  0.00    +0.166 C 
ATOM     16  O   UNL     1      -4.357 -10.661  13.705  0.00  0.00    -0.350 OA
ATOM     17  C   UNL     1      -4.987 -10.312  13.305  0.00  0.00    +0.166 C 
ATOM     18  C   UNL     1      -5.238 -10.027  12.573  0.00  0.00    +0.156 C 
ATOM     19  C   UNL     1      -6.009  -9.746  12.659  0.00  0.00    +0.166 C 
ATOM     20  O   UNL     1      -6.236  -9.858  13.444  0.00  0.00    -0.350 OA
ATOM     21  C   UNL     1      -5.604 -10.207  13.844  0.00  0.00    +0.166 C 
ENDROOT
BRANCH  14  13
ATOM      8  C   UNL     1      -5.476 -10.505  17.431  0.00  0.00    +0.086 A 
ATOM      9  C   UNL     1      -4.652 -10.504  17.468  0.00  0.00    +0.040 A 
ATOM     10  C   UNL     1      -4.209 -10.500  16.771  0.00  0.00    +0.103 A 
ATOM     11  N   UNL     1      -4.590 -10.498  16.039  0.00  0.00    -0.211 NA
ATOM     12  C   UNL     1      -5.415 -10.499  16.004  0.00  0.00    +0.237 A 
ATOM     13  N   UNL     1      -5.796 -10.496  15.273  0.00  0.00    -0.200 NA
ATOM     29  N   UNL     1      -5.858 -10.503  16.700  0.00  0.00    -0.212 NA
BRANCH   8   4
ATOM      1  F   UNL     1      -5.618 -10.771  20.273  0.00  0.00    -0.204 F 
ATOM      2  C   UNL     1      -5.990 -10.642  19.548  0.00  0.00    +0.140 A 
ATOM      3  C   UNL     1      -5.547 -10.638  18.853  0.00  0.00    +0.031 A 
ATOM      4  C   UNL     1      -5.919 -10.509  18.128  0.00  0.00    +0.020 A 
ATOM      5  C   UNL     1      -6.734 -10.384  18.099  0.00  0.00    +0.002 A 
ATOM      6  C   UNL     1      -7.177 -10.387  18.795  0.00  0.00    +0.002 A 
ATOM      7  C   UNL     1      -6.805 -10.517  19.520  0.00  0.00    +0.030 A 
ENDBRANCH   8   4
ENDBRANCH  14  13
BRANCH  18  22
ATOM     22  N   UNL     1      -4.795 -10.023  11.876  0.00  0.00    -0.184 NA
ATOM     23  C   UNL     1      -4.964  -9.475  11.284  0.00  0.00    +0.340 C 
ATOM     24  O   UNL     1      -5.575  -8.930  11.387  0.00  0.00    -0.249 OA
ATOM     25  N   UNL     1      -4.521  -9.471  10.588  0.00  0.00    -0.182 NA
BRANCH  25  26
ATOM     26  C   UNL     1      -4.690  -8.923   9.995  0.00  0.00    +0.143 C 
BRANCH  26  27
ATOM     27  C   UNL     1      -4.226  -8.897   9.313  0.00  0.00    -0.003 C 
ATOM     28  C   UNL     1      -4.515  -8.532   8.631  0.00  0.00    -0.003 C 
ENDBRANCH  26  27
ENDBRANCH  25  26
ENDBRANCH  18  22
TORSDOF 5
ENDMDL
MODEL 6
REMARK VINA RESULT:      -6.3     16.687     18.063
REMARK  Name = 
REMARK  5 active torsions:
REMARK  status: ('A' for Active; 'I' for Inactive)
REMARK    1  A    between atoms: C_4  and  C_8
REMARK    2  A    between atoms: N_13  and  C_14
REMARK    3  A    between atoms: C_18  and  N_22
REMARK    4  A    between atoms: N_25  and  C_26
REMARK    5  A    between atoms: C_26  and  C_27
REMARK                            x       y       z     vdW  Elec       q    Type
REMARK                         _______ _______ _______ _____ _____    ______ ____
ROOT
ATOM     14  C   UNL     1      -4.836 -10.406  12.341  0.00  0.00    +0.154 C 
ATOM     15  C   UNL     1      -4.529 -10.742  11.654  0.00  0.00    +0.166 C 
ATOM     16  O   UNL     1      -5.080 -10.630  11.049  0.00  0.00    -0.350 OA
ATOM     17  C   UNL     1      -5.726 -10.225  11.363  0.00  0.00    +0.166 C 
ATOM     18  C   UNL     1      -6.465  -9.906  11.185  0.00  0.00    +0.156 C 
ATOM     19  C   UNL     1      -6.771  -9.570  11.873  0.00  0.00    +0.166 C 
ATOM     20  O   UNL     1      -6.221  -9.682  12.478  0.00  0.00    -0.350 OA
ATOM     21  C   UNL     1      -5.575 -10.087  12.163  0.00  0.00    +0.166 C 
ENDROOT
BRANCH  14  13
ATOM      8  C   UNL     1      -2.453 -10.439  13.920  0.00  0.00    +0.086 A 
ATOM      9  C   UNL     1      -1.998 -10.483  13.233  0.00  0.00    +0.040 A 
ATOM     10  C   UNL     1      -2.367 -10.497  12.494  0.00  0.00    +0.103 A 
ATOM     11  N   UNL     1      -3.190 -10.467  12.443  0.00  0.00    -0.211 NA
ATOM     12  C   UNL     1      -3.644 -10.423  13.131  0.00  0.00    +0.237 A 
ATOM     13  N   UNL     1      -4.467 -10.392  13.080  0.00  0.00    -0.200 NA
ATOM     29  N   UNL     1      -3.276 -10.409  13.869  0.00  0.00    -0.212 NA
BRANCH   8   4
ATOM      1  F   UNL     1      -0.252  -9.673  15.573  0.00  0.00    -0.204 F 
ATOM      2  C   UNL     1      -0.984 -10.042  15.485  0.00  0.00    +0.140 A 
ATOM      3  C   UNL     1      -1.352 -10.056  14.747  0.00  0.00    +0.031 A 
ATOM      4  C   UNL     1      -2.085 -10.425  14.658  0.00  0.00    +0.020 A 
ATOM      5  C   UNL     1      -2.449 -10.781  15.307  0.00  0.00    +0.002 A 
ATOM      6  C   UNL     1      -2.080 -10.767  16.046  0.00  0.00    +0.002 A 
ATOM      7  C   UNL     1      -1.348 -10.398  16.134  0.00  0.00    +0.030 A 
ENDBRANCH   8   4
ENDBRANCH  14  13
BRANCH  18  22
ATOM     22  N   UNL     1      -6.833  -9.920  10.446  0.00  0.00    -0.184 NA
ATOM     23  C   UNL     1      -7.137  -9.223  10.124  0.00  0.00    +0.340 C 
ATOM     24  O   UNL     1      -7.072  -8.513  10.540  0.00  0.00    -0.249 OA
ATOM     25  N   UNL     1      -7.505  -9.238   9.386  0.00  0.00    -0.182 NA
BRANCH  25  26
ATOM     26  C   UNL     1      -7.809  -8.541   9.064  0.00  0.00    +0.143 C 
BRANCH  26  27
ATOM     27  C   UNL     1      -8.161  -8.552   8.318  0.00  0.00    -0.003 C 
ATOM     28  C   UNL     1      -8.732  -7.987   8.124  0.00  0.00    -0.003 C 
ENDBRANCH  26  27
ENDBRANCH  25  26
ENDBRANCH  18  22
TORSDOF 5
ENDMDL
MODEL 7
REMARK VINA RESULT:      -6.3     17.301     18.056
REMARK  Name = 
REMARK  5 active torsions:
REMARK  status: ('A' for Active; 'I' for Inactive)
REMARK    1  A    between atoms: C_4  and  C_8
REMARK    2  A    between atoms: N_13  and  C_14
REMARK    3  A    between atoms: C_18  and  N_22
REMARK    4  A    between atoms: N_25  and  C_26
REMARK    5  A    between atoms: C_26  and  C_27
REMARK                            x       y       z     vdW  Elec       q    Type
REMARK                         _______ _______ _______ _____ _____    ______ ____
ROOT
ATOM     14  C   UNL     1      -4.972 -10.112  11.078  0.00  0.00    +0.154 C 
ATOM     15  C   UNL     1      -4.271  -9.972  10.667  0.00  0.00    +0.166 C 
ATOM     16  O   UNL     1      -3.642 -10.091  11.189  0.00  0.00    -0.350 OA
ATOM     17  C   UNL     1      -3.955 -10.304  11.921  0.00  0.00    +0.166 C 
ATOM     18  C   UNL     1      -3.761 -10.509  12.695  0.00  0.00    +0.156 C 
ATOM     19  C   UNL     1      -4.463 -10.649  13.107  0.00  0.00    +0.166 C 
ATOM     20  O   UNL     1      -5.091 -10.531  12.586  0.00  0.00    -0.350 OA
ATOM     21  C   UNL     1      -4.777 -10.317  11.852  0.00  0.00    +0.166 C 
ENDROOT
BRANCH  14  13
ATOM      8  C   UNL     1      -6.900  -8.735   9.480  0.00  0.00    +0.086 A 
ATOM      9  C   UNL     1      -6.339  -8.157   9.300  0.00  0.00    +0.040 A 
ATOM     10  C   UNL     1      -5.576  -8.213   9.611  0.00  0.00    +0.103 A 
ATOM     11  N   UNL     1      -5.375  -8.846  10.100  0.00  0.00    -0.211 NA
ATOM     12  C   UNL     1      -5.936  -9.423  10.278  0.00  0.00    +0.237 A 
ATOM     13  N   UNL     1      -5.735 -10.056  10.768  0.00  0.00    -0.200 NA
ATOM     29  N   UNL     1      -6.698  -9.368   9.969  0.00  0.00    -0.212 NA
BRANCH   8   4
ATOM      1  F   UNL     1      -9.607  -7.849   9.711  0.00  0.00    -0.204 F 
ATOM      2  C   UNL     1      -9.016  -8.237   9.285  0.00  0.00    +0.140 A 
ATOM      3  C   UNL     1      -8.254  -8.292   9.595  0.00  0.00    +0.031 A 
ATOM      4  C   UNL     1      -7.663  -8.679   9.170  0.00  0.00    +0.020 A 
ATOM      5  C   UNL     1      -7.834  -9.011   8.434  0.00  0.00    +0.002 A 
ATOM      6  C   UNL     1      -8.597  -8.955   8.124  0.00  0.00    +0.002 A 
ATOM      7  C   UNL     1      -9.188  -8.568   8.549  0.00  0.00    +0.030 A 
ENDBRANCH   8   4
ENDBRANCH  14  13
BRANCH  18  22
ATOM     22  N   UNL     1      -2.997 -10.565  13.006  0.00  0.00    -0.184 NA
ATOM     23  C   UNL     1      -2.877 -10.490  13.818  0.00  0.00    +0.340 C 
ATOM     24  O   UNL     1      -3.518 -10.359  14.321  0.00  0.00    -0.249 OA
ATOM     25  N   UNL     1      -2.114 -10.546  14.128  0.00  0.00    -0.182 NA
BRANCH  25  26
ATOM     26  C   UNL     1      -1.993 -10.470  14.941  0.00  0.00    +0.143 C 
BRANCH  26  27
ATOM     27  C   UNL     1      -1.269 -10.196  15.226  0.00  0.00    -0.003 C 
ATOM     28  C   UNL     1      -1.013 -10.415  15.980  0.00  0.00    -0.003 C 
ENDBRANCH  26  27
ENDBRANCH  25  26
ENDBRANCH  18  22
TORSDOF 5
ENDMDL
MODEL 8
REMARK VINA RESULT:      -6.3     15.718     17.352
REMARK  Name = 
REMARK  5 active torsions:
REMARK  status: ('A' for Active; 'I' for Inactive)
REMARK    1  A    between atoms: C_4  and  C_8
REMARK    2  A    between atoms: N_13  and  C_14
REMARK    3  A    between atoms: C_18  and  N_22
REMARK    4  A    between atoms: N_25  and  C_26
REMARK    5  A    between atoms: C_26  and  C_27
REMARK                            x       y       z     vdW  Elec       q    Type
REMARK                         _______ _______ _______ _____ _____    ______ ____
ROOT
ATOM     14  C   UNL     1      -5.869 -10.419  14.732  0.00  0.00    +0.154 C 
ATOM     15  C   UNL     1      -6.529 -10.781  14.396  0.00  0.00    +0.166 C 
ATOM     16  O   UNL     1      -7.176 -10.637  14.889  0.00  0.00    -0.350 OA
ATOM     17  C   UNL     1      -6.915 -10.186  15.528  0.00  0.00    +0.166 C 
ATOM     18  C   UNL     1      -7.153  -9.819  16.226  0.00  0.00    +0.156 C 
ATOM     19  C   UNL     1      -6.492  -9.456  16.562  0.00  0.00    +0.166 C 
ATOM     20  O   UNL     1      -5.845  -9.600  16.071  0.00  0.00    -0.350 OA
ATOM     21  C   UNL     1      -6.107 -10.051  15.431  0.00  0.00    +0.166 C 
ENDROOT
BRANCH  14  13
ATOM      8  C   UNL     1      -4.107 -10.295  12.485  0.00  0.00    +0.086 A 
ATOM      9  C   UNL     1      -4.755 -10.223  11.980  0.00  0.00    +0.040 A 
ATOM     10  C   UNL     1      -5.520 -10.218  12.290  0.00  0.00    +0.103 A 
ATOM     11  N   UNL     1      -5.637 -10.285  13.104  0.00  0.00    -0.211 NA
ATOM     12  C   UNL     1      -4.987 -10.357  13.608  0.00  0.00    +0.237 A 
ATOM     13  N   UNL     1      -5.104 -10.424  14.422  0.00  0.00    -0.200 NA
ATOM     29  N   UNL     1      -4.223 -10.362  13.299  0.00  0.00    -0.212 NA
BRANCH   8   4
ATOM      1  F   UNL     1      -2.237  -9.455  10.494  0.00  0.00    -0.204 F 
ATOM      2  C   UNL     1      -2.407  -9.879  11.180  0.00  0.00    +0.140 A 
ATOM      3  C   UNL     1      -3.171  -9.874  11.489  0.00  0.00    +0.031 A 
ATOM      4  C   UNL     1      -3.342 -10.299  12.176  0.00  0.00    +0.020 A 
ATOM      5  C   UNL     1      -2.747 -10.729  12.553  0.00  0.00    +0.002 A 
ATOM      6  C   UNL     1      -1.982 -10.734  12.244  0.00  0.00    +0.002 A 
ATOM      7  C   UNL     1      -1.812 -10.309  11.557  0.00  0.00    +0.030 A 
ENDBRANCH   8   4
ENDBRANCH  14  13
BRANCH  18  22
ATOM     22  N   UNL     1      -7.918  -9.814  16.536  0.00  0.00    -0.184 NA
ATOM     23  C   UNL     1      -8.049 -10.054  17.314  0.00  0.00    +0.340 C 
ATOM     24  O   UNL     1      -7.416 -10.299  17.783  0.00  0.00    -0.249 OA
ATOM     25  N   UNL     1      -8.814 -10.049  17.623  0.00  0.00    -0.182 NA
BRANCH  25  26
ATOM     26  C   UNL     1      -8.945 -10.290  18.402  0.00  0.00    +0.143 C 
BRANCH  26  27
ATOM     27  C   UNL     1      -9.715 -10.426  18.667  0.00  0.00    -0.003 C 
ATOM     28  C   UNL     1      -9.856 -10.563  19.468  0.00  0.00    -0.003 C 
ENDBRANCH  26  27
ENDBRANCH  25  26
ENDBRANCH  18  22
TORSDOF 5
ENDMDL
MODEL 9
REMARK VINA RESULT:      -6.2     18.143     18.841
REMARK  Name = 
REMARK  5 active torsions:
REMARK  status: ('A' for Active; 'I' for Inactive)
REMARK    1  A    between atoms: C_4  and  C_8
REMARK    2  A    between atoms: N_13  and  C_14
REMARK    3  A    between atoms: C_18  and  N_22
REMARK    4  A    between atoms: N_25  and  C_26
REMARK    5  A    between atoms: C_26  and  C_27
REMARK                            x       y       z     vdW  Elec       q    Type
REMARK                         _______ _______ _______ _____ _____    ______ ____
ROOT
ATOM     14  C   UNL     1      -7.300  -9.009   9.649  0.00  0.00    +0.154 C 
ATOM     15  C   UNL     1      -6.841  -9.300   9.029  0.00  0.00    +0.166 C 
ATOM     16  O   UNL     1      -6.216  -9.730   9.355  0.00  0.00    -0.350 OA
ATOM     17  C   UNL     1      -6.290  -9.705  10.176  0.00  0.00    +0.166 C 
ATOM     18  C   UNL     1      -5.949  -9.955  10.884  0.00  0.00    +0.156 C 
ATOM     19  C   UNL     1      -6.409  -9.663  11.505  0.00  0.00    +0.166 C 
ATOM     20  O   UNL     1      -7.033  -9.233  11.180  0.00  0.00    -0.350 OA
ATOM     21  C   UNL     1      -6.960  -9.259  10.358  0.00  0.00    +0.166 C 
ENDROOT
BRANCH  14  13
ATOM      8  C   UNL     1      -8.650  -6.752   8.532  0.00  0.00    +0.086 A 
ATOM      9  C   UNL     1      -7.964  -6.543   8.124  0.00  0.00    +0.040 A 
ATOM     10  C   UNL     1      -7.283  -7.004   8.199  0.00  0.00    +0.103 A 
ATOM     11  N   UNL     1      -7.289  -7.672   8.682  0.00  0.00    -0.211 NA
ATOM     12  C   UNL     1      -7.975  -7.880   9.090  0.00  0.00    +0.237 A 
ATOM     13  N   UNL     1      -7.981  -8.549   9.574  0.00  0.00    -0.200 NA
ATOM     29  N   UNL     1      -8.655  -7.420   9.015  0.00  0.00    -0.212 NA
BRANCH   8   4
ATOM      1  F   UNL     1      -9.956  -4.217   8.716  0.00  0.00    -0.204 F 
ATOM      2  C   UNL     1      -9.984  -5.024   8.549  0.00  0.00    +0.140 A 
ATOM      3  C   UNL     1      -9.304  -5.484   8.624  0.00  0.00    +0.031 A 
ATOM      4  C   UNL     1      -9.331  -6.291   8.457  0.00  0.00    +0.020 A 
ATOM      5  C   UNL     1     -10.039  -6.639   8.214  0.00  0.00    +0.002 A 
ATOM      6  C   UNL     1     -10.720  -6.178   8.138  0.00  0.00    +0.002 A 
ATOM      7  C   UNL     1     -10.692  -5.371   8.306  0.00  0.00    +0.030 A 
ENDBRANCH   8   4
ENDBRANCH  14  13
BRANCH  18  22
ATOM     22  N   UNL     1      -5.268 -10.415  10.959  0.00  0.00    -0.184 NA
ATOM     23  C   UNL     1      -4.673 -10.187  11.482  0.00  0.00    +0.340 C 
ATOM     24  O   UNL     1      -4.757  -9.499  11.930  0.00  0.00    -0.249 OA
ATOM     25  N   UNL     1      -3.993 -10.648  11.557  0.00  0.00    -0.182 NA
BRANCH  25  26
ATOM     26  C   UNL     1      -3.396 -10.420  12.081  0.00  0.00    +0.143 C 
BRANCH  26  27
ATOM     27  C   UNL     1      -2.615 -10.644  11.938  0.00  0.00    -0.003 C 
ATOM     28  C   UNL     1      -2.055 -10.593  12.542  0.00  0.00    -0.003 C 
ENDBRANCH  26  27
ENDBRANCH  25  26
ENDBRANCH  18  22
TORSDOF 5
ENDMDL
MODEL 10
REMARK VINA RESULT:      -6.0     15.234     15.930
REMARK  Name = 
REMARK  5 active torsions:
REMARK  status: ('A' for Active; 'I' for Inactive)
REMARK    1  A    between atoms: C_4  and  C_8
REMARK    2  A    between atoms: N_13  and  C_14
REMARK    3  A    between atoms: C_18  and  N_22
REMARK    4  A    between atoms: N_25  and  C_26
REMARK    5  A    between atoms: C_26  and  C_27
REMARK                            x       y       z     vdW  Elec       q    Type
REMARK                         _______ _______ _______ _____ _____    ______ ____
ROOT
ATOM     14  C   UNL     1      -5.222 -10.689  14.839  0.00  0.00    +0.154 C 
ATOM     15  C   UNL     1      -4.582 -10.688  15.359  0.00  0.00    +0.166 C 
ATOM     16  O   UNL     1      -3.889 -10.684  14.910  0.00  0.00    -0.350 OA
ATOM     17  C   UNL     1      -4.101 -10.682  14.113  0.00  0.00    +0.166 C 
ATOM     18  C   UNL     1      -3.805 -10.678  13.344  0.00  0.00    +0.156 C 
ATOM     19  C   UNL     1      -4.446 -10.679  12.823  0.00  0.00    +0.166 C 
ATOM     20  O   UNL     1      -5.138 -10.683  13.271  0.00  0.00    -0.350 OA
ATOM     21  C   UNL     1      -4.925 -10.685  14.069  0.00  0.00    +0.166 C 
ENDROOT
BRANCH  14  13
ATOM      8  C   UNL     1      -7.327  -9.819  16.564  0.00  0.00    +0.086 A 
ATOM      9  C   UNL     1      -6.786  -9.376  17.002  0.00  0.00    +0.040 A 
ATOM     10  C   UNL     1      -5.989  -9.372  16.789  0.00  0.00    +0.103 A 
ATOM     11  N   UNL     1      -5.733  -9.811  16.139  0.00  0.00    -0.211 NA
ATOM     12  C   UNL     1      -6.275 -10.254  15.702  0.00  0.00    +0.237 A 
ATOM     13  N   UNL     1      -6.019 -10.692  15.051  0.00  0.00    -0.200 NA
ATOM     29  N   UNL     1      -7.072 -10.258  15.914  0.00  0.00    -0.212 NA
BRANCH   8   4
ATOM      1  F   UNL     1      -9.440 -10.779  18.233  0.00  0.00    -0.204 F 
ATOM      2  C   UNL     1      -9.181 -10.302  17.611  0.00  0.00    +0.140 A 
ATOM      3  C   UNL     1      -8.384 -10.299  17.399  0.00  0.00    +0.031 A 
ATOM      4  C   UNL     1      -8.125  -9.823  16.777  0.00  0.00    +0.020 A 
ATOM      5  C   UNL     1      -8.663  -9.350  16.367  0.00  0.00    +0.002 A 
ATOM      6  C   UNL     1      -9.461  -9.353  16.580  0.00  0.00    +0.002 A 
ATOM      7  C   UNL     1      -9.720  -9.830  17.202  0.00  0.00    +0.030 A 
ENDBRANCH   8   4
ENDBRANCH  14  13
BRANCH  18  22
ATOM     22  N   UNL     1      -3.007 -10.675  13.131  0.00  0.00    -0.184 NA
ATOM     23  C   UNL     1      -2.763 -10.266  12.457  0.00  0.00    +0.340 C 
ATOM     24  O   UNL     1      -3.315  -9.861  11.997  0.00  0.00    -0.249 OA
ATOM     25  N   UNL     1      -1.966 -10.263  12.245  0.00  0.00    -0.182 NA
BRANCH  25  26
ATOM     26  C   UNL     1      -1.720  -9.853  11.571  0.00  0.00    +0.143 C 
BRANCH  26  27
ATOM     27  C   UNL     1      -0.925  -9.656  11.476  0.00  0.00    -0.003 C 
ATOM     28  C   UNL     1      -0.717  -8.915  11.178  0.00  0.00    -0.003 C 
ENDBRANCH  26  27
ENDBRANCH  25  26
ENDBRANCH  18  22
TORSDOF 5
ENDMDL
