MODEL 1
REMARK VINA RESULT:     -10.4      0.000      0.000
REMARK  Name = 
REMARK  6 active torsions:
REMARK  status: ('A' for Active; 'I' for Inactive)
REMARK    1  A    between atoms: C_2  and  C_4
REMARK    2  A    between atoms: C_4  and  C_5
REMARK    3  A    between atoms: C_7  and  C_8
REMARK    4  A    between atoms: C_8  and  C_9
REMARK    5  A    between atoms: C_9  and  N_13
REMARK    6  A    between atoms: N_13  and  C_14
REMARK                            x       y       z     vdW  Elec       q    Type
REMARK                         _______ _______ _______ _____ _____    ______ ____
ROOT
ATOM      9  C   UNL     1      -4.327   1.591  24.746  0.00  0.00    +0.119 C 
ATOM     10  C   UNL     1      -4.902   1.207  25.197  0.00  0.00    +0.161 C 
ATOM     11  O   UNL     1      -5.464   1.757  24.945  0.00  0.00    -0.351 OA
ATOM     12  C   UNL     1      -4.889   2.139  24.495  0.00  0.00    +0.161 C 
ENDROOT
BRANCH   9   8
ATOM      8  C   UNL     1      -3.751   1.973  24.295  0.00  0.00    +0.070 C 
BRANCH   8   7
ATOM      5  C   UNL     1      -2.755   3.663  25.137  0.00  0.00    +0.154 A 
ATOM      6  C   UNL     1      -2.856   2.847  25.067  0.00  0.00    +0.054 A 
ATOM      7  C   UNL     1      -3.467   2.711  24.530  0.00  0.00    +0.102 A 
ATOM     20  N   UNL     1      -3.745   3.443  24.267  0.00  0.00    -0.082 NA
ATOM     21  O   UNL     1      -3.304   4.032  24.643  0.00  0.00    -0.358 OA
BRANCH   5   4
ATOM      4  C   UNL     1      -2.203   4.044  25.616  0.00  0.00    +0.067 C 
BRANCH   4   2
ATOM      1  C   UNL     1      -0.865   3.886  25.139  0.00  0.00    +0.000 C 
ATOM      2  C   UNL     1      -1.520   4.366  25.283  0.00  0.00    +0.008 C 
ATOM      3  C   UNL     1      -1.492   5.170  25.094  0.00  0.00    +0.000 C 
ENDBRANCH   4   2
ENDBRANCH   5   4
ENDBRANCH   8   7
ENDBRANCH   9   8
BRANCH   9  13
ATOM     13  N   UNL     1      -3.764   1.041  24.997  0.00  0.00    -0.217 NA
BRANCH  13  14
ATOM     14  C   UNL     1      -3.831   0.250  24.771  0.00  0.00    +0.073 C 
ATOM     15  C   UNL     1      -3.911  -0.337  25.344  0.00  0.00    +0.017 C 
ATOM     16  C   UNL     1      -3.977  -1.128  25.119  0.00  0.00    +0.001 C 
ATOM     17  C   UNL     1      -3.963  -1.330  24.319  0.00  0.00    +0.000 C 
ATOM     18  C   UNL     1      -3.883  -0.743  23.746  0.00  0.00    +0.001 C 
ATOM     19  C   UNL     1      -3.816   0.048  23.972  0.00  0.00    +0.017 C 
ENDBRANCH  13  14
ENDBRANCH   9  13
TORSDOF 6
ENDMDL
MODEL 2
REMARK VINA RESULT:     -10.3      1.425      4.539
REMARK  Name = 
REMARK  6 active torsions:
REMARK  status: ('A' for Active; 'I' for Inactive)
REMARK    1  A    between atoms: C_2  and  C_4
REMARK    2  A    between atoms: C_4  and  C_5
REMARK    3  A    between atoms: C_7  and  C_8
REMARK    4  A    between atoms: C_8  and  C_9
REMARK    5  A    between atoms: C_9  and  N_13
REMARK    6  A    between atoms: N_13  and  C_14
REMARK                            x       y       z     vdW  Elec       q    Type
REMARK                         _______ _______ _______ _____ _____    ______ ____
ROOT
ATOM      9  C   UNL     1      -2.463   1.991  24.207  0.00  0.00    +0.119 C 
ATOM     10  C   UNL     1      -1.957   2.356  23.668  0.00  0.00    +0.161 C 
ATOM     11  O   UNL     1      -2.455   2.131  23.050  0.00  0.00    -0.351 OA
ATOM     12  C   UNL     1      -2.961   1.766  23.589  0.00  0.00    +0.161 C 
ENDROOT
BRANCH   9   8
ATOM      8  C   UNL     1      -2.969   1.626  24.748  0.00  0.00    +0.070 C 
BRANCH   8   7
ATOM      5  C   UNL     1      -3.389  -0.455  24.974  0.00  0.00    +0.154 A 
ATOM      6  C   UNL     1      -3.639   0.331  24.934  0.00  0.00    +0.054 A 
ATOM      7  C   UNL     1      -2.973   0.804  24.819  0.00  0.00    +0.102 A 
ATOM     20  N   UNL     1      -2.311   0.312  24.789  0.00  0.00    -0.082 NA
ATOM     21  O   UNL     1      -2.569  -0.467  24.884  0.00  0.00    -0.358 OA
BRANCH   5   4
ATOM      4  C   UNL     1      -3.874  -1.113  25.085  0.00  0.00    +0.067 C 
BRANCH   4   2
ATOM      1  C   UNL     1      -3.318  -2.400  24.808  0.00  0.00    +0.000 C 
ATOM      2  C   UNL     1      -3.800  -1.768  24.588  0.00  0.00    +0.008 C 
ATOM      3  C   UNL     1      -4.209  -1.790  23.871  0.00  0.00    +0.000 C 
ENDBRANCH   4   2
ENDBRANCH   5   4
ENDBRANCH   8   7
ENDBRANCH   9   8
BRANCH   9  13
ATOM     13  N   UNL     1      -1.965   2.216  24.826  0.00  0.00    -0.217 NA
BRANCH  13  14
ATOM     14  C   UNL     1      -1.889   3.013  25.025  0.00  0.00    +0.073 C 
ATOM     15  C   UNL     1      -1.178   3.406  24.885  0.00  0.00    +0.017 C 
ATOM     16  C   UNL     1      -1.101   4.203  25.083  0.00  0.00    +0.001 C 
ATOM     17  C   UNL     1      -1.736   4.606  25.422  0.00  0.00    +0.000 C 
ATOM     18  C   UNL     1      -2.447   4.213  25.563  0.00  0.00    +0.001 C 
ATOM     19  C   UNL     1      -2.524   3.416  25.364  0.00  0.00    +0.017 C 
ENDBRANCH  13  14
ENDBRANCH   9  13
TORSDOF 6
ENDMDL
MODEL 3
REMARK VINA RESULT:     -10.1      1.834      2.604
REMARK  Name = 
REMARK  6 active torsions:
REMARK  status: ('A' for Active; 'I' for Inactive)
REMARK    1  A    between atoms: C_2  and  C_4
REMARK    2  A    between atoms: C_4  and  C_5
REMARK    3  A    between atoms: C_7  and  C_8
REMARK    4  A    between atoms: C_8  and  C_9
REMARK    5  A    between atoms: C_9  and  N_13
REMARK    6  A    between atoms: N_13  and  C_14
REMARK                            x       y       z     vdW  Elec       q    Type
REMARK                         _______ _______ _______ _____ _____    ______ ____
ROOT
ATOM      9  C   UNL     1      -2.871  -0.018  24.586  0.00  0.00    +0.119 C 
ATOM     10  C   UNL     1      -2.341  -0.449  25.050  0.00  0.00    +0.161 C 
ATOM     11  O   UNL     1      -1.713  -0.028  24.720  0.00  0.00    -0.351 OA
ATOM     12  C   UNL     1      -2.243   0.402  24.257  0.00  0.00    +0.161 C 
ENDROOT
BRANCH   9   8
ATOM      8  C   UNL     1      -3.402   0.411  24.122  0.00  0.00    +0.070 C 
BRANCH   8   7
ATOM      5  C   UNL     1      -4.300   2.288  24.601  0.00  0.00    +0.154 A 
ATOM      6  C   UNL     1      -4.360   1.497  24.373  0.00  0.00    +0.054 A 
ATOM      7  C   UNL     1      -3.598   1.186  24.330  0.00  0.00    +0.102 A 
ATOM     20  N   UNL     1      -3.066   1.783  24.532  0.00  0.00    -0.082 NA
ATOM     21  O   UNL     1      -3.500   2.465  24.699  0.00  0.00    -0.358 OA
BRANCH   5   4
ATOM      4  C   UNL     1      -4.929   2.810  24.711  0.00  0.00    +0.067 C 
BRANCH   4   2
ATOM      1  C   UNL     1      -4.777   3.752  25.776  0.00  0.00    +0.000 C 
ATOM      2  C   UNL     1      -5.123   3.067  25.471  0.00  0.00    +0.008 C 
ATOM      3  C   UNL     1      -5.663   2.640  25.926  0.00  0.00    +0.000 C 
ENDBRANCH   4   2
ENDBRANCH   5   4
ENDBRANCH   8   7
ENDBRANCH   9   8
BRANCH   9  13
ATOM     13  N   UNL     1      -3.501  -0.440  24.915  0.00  0.00    -0.217 NA
BRANCH  13  14
ATOM     14  C   UNL     1      -3.608  -1.235  24.725  0.00  0.00    +0.073 C 
ATOM     15  C   UNL     1      -3.343  -1.821  25.241  0.00  0.00    +0.017 C 
ATOM     16  C   UNL     1      -3.450  -2.617  25.052  0.00  0.00    +0.001 C 
ATOM     17  C   UNL     1      -3.822  -2.826  24.347  0.00  0.00    +0.000 C 
ATOM     18  C   UNL     1      -4.088  -2.241  23.831  0.00  0.00    +0.001 C 
ATOM     19  C   UNL     1      -3.981  -1.445  24.020  0.00  0.00    +0.017 C 
ENDBRANCH  13  14
ENDBRANCH   9  13
TORSDOF 6
ENDMDL
MODEL 4
REMARK VINA RESULT:      -9.9      1.215      4.345
REMARK  Name = 
REMARK  6 active torsions:
REMARK  status: ('A' for Active; 'I' for Inactive)
REMARK    1  A    between atoms: C_2  and  C_4
REMARK    2  A    between atoms: C_4  and  C_5
REMARK    3  A    between atoms: C_7  and  C_8
REMARK    4  A    between atoms: C_8  and  C_9
REMARK    5  A    between atoms: C_9  and  N_13
REMARK    6  A    between atoms: N_13  and  C_14
REMARK                            x       y       z     vdW  Elec       q    Type
REMARK                         _______ _______ _______ _____ _____    ______ ____
ROOT
ATOM      9  C   UNL     1      -4.571   1.492  24.857  0.00  0.00    +0.119 C 
ATOM     10  C   UNL     1      -5.133   2.023  24.567  0.00  0.00    +0.161 C 
ATOM     11  O   UNL     1      -5.701   1.693  25.067  0.00  0.00    -0.351 OA
ATOM     12  C   UNL     1      -5.139   1.164  25.356  0.00  0.00    +0.161 C 
ENDROOT
BRANCH   9   8
ATOM      8  C   UNL     1      -4.009   0.963  25.146  0.00  0.00    +0.070 C 
BRANCH   8   7
ATOM      5  C   UNL     1      -3.872  -1.155  24.912  0.00  0.00    +0.154 A 
ATOM      6  C   UNL     1      -3.731  -0.467  25.346  0.00  0.00    +0.054 A 
ATOM      7  C   UNL     1      -4.031   0.170  24.917  0.00  0.00    +0.102 A 
ATOM     20  N   UNL     1      -4.358  -0.122  24.218  0.00  0.00    -0.082 NA
ATOM     21  O   UNL     1      -4.259  -0.942  24.215  0.00  0.00    -0.358 OA
BRANCH   5   4
ATOM      4  C   UNL     1      -3.663  -1.920  25.135  0.00  0.00    +0.067 C 
BRANCH   4   2
ATOM      1  C   UNL     1      -3.730  -2.937  24.133  0.00  0.00    +0.000 C 
ATOM      2  C   UNL     1      -3.286  -2.419  24.597  0.00  0.00    +0.008 C 
ATOM      3  C   UNL     1      -2.463  -2.399  24.522  0.00  0.00    +0.000 C 
ENDBRANCH   4   2
ENDBRANCH   5   4
ENDBRANCH   8   7
ENDBRANCH   9   8
BRANCH   9  13
ATOM     13  N   UNL     1      -4.003   1.822  24.356  0.00  0.00    -0.217 NA
BRANCH  13  14
ATOM     14  C   UNL     1      -3.698   2.572  24.516  0.00  0.00    +0.073 C 
ATOM     15  C   UNL     1      -3.911   3.212  24.043  0.00  0.00    +0.017 C 
ATOM     16  C   UNL     1      -3.607   3.963  24.201  0.00  0.00    +0.001 C 
ATOM     17  C   UNL     1      -3.090   4.071  24.834  0.00  0.00    +0.000 C 
ATOM     18  C   UNL     1      -2.876   3.431  25.308  0.00  0.00    +0.001 C 
ATOM     19  C   UNL     1      -3.180   2.681  25.149  0.00  0.00    +0.017 C 
ENDBRANCH  13  14
ENDBRANCH   9  13
TORSDOF 6
ENDMDL
