MODEL 1
REMARK VINA RESULT:     -10.1      0.000      0.000
REMARK  Name = 
REMARK  3 active torsions:
REMARK  status: ('A' for Active; 'I' for Inactive)
REMARK    1  A    between atoms: C_2  and  C_3
REMARK    2  A    between atoms: C_10  and  C_11
REMARK    3  A    between atoms: C_11  and  N_12
REMARK                            x       y       z     vdW  Elec       q    Type
REMARK                         _______ _______ _______ _____ _____    ______ ____
ROOT
ATOM      3  C   UNL     1      -3.830  -1.730  24.585  0.00  0.00    +0.038 C 
ATOM      4  C   UNL     1      -4.217  -1.395  23.999  0.00  0.00    +0.076 C 
ATOM      5  N   UNL     1      -3.992  -1.032  24.705  0.00  0.00    -0.272 NA
ATOM      6  C   UNL     1      -3.490  -1.752  25.278  0.00  0.00    +0.072 C 
ATOM      7  C   UNL     1      -3.174  -1.925  25.823  0.00  0.00    +0.018 C 
ATOM      8  C   UNL     1      -3.613  -1.367  25.275  0.00  0.00    +0.008 C 
ATOM      9  C   UNL     1      -3.729  -0.549  25.571  0.00  0.00    +0.018 C 
ATOM     10  C   UNL     1      -4.109  -0.183  25.019  0.00  0.00    +0.079 C 
ENDROOT
BRANCH   3   2
ATOM      1  C   UNL     1      -3.867  -2.941  23.828  0.00  0.00    -0.005 C 
ATOM      2  C   UNL     1      -3.622  -2.524  24.496  0.00  0.00    -0.025 C 
ENDBRANCH   3   2
BRANCH  10  11
ATOM     11  C   UNL     1      -4.434   0.549  24.823  0.00  0.00    +0.133 C 
BRANCH  11  12
ATOM     12  N   UNL     1      -3.967   1.229  24.849  0.00  0.00    -0.187 NA
ATOM     13  C   UNL     1      -4.300   1.964  24.680  0.00  0.00    +0.323 C 
ATOM     14  O   UNL     1      -5.100   2.020  24.485  0.00  0.00    -0.251 OA
ATOM     15  N   UNL     1      -3.833   2.643  24.706  0.00  0.00    -0.258 N 
ATOM     16  C   UNL     1      -4.166   3.379  24.536  0.00  0.00    +0.127 C 
ATOM     17  C   UNL     1      -3.699   4.059  24.562  0.00  0.00    +0.164 C 
ATOM     18  O   UNL     1      -2.900   4.003  24.757  0.00  0.00    -0.350 OA
ATOM     19  C   UNL     1      -2.567   3.267  24.926  0.00  0.00    +0.164 C 
ATOM     20  C   UNL     1      -3.033   2.588  24.901  0.00  0.00    +0.127 C 
ENDBRANCH  11  12
ENDBRANCH  10  11
TORSDOF 3
ENDMDL
MODEL 2
REMARK VINA RESULT:     -10.1      1.017      1.641
REMARK  Name = 
REMARK  3 active torsions:
REMARK  status: ('A' for Active; 'I' for Inactive)
REMARK    1  A    between atoms: C_2  and  C_3
REMARK    2  A    between atoms: C_10  and  C_11
REMARK    3  A    between atoms: C_11  and  N_12
REMARK                            x       y       z     vdW  Elec       q    Type
REMARK                         _______ _______ _______ _____ _____    ______ ____
ROOT
ATOM      3  C   UNL     1      -3.543  -1.677  24.760  0.00  0.00    +0.038 C 
ATOM      4  C   UNL     1      -3.128  -1.246  25.257  0.00  0.00    +0.076 C 
ATOM      5  N   UNL     1      -3.574  -0.964  24.622  0.00  0.00    -0.272 NA
ATOM      6  C   UNL     1      -4.007  -1.796  24.154  0.00  0.00    +0.072 C 
ATOM      7  C   UNL     1      -4.383  -2.053  23.685  0.00  0.00    +0.018 C 
ATOM      8  C   UNL     1      -3.979  -1.393  24.139  0.00  0.00    +0.008 C 
ATOM      9  C   UNL     1      -4.118  -0.579  23.842  0.00  0.00    +0.018 C 
ATOM     10  C   UNL     1      -3.724  -0.120  24.308  0.00  0.00    +0.079 C 
ENDROOT
BRANCH   3   2
ATOM      1  C   UNL     1      -3.118  -2.821  25.503  0.00  0.00    -0.005 C 
ATOM      2  C   UNL     1      -3.540  -2.495  24.875  0.00  0.00    -0.025 C 
ENDBRANCH   3   2
BRANCH  10  11
ATOM     11  C   UNL     1      -3.541   0.671  24.446  0.00  0.00    +0.133 C 
BRANCH  11  12
ATOM     12  N   UNL     1      -4.112   1.179  24.759  0.00  0.00    -0.187 NA
ATOM     13  C   UNL     1      -3.943   1.980  24.853  0.00  0.00    +0.323 C 
ATOM     14  O   UNL     1      -3.204   2.275  24.636  0.00  0.00    -0.251 OA
ATOM     15  N   UNL     1      -4.514   2.488  25.166  0.00  0.00    -0.258 N 
ATOM     16  C   UNL     1      -4.346   3.290  25.261  0.00  0.00    +0.127 C 
ATOM     17  C   UNL     1      -4.916   3.797  25.573  0.00  0.00    +0.164 C 
ATOM     18  O   UNL     1      -5.656   3.502  25.791  0.00  0.00    -0.350 OA
ATOM     19  C   UNL     1      -5.824   2.700  25.696  0.00  0.00    +0.164 C 
ATOM     20  C   UNL     1      -5.254   2.193  25.384  0.00  0.00    +0.127 C 
ENDBRANCH  11  12
ENDBRANCH  10  11
TORSDOF 3
ENDMDL
MODEL 3
REMARK VINA RESULT:      -9.3      1.439      4.783
REMARK  Name = 
REMARK  3 active torsions:
REMARK  status: ('A' for Active; 'I' for Inactive)
REMARK    1  A    between atoms: C_2  and  C_3
REMARK    2  A    between atoms: C_10  and  C_11
REMARK    3  A    between atoms: C_11  and  N_12
REMARK                            x       y       z     vdW  Elec       q    Type
REMARK                         _______ _______ _______ _____ _____    ______ ____
ROOT
ATOM      3  C   UNL     1      -2.114   3.782  25.137  0.00  0.00    +0.038 C 
ATOM      4  C   UNL     1      -1.785   3.382  24.556  0.00  0.00    +0.076 C 
ATOM      5  N   UNL     1      -2.503   3.206  24.924  0.00  0.00    -0.272 NA
ATOM      6  C   UNL     1      -2.659   3.933  25.662  0.00  0.00    +0.072 C 
ATOM      7  C   UNL     1      -3.022   4.186  26.143  0.00  0.00    +0.018 C 
ATOM      8  C   UNL     1      -2.818   3.602  25.493  0.00  0.00    +0.008 C 
ATOM      9  C   UNL     1      -3.398   2.957  25.359  0.00  0.00    +0.018 C 
ATOM     10  C   UNL     1      -3.110   2.538  24.790  0.00  0.00    +0.079 C 
ENDROOT
BRANCH   3   2
ATOM      1  C   UNL     1      -1.011   4.686  25.049  0.00  0.00    -0.005 C 
ATOM      2  C   UNL     1      -1.709   4.446  25.415  0.00  0.00    -0.025 C 
ENDBRANCH   3   2
BRANCH  10  11
ATOM     11  C   UNL     1      -3.259   1.872  24.326  0.00  0.00    +0.133 C 
BRANCH  11  12
ATOM     12  N   UNL     1      -3.324   1.129  24.679  0.00  0.00    -0.187 NA
ATOM     13  C   UNL     1      -3.503   0.469  24.218  0.00  0.00    +0.323 C 
ATOM     14  O   UNL     1      -3.616   0.551  23.405  0.00  0.00    -0.251 OA
ATOM     15  N   UNL     1      -3.568  -0.274  24.571  0.00  0.00    -0.258 N 
ATOM     16  C   UNL     1      -3.746  -0.935  24.111  0.00  0.00    +0.127 C 
ATOM     17  C   UNL     1      -3.811  -1.678  24.464  0.00  0.00    +0.164 C 
ATOM     18  O   UNL     1      -3.697  -1.760  25.277  0.00  0.00    -0.350 OA
ATOM     19  C   UNL     1      -3.519  -1.099  25.737  0.00  0.00    +0.164 C 
ATOM     20  C   UNL     1      -3.454  -0.357  25.384  0.00  0.00    +0.127 C 
ENDBRANCH  11  12
ENDBRANCH  10  11
TORSDOF 3
ENDMDL
MODEL 4
REMARK VINA RESULT:      -9.3      1.849      4.486
REMARK  Name = 
REMARK  3 active torsions:
REMARK  status: ('A' for Active; 'I' for Inactive)
REMARK    1  A    between atoms: C_2  and  C_3
REMARK    2  A    between atoms: C_10  and  C_11
REMARK    3  A    between atoms: C_11  and  N_12
REMARK                            x       y       z     vdW  Elec       q    Type
REMARK                         _______ _______ _______ _____ _____    ______ ____
ROOT
ATOM      3  C   UNL     1      -4.721   2.471  24.929  0.00  0.00    +0.038 C 
ATOM      4  C   UNL     1      -5.115   1.898  25.279  0.00  0.00    +0.076 C 
ATOM      5  N   UNL     1      -4.508   1.806  24.727  0.00  0.00    -0.272 NA
ATOM      6  C   UNL     1      -4.191   2.767  24.452  0.00  0.00    +0.072 C 
ATOM      7  C   UNL     1      -3.802   3.158  24.103  0.00  0.00    +0.018 C 
ATOM      8  C   UNL     1      -4.127   2.373  24.388  0.00  0.00    +0.008 C 
ATOM      9  C   UNL     1      -3.758   1.655  24.044  0.00  0.00    +0.018 C 
ATOM     10  C   UNL     1      -4.119   1.064  24.364  0.00  0.00    +0.079 C 
ENDROOT
BRANCH   3   2
ATOM      1  C   UNL     1      -5.538   3.386  25.662  0.00  0.00    -0.005 C 
ATOM      2  C   UNL     1      -4.927   3.246  25.126  0.00  0.00    -0.025 C 
ENDBRANCH   3   2
BRANCH  10  11
ATOM     11  C   UNL     1      -4.144   0.240  24.376  0.00  0.00    +0.133 C 
BRANCH  11  12
ATOM     12  N   UNL     1      -3.449  -0.193  24.478  0.00  0.00    -0.187 NA
ATOM     13  C   UNL     1      -3.463  -1.015  24.417  0.00  0.00    +0.323 C 
ATOM     14  O   UNL     1      -4.172  -1.405  24.255  0.00  0.00    -0.251 OA
ATOM     15  N   UNL     1      -2.768  -1.448  24.519  0.00  0.00    -0.258 N 
ATOM     16  C   UNL     1      -2.781  -2.271  24.458  0.00  0.00    +0.127 C 
ATOM     17  C   UNL     1      -2.086  -2.703  24.559  0.00  0.00    +0.164 C 
ATOM     18  O   UNL     1      -1.378  -2.313  24.722  0.00  0.00    -0.350 OA
ATOM     19  C   UNL     1      -1.364  -1.490  24.783  0.00  0.00    +0.164 C 
ATOM     20  C   UNL     1      -2.059  -1.058  24.681  0.00  0.00    +0.127 C 
ENDBRANCH  11  12
ENDBRANCH  10  11
TORSDOF 3
ENDMDL
