MODEL 1
REMARK VINA RESULT:     -10.6      0.000      0.000
REMARK  Name = 
REMARK  6 active torsions:
REMARK  status: ('A' for Active; 'I' for Inactive)
REMARK    1  A    between atoms: O_2  and  C_3
REMARK    2  A    between atoms: C_6  and  O_7
REMARK    3  A    between atoms: O_7  and  C_8
REMARK    4  A    between atoms: C_8  and  C_9
REMARK    5  A    between atoms: C_18  and  C_19
REMARK    6  A    between atoms: C_19  and  C_21
REMARK                            x       y       z     vdW  Elec       q    Type
REMARK                         _______ _______ _______ _____ _____    ______ ____
ROOT
ATOM      9  C   UNL     1       0.586   0.167  23.601  0.00  0.00    +0.131 A 
ATOM     10  N   UNL     1       0.244   0.907  23.477  0.00  0.00    -0.244 NA
ATOM     11  C   UNL     1      -0.539   0.871  23.735  0.00  0.00    +0.061 A 
ATOM     12  C   UNL     1      -0.680   0.109  24.019  0.00  0.00    +0.022 A 
ATOM     13  C   UNL     1      -1.423  -0.090  24.316  0.00  0.00    +0.034 C 
ATOM     14  C   UNL     1      -2.026   0.472  24.330  0.00  0.00    +0.007 C 
ATOM     15  C   UNL     1      -2.166  -0.290  24.613  0.00  0.00    +0.000 C 
ATOM     16  C   UNL     1      -2.769   0.273  24.627  0.00  0.00    +0.001 C 
ATOM     17  C   UNL     1      -3.373   0.836  24.641  0.00  0.00    +0.003 C 
ATOM     18  C   UNL     1      -3.233   1.597  24.357  0.00  0.00    +0.039 C 
ATOM     28  C   UNL     1      -2.489   1.797  24.060  0.00  0.00    +0.153 C 
ATOM     29  O   UNL     1      -2.349   2.558  23.776  0.00  0.00    -0.223 OA
ATOM     30  C   UNL     1      -1.886   1.234  24.046  0.00  0.00    +0.036 C 
ATOM     31  C   UNL     1      -1.143   1.434  23.749  0.00  0.00    +0.043 C 
ATOM     32  C   UNL     1      -1.003   2.195  23.466  0.00  0.00    +0.006 C 
ATOM     33  S   UNL     1       0.017  -0.326  23.936  0.00  0.00    -0.072 S 
ENDROOT
BRANCH  18  19
ATOM     19  C   UNL     1      -3.836   2.161  24.371  0.00  0.00    +0.079 C 
ATOM     20  C   UNL     1      -4.155   2.441  23.664  0.00  0.00    +0.010 C 
BRANCH  19  21
ATOM     21  C   UNL     1      -4.120   2.443  25.092  0.00  0.00    +0.225 C 
ATOM     22  O   UNL     1      -3.600   2.778  25.638  0.00  0.00    -0.275 OA
ATOM     23  N   UNL     1      -4.925   2.389  25.267  0.00  0.00    -0.280 N 
ATOM     24  C   UNL     1      -5.288   2.646  25.962  0.00  0.00    +0.093 C 
ATOM     25  C   UNL     1      -6.094   2.486  25.903  0.00  0.00    +0.023 C 
ATOM     26  C   UNL     1      -6.230   2.130  25.171  0.00  0.00    +0.023 C 
ATOM     27  C   UNL     1      -5.508   2.070  24.778  0.00  0.00    +0.093 C 
ENDBRANCH  19  21
ENDBRANCH  18  19
BRANCH   9   8
ATOM      8  C   UNL     1       1.364  -0.043  23.422  0.00  0.00    +0.257 C 
BRANCH   8   7
ATOM      7  O   UNL     1       1.799   0.406  22.884  0.00  0.00    -0.468 OA
BRANCH   7   6
ATOM      3  C   UNL     1       4.271   0.288  22.886  0.00  0.00    +0.139 A 
ATOM      4  C   UNL     1       3.893   1.015  22.797  0.00  0.00    +0.040 A 
ATOM      5  C   UNL     1       3.069   1.055  22.797  0.00  0.00    +0.040 A 
ATOM      6  C   UNL     1       2.623   0.367  22.885  0.00  0.00    +0.139 A 
ATOM     34  C   UNL     1       3.001  -0.361  22.974  0.00  0.00    +0.040 A 
ATOM     35  C   UNL     1       3.825  -0.400  22.975  0.00  0.00    +0.040 A 
BRANCH   3   2
ATOM      1  C   UNL     1       5.499   0.086  23.587  0.00  0.00    +0.252 C 
ATOM      2  O   UNL     1       5.095   0.248  22.887  0.00  0.00    -0.471 OA
ENDBRANCH   3   2
ENDBRANCH   7   6
ENDBRANCH   8   7
ENDBRANCH   9   8
TORSDOF 6
ENDMDL
MODEL 2
REMARK VINA RESULT:      -8.1      1.853      2.695
REMARK  Name = 
REMARK  6 active torsions:
REMARK  status: ('A' for Active; 'I' for Inactive)
REMARK    1  A    between atoms: O_2  and  C_3
REMARK    2  A    between atoms: C_6  and  O_7
REMARK    3  A    between atoms: O_7  and  C_8
REMARK    4  A    between atoms: C_8  and  C_9
REMARK    5  A    between atoms: C_18  and  C_19
REMARK    6  A    between atoms: C_19  and  C_21
REMARK                            x       y       z     vdW  Elec       q    Type
REMARK                         _______ _______ _______ _____ _____    ______ ____
ROOT
ATOM      9  C   UNL     1       1.109   0.917  23.617  0.00  0.00    +0.131 A 
ATOM     10  N   UNL     1       0.809   0.205  23.906  0.00  0.00    -0.244 NA
ATOM     11  C   UNL     1       0.000   0.304  24.035  0.00  0.00    +0.061 A 
ATOM     12  C   UNL     1      -0.199   1.077  23.826  0.00  0.00    +0.022 A 
ATOM     13  C   UNL     1      -0.979   1.336  23.898  0.00  0.00    +0.034 C 
ATOM     14  C   UNL     1      -1.560   0.823  24.178  0.00  0.00    +0.007 C 
ATOM     15  C   UNL     1      -1.758   1.596  23.969  0.00  0.00    +0.000 C 
ATOM     16  C   UNL     1      -2.339   1.082  24.250  0.00  0.00    +0.001 C 
ATOM     17  C   UNL     1      -2.921   0.568  24.531  0.00  0.00    +0.003 C 
ATOM     18  C   UNL     1      -2.723  -0.205  24.740  0.00  0.00    +0.039 C 
ATOM     28  C   UNL     1      -1.942  -0.464  24.668  0.00  0.00    +0.153 C 
ATOM     29  O   UNL     1      -1.744  -1.236  24.877  0.00  0.00    -0.223 OA
ATOM     30  C   UNL     1      -1.361   0.050  24.388  0.00  0.00    +0.036 C 
ATOM     31  C   UNL     1      -0.582  -0.210  24.316  0.00  0.00    +0.043 C 
ATOM     32  C   UNL     1      -0.383  -0.982  24.525  0.00  0.00    +0.006 C 
ATOM     33  S   UNL     1       0.488   1.456  23.568  0.00  0.00    -0.072 S 
ENDROOT
BRANCH  18  19
ATOM     19  C   UNL     1      -3.304  -0.719  25.021  0.00  0.00    +0.079 C 
ATOM     20  C   UNL     1      -3.240  -1.041  25.777  0.00  0.00    +0.010 C 
BRANCH  19  21
ATOM     21  C   UNL     1      -3.950  -0.910  24.545  0.00  0.00    +0.225 C 
ATOM     22  O   UNL     1      -4.469  -0.319  24.296  0.00  0.00    -0.275 OA
ATOM     23  N   UNL     1      -4.076  -1.692  24.317  0.00  0.00    -0.280 N 
ATOM     24  C   UNL     1      -4.695  -1.966  23.844  0.00  0.00    +0.093 C 
ATOM     25  C   UNL     1      -4.607  -2.781  23.756  0.00  0.00    +0.023 C 
ATOM     26  C   UNL     1      -3.935  -3.012  24.174  0.00  0.00    +0.023 C 
ATOM     27  C   UNL     1      -3.606  -2.339  24.521  0.00  0.00    +0.093 C 
ENDBRANCH  19  21
ENDBRANCH  18  19
BRANCH   9   8
ATOM      8  C   UNL     1       1.895   1.064  23.414  0.00  0.00    +0.257 C 
BRANCH   8   7
ATOM      7  O   UNL     1       2.283   0.569  22.880  0.00  0.00    -0.468 OA
BRANCH   7   6
ATOM      3  C   UNL     1       4.740   0.295  23.004  0.00  0.00    +0.139 A 
ATOM      4  C   UNL     1       4.244  -0.336  23.194  0.00  0.00    +0.040 A 
ATOM      5  C   UNL     1       3.425  -0.245  23.153  0.00  0.00    +0.040 A 
ATOM      6  C   UNL     1       3.102   0.478  22.922  0.00  0.00    +0.139 A 
ATOM     34  C   UNL     1       3.597   1.109  22.732  0.00  0.00    +0.040 A 
ATOM     35  C   UNL     1       4.416   1.018  22.773  0.00  0.00    +0.040 A 
BRANCH   3   2
ATOM      1  C   UNL     1       5.901  -0.149  23.707  0.00  0.00    +0.252 C 
ATOM      2  O   UNL     1       5.559   0.204  23.046  0.00  0.00    -0.471 OA
ENDBRANCH   3   2
ENDBRANCH   7   6
ENDBRANCH   8   7
ENDBRANCH   9   8
TORSDOF 6
ENDMDL
MODEL 3
REMARK VINA RESULT:      -7.8      1.245      7.097
REMARK  Name = 
REMARK  6 active torsions:
REMARK  status: ('A' for Active; 'I' for Inactive)
REMARK    1  A    between atoms: O_2  and  C_3
REMARK    2  A    between atoms: C_6  and  O_7
REMARK    3  A    between atoms: O_7  and  C_8
REMARK    4  A    between atoms: C_8  and  C_9
REMARK    5  A    between atoms: C_18  and  C_19
REMARK    6  A    between atoms: C_19  and  C_21
REMARK                            x       y       z     vdW  Elec       q    Type
REMARK                         _______ _______ _______ _____ _____    ______ ____
ROOT
ATOM      9  C   UNL     1      -1.600   1.366  24.460  0.00  0.00    +0.131 A 
ATOM     10  N   UNL     1      -0.864   1.736  24.506  0.00  0.00    -0.244 NA
ATOM     11  C   UNL     1      -0.316   1.262  24.109  0.00  0.00    +0.061 A 
ATOM     12  C   UNL     1      -0.714   0.601  23.819  0.00  0.00    +0.022 A 
ATOM     13  C   UNL     1      -0.302   0.025  23.395  0.00  0.00    +0.034 C 
ATOM     14  C   UNL     1       0.507   0.111  23.261  0.00  0.00    +0.007 C 
ATOM     15  C   UNL     1       0.109  -0.550  22.970  0.00  0.00    +0.000 C 
ATOM     16  C   UNL     1       0.918  -0.464  22.837  0.00  0.00    +0.001 C 
ATOM     17  C   UNL     1       1.728  -0.378  22.702  0.00  0.00    +0.003 C 
ATOM     18  C   UNL     1       2.126   0.284  22.993  0.00  0.00    +0.039 C 
ATOM     28  C   UNL     1       1.714   0.860  23.417  0.00  0.00    +0.153 C 
ATOM     29  O   UNL     1       2.111   1.521  23.707  0.00  0.00    -0.223 OA
ATOM     30  C   UNL     1       0.905   0.773  23.551  0.00  0.00    +0.036 C 
ATOM     31  C   UNL     1       0.494   1.349  23.975  0.00  0.00    +0.043 C 
ATOM     32  C   UNL     1       0.891   2.010  24.265  0.00  0.00    +0.006 C 
ATOM     33  S   UNL     1      -1.508   0.665  24.036  0.00  0.00    -0.072 S 
ENDROOT
BRANCH  18  19
ATOM     19  C   UNL     1       2.936   0.371  22.859  0.00  0.00    +0.079 C 
ATOM     20  C   UNL     1       3.221   1.046  22.483  0.00  0.00    +0.010 C 
BRANCH  19  21
ATOM     21  C   UNL     1       3.458  -0.220  23.101  0.00  0.00    +0.225 C 
ATOM     22  O   UNL     1       3.203  -1.002  23.153  0.00  0.00    -0.275 OA
ATOM     23  N   UNL     1       4.237  -0.026  23.292  0.00  0.00    -0.280 N 
ATOM     24  C   UNL     1       4.820  -0.554  23.541  0.00  0.00    +0.093 C 
ATOM     25  C   UNL     1       5.514  -0.126  23.670  0.00  0.00    +0.023 C 
ATOM     26  C   UNL     1       5.360   0.666  23.500  0.00  0.00    +0.023 C 
ATOM     27  C   UNL     1       4.571   0.728  23.266  0.00  0.00    +0.093 C 
ENDBRANCH  19  21
ENDBRANCH  18  19
BRANCH   9   8
ATOM      8  C   UNL     1      -2.305   1.648  24.782  0.00  0.00    +0.257 C 
BRANCH   8   7
ATOM      7  O   UNL     1      -2.859   2.022  24.299  0.00  0.00    -0.468 OA
BRANCH   7   6
ATOM      3  C   UNL     1      -5.053   2.697  25.224  0.00  0.00    +0.139 A 
ATOM      4  C   UNL     1      -4.447   3.252  25.151  0.00  0.00    +0.040 A 
ATOM      5  C   UNL     1      -3.716   3.027  24.843  0.00  0.00    +0.040 A 
ATOM      6  C   UNL     1      -3.591   2.247  24.608  0.00  0.00    +0.139 A 
ATOM     34  C   UNL     1      -4.196   1.692  24.680  0.00  0.00    +0.040 A 
ATOM     35  C   UNL     1      -4.927   1.917  24.988  0.00  0.00    +0.040 A 
BRANCH   3   2
ATOM      1  C   UNL     1      -6.194   2.413  26.035  0.00  0.00    +0.252 C 
ATOM      2  O   UNL     1      -5.785   2.922  25.533  0.00  0.00    -0.471 OA
ENDBRANCH   3   2
ENDBRANCH   7   6
ENDBRANCH   8   7
ENDBRANCH   9   8
TORSDOF 6
ENDMDL
