MODEL 1
REMARK VINA RESULT:      -7.9      0.000      0.000
REMARK  Name = 
REMARK  2 active torsions:
REMARK  status: ('A' for Active; 'I' for Inactive)
REMARK    1  A    between atoms: N_6  and  C_7
REMARK    2  A    between atoms: C_7  and  C_8
REMARK                            x       y       z     vdW  Elec       q    Type
REMARK                         _______ _______ _______ _____ _____    ______ ____
ROOT
ATOM      1  C   UNL     1      -5.289   2.855  25.039  0.00  0.00    +0.117 C 
ATOM      2  N   UNL     1      -4.860   2.161  24.919  0.00  0.00    -0.261 N 
ATOM      3  C   UNL     1      -4.980   1.442  25.308  0.00  0.00    +0.116 C 
ATOM      4  C   UNL     1      -4.430   0.901  25.018  0.00  0.00    +0.113 C 
ATOM      5  C   UNL     1      -4.287   0.108  25.198  0.00  0.00    +0.094 C 
ATOM      6  N   UNL     1      -3.686  -0.301  24.811  0.00  0.00    -0.270 NA
ATOM     11  C   UNL     1      -3.225   0.082  24.243  0.00  0.00    +0.094 C 
ATOM     12  C   UNL     1      -3.367   0.874  24.063  0.00  0.00    +0.112 C 
ATOM     13  N   UNL     1      -3.969   1.284  24.451  0.00  0.00    -0.261 N 
ATOM     14  C   UNL     1      -4.235   2.062  24.389  0.00  0.00    +0.307 C 
ATOM     15  O   UNL     1      -3.930   2.641  23.886  0.00  0.00    -0.252 OA
ENDROOT
BRANCH   6   7
ATOM      7  C   UNL     1      -3.543  -1.094  24.990  0.00  0.00    +0.072 C 
BRANCH   7   8
ATOM      8  C   UNL     1      -3.803  -1.686  24.479  0.00  0.00    +0.016 C 
ATOM      9  C   UNL     1      -4.287  -1.932  23.858  0.00  0.00    +0.001 C 
ATOM     10  C   UNL     1      -3.769  -2.467  24.214  0.00  0.00    +0.001 C 
ENDBRANCH   7   8
ENDBRANCH   6   7
TORSDOF 2
ENDMDL
MODEL 2
REMARK VINA RESULT:      -7.8      0.725      1.203
REMARK  Name = 
REMARK  2 active torsions:
REMARK  status: ('A' for Active; 'I' for Inactive)
REMARK    1  A    between atoms: N_6  and  C_7
REMARK    2  A    between atoms: C_7  and  C_8
REMARK                            x       y       z     vdW  Elec       q    Type
REMARK                         _______ _______ _______ _____ _____    ______ ____
ROOT
ATOM      1  C   UNL     1      -3.831   3.246  23.734  0.00  0.00    +0.117 C 
ATOM      2  N   UNL     1      -3.892   2.478  24.031  0.00  0.00    -0.261 N 
ATOM      3  C   UNL     1      -3.353   1.865  23.905  0.00  0.00    +0.116 C 
ATOM      4  C   UNL     1      -3.631   1.198  24.301  0.00  0.00    +0.113 C 
ATOM      5  C   UNL     1      -3.329   0.433  24.373  0.00  0.00    +0.094 C 
ATOM      6  N   UNL     1      -3.736  -0.132  24.815  0.00  0.00    -0.270 NA
ATOM     11  C   UNL     1      -4.446   0.068  25.185  0.00  0.00    +0.094 C 
ATOM     12  C   UNL     1      -4.748   0.832  25.114  0.00  0.00    +0.112 C 
ATOM     13  N   UNL     1      -4.340   1.397  24.672  0.00  0.00    -0.261 N 
ATOM     14  C   UNL     1      -4.502   2.188  24.504  0.00  0.00    +0.307 C 
ATOM     15  O   UNL     1      -5.158   2.615  24.765  0.00  0.00    -0.252 OA
ENDROOT
BRANCH   6   7
ATOM      7  C   UNL     1      -3.434  -0.896  24.887  0.00  0.00    +0.072 C 
BRANCH   7   8
ATOM      8  C   UNL     1      -3.758  -1.511  24.444  0.00  0.00    +0.016 C 
ATOM      9  C   UNL     1      -4.271  -1.774  23.853  0.00  0.00    +0.001 C 
ATOM     10  C   UNL     1      -3.808  -2.317  24.267  0.00  0.00    +0.001 C 
ENDBRANCH   7   8
ENDBRANCH   6   7
TORSDOF 2
ENDMDL
MODEL 3
REMARK VINA RESULT:      -7.5      2.451      4.046
REMARK  Name = 
REMARK  2 active torsions:
REMARK  status: ('A' for Active; 'I' for Inactive)
REMARK    1  A    between atoms: N_6  and  C_7
REMARK    2  A    between atoms: C_7  and  C_8
REMARK                            x       y       z     vdW  Elec       q    Type
REMARK                         _______ _______ _______ _____ _____    ______ ____
ROOT
ATOM      1  C   UNL     1      -5.826   2.292  25.014  0.00  0.00    +0.117 C 
ATOM      2  N   UNL     1      -5.026   2.480  25.085  0.00  0.00    -0.261 N 
ATOM      3  C   UNL     1      -4.712   3.110  25.515  0.00  0.00    +0.116 C 
ATOM      4  C   UNL     1      -3.892   3.090  25.434  0.00  0.00    +0.113 C 
ATOM      5  C   UNL     1      -3.295   3.574  25.734  0.00  0.00    +0.094 C 
ATOM      6  N   UNL     1      -2.506   3.415  25.556  0.00  0.00    -0.270 NA
ATOM     11  C   UNL     1      -2.312   2.772  25.076  0.00  0.00    +0.094 C 
ATOM     12  C   UNL     1      -2.908   2.288  24.775  0.00  0.00    +0.112 C 
ATOM     13  N   UNL     1      -3.698   2.447  24.954  0.00  0.00    -0.261 N 
ATOM     14  C   UNL     1      -4.399   2.070  24.738  0.00  0.00    +0.307 C 
ATOM     15  O   UNL     1      -4.463   1.401  24.260  0.00  0.00    -0.252 OA
ENDROOT
BRANCH   6   7
ATOM      7  C   UNL     1      -1.908   3.899  25.857  0.00  0.00    +0.072 C 
BRANCH   7   8
ATOM      8  C   UNL     1      -1.566   4.478  25.380  0.00  0.00    +0.016 C 
ATOM      9  C   UNL     1      -1.620   5.195  24.975  0.00  0.00    +0.001 C 
ATOM     10  C   UNL     1      -0.917   4.763  24.957  0.00  0.00    +0.001 C 
ENDBRANCH   7   8
ENDBRANCH   6   7
TORSDOF 2
ENDMDL
MODEL 4
REMARK VINA RESULT:      -7.4      1.724      2.529
REMARK  Name = 
REMARK  2 active torsions:
REMARK  status: ('A' for Active; 'I' for Inactive)
REMARK    1  A    between atoms: N_6  and  C_7
REMARK    2  A    between atoms: C_7  and  C_8
REMARK                            x       y       z     vdW  Elec       q    Type
REMARK                         _______ _______ _______ _____ _____    ______ ____
ROOT
ATOM      1  C   UNL     1      -0.100   1.378  24.259  0.00  0.00    +0.117 C 
ATOM      2  N   UNL     1      -0.834   1.013  24.352  0.00  0.00    -0.261 N 
ATOM      3  C   UNL     1      -0.981   0.322  24.779  0.00  0.00    +0.116 C 
ATOM      4  C   UNL     1      -1.787   0.156  24.725  0.00  0.00    +0.113 C 
ATOM      5  C   UNL     1      -2.247  -0.454  25.036  0.00  0.00    +0.094 C 
ATOM      6  N   UNL     1      -3.057  -0.478  24.886  0.00  0.00    -0.270 NA
ATOM     11  C   UNL     1      -3.409   0.110  24.425  0.00  0.00    +0.094 C 
ATOM     12  C   UNL     1      -2.949   0.720  24.114  0.00  0.00    +0.112 C 
ATOM     13  N   UNL     1      -2.138   0.743  24.264  0.00  0.00    -0.261 N 
ATOM     14  C   UNL     1      -1.549   1.272  24.034  0.00  0.00    +0.307 C 
ATOM     15  O   UNL     1      -1.657   1.944  23.567  0.00  0.00    -0.252 OA
ENDROOT
BRANCH   6   7
ATOM      7  C   UNL     1      -3.518  -1.088  25.196  0.00  0.00    +0.072 C 
BRANCH   7   8
ATOM      8  C   UNL     1      -3.648  -1.772  24.755  0.00  0.00    +0.016 C 
ATOM      9  C   UNL     1      -3.964  -2.144  24.090  0.00  0.00    +0.001 C 
ATOM     10  C   UNL     1      -3.559  -2.587  24.656  0.00  0.00    +0.001 C 
ENDBRANCH   7   8
ENDBRANCH   6   7
TORSDOF 2
ENDMDL
MODEL 5
REMARK VINA RESULT:      -7.2      2.714      3.706
REMARK  Name = 
REMARK  2 active torsions:
REMARK  status: ('A' for Active; 'I' for Inactive)
REMARK    1  A    between atoms: N_6  and  C_7
REMARK    2  A    between atoms: C_7  and  C_8
REMARK                            x       y       z     vdW  Elec       q    Type
REMARK                         _______ _______ _______ _____ _____    ______ ____
ROOT
ATOM      1  C   UNL     1      -0.413   2.803  25.726  0.00  0.00    +0.117 C 
ATOM      2  N   UNL     1      -1.186   2.897  25.452  0.00  0.00    -0.261 N 
ATOM      3  C   UNL     1      -1.716   2.288  25.278  0.00  0.00    +0.116 C 
ATOM      4  C   UNL     1      -2.421   2.630  25.023  0.00  0.00    +0.113 C 
ATOM      5  C   UNL     1      -3.137   2.302  24.777  0.00  0.00    +0.094 C 
ATOM      6  N   UNL     1      -3.759   2.792  24.548  0.00  0.00    -0.270 NA
ATOM     11  C   UNL     1      -3.665   3.611  24.563  0.00  0.00    +0.094 C 
ATOM     12  C   UNL     1      -2.950   3.941  24.808  0.00  0.00    +0.112 C 
ATOM     13  N   UNL     1      -2.327   3.450  25.038  0.00  0.00    -0.261 N 
ATOM     14  C   UNL     1      -1.564   3.614  25.304  0.00  0.00    +0.307 C 
ATOM     15  O   UNL     1      -1.236   4.365  25.403  0.00  0.00    -0.252 OA
ENDROOT
BRANCH   6   7
ATOM      7  C   UNL     1      -4.475   2.464  24.302  0.00  0.00    +0.072 C 
BRANCH   7   8
ATOM      8  C   UNL     1      -5.078   2.332  24.849  0.00  0.00    +0.016 C 
ATOM      9  C   UNL     1      -5.588   2.616  25.432  0.00  0.00    +0.001 C 
ATOM     10  C   UNL     1      -5.614   1.821  25.213  0.00  0.00    +0.001 C 
ENDBRANCH   7   8
ENDBRANCH   6   7
TORSDOF 2
ENDMDL
