MODEL 1
REMARK VINA RESULT:     -13.7      0.000      0.000
REMARK  Name = 
REMARK  3 active torsions:
REMARK  status: ('A' for Active; 'I' for Inactive)
REMARK    1  A    between atoms: N_9  and  S_11
REMARK    2  A    between atoms: S_11  and  C_14
REMARK    3  A    between atoms: C_22  and  C_23
REMARK                            x       y       z     vdW  Elec       q    Type
REMARK                         _______ _______ _______ _____ _____    ______ ____
ROOT
ATOM      1  O   UNL     1      -3.053   0.741  24.206  0.00  0.00    -0.267 OA
ATOM      2  C   UNL     1      -3.776   0.929  24.557  0.00  0.00    +0.261 A 
ATOM      3  N   UNL     1      -4.006   1.718  24.628  0.00  0.00    -0.299 N 
ATOM      4  C   UNL     1      -4.650   1.313  24.974  0.00  0.00    +0.110 C 
ATOM      5  C   UNL     1      -5.220   2.084  25.216  0.00  0.00    +0.041 C 
ATOM      6  C   UNL     1      -5.795   2.599  25.475  0.00  0.00    +0.011 C 
ATOM      7  C   UNL     1      -5.169   2.636  25.159  0.00  0.00    +0.056 C 
ATOM      8  C   UNL     1      -4.566   3.242  24.823  0.00  0.00    +0.102 C 
ATOM      9  N   UNL     1      -3.995   2.726  24.566  0.00  0.00    -0.155 NA
ATOM     10  C   UNL     1      -4.584   2.710  24.862  0.00  0.00    +0.098 C 
ATOM     19  C   UNL     1      -4.728   1.907  24.979  0.00  0.00    +0.041 A 
ATOM     20  C   UNL     1      -5.219   1.306  25.260  0.00  0.00    +0.013 A 
ATOM     21  C   UNL     1      -4.989   0.518  25.189  0.00  0.00    +0.006 A 
ATOM     22  C   UNL     1      -4.267   0.329  24.838  0.00  0.00    +0.062 A 
ENDROOT
BRANCH  22  23
ATOM     23  C   UNL     1      -4.036  -0.460  24.767  0.00  0.00    +0.034 A 
ATOM     24  C   UNL     1      -4.178  -0.950  24.118  0.00  0.00    +0.007 A 
ATOM     25  C   UNL     1      -3.853  -1.691  24.282  0.00  0.00    +0.007 A 
ATOM     26  C   UNL     1      -3.510  -1.658  25.031  0.00  0.00    +0.035 A 
ATOM     27  S   UNL     1      -3.623  -0.897  25.331  0.00  0.00    -0.086 S 
ENDBRANCH  22  23
BRANCH   9  11
ATOM     11  S   UNL     1      -3.293   2.455  24.229  0.00  0.00    +0.069 S 
ATOM     12  O   UNL     1      -2.923   2.495  24.965  0.00  0.00    -0.152 OA
ATOM     13  O   UNL     1      -3.661   2.416  23.491  0.00  0.00    -0.152 OA
BRANCH  11  14
ATOM     14  C   UNL     1      -2.589   2.185  23.891  0.00  0.00    +0.152 A 
ATOM     15  C   UNL     1      -2.488   1.949  23.107  0.00  0.00    +0.027 A 
ATOM     16  C   UNL     1      -1.701   1.721  23.010  0.00  0.00    +0.009 A 
ATOM     17  C   UNL     1      -1.316   1.816  23.735  0.00  0.00    +0.037 A 
ATOM     18  S   UNL     1      -1.866   2.103  24.280  0.00  0.00    -0.067 S 
ENDBRANCH  11  14
ENDBRANCH   9  11
TORSDOF 3
ENDMDL
MODEL 2
REMARK VINA RESULT:     -13.5      1.693      3.500
REMARK  Name = 
REMARK  3 active torsions:
REMARK  status: ('A' for Active; 'I' for Inactive)
REMARK    1  A    between atoms: N_9  and  S_11
REMARK    2  A    between atoms: S_11  and  C_14
REMARK    3  A    between atoms: C_22  and  C_23
REMARK                            x       y       z     vdW  Elec       q    Type
REMARK                         _______ _______ _______ _____ _____    ______ ____
ROOT
ATOM      1  O   UNL     1      -2.614   0.566  24.866  0.00  0.00    -0.267 OA
ATOM      2  C   UNL     1      -3.129  -0.053  24.686  0.00  0.00    +0.261 A 
ATOM      3  N   UNL     1      -2.848  -0.828  24.659  0.00  0.00    -0.299 N 
ATOM      4  C   UNL     1      -3.656  -0.926  24.474  0.00  0.00    +0.110 C 
ATOM      5  C   UNL     1      -3.682  -1.907  24.358  0.00  0.00    +0.041 C 
ATOM      6  C   UNL     1      -3.868  -2.690  24.229  0.00  0.00    +0.011 C 
ATOM      7  C   UNL     1      -3.300  -2.312  24.394  0.00  0.00    +0.056 C 
ATOM      8  C   UNL     1      -2.403  -2.400  24.576  0.00  0.00    +0.102 C 
ATOM      9  N   UNL     1      -2.222  -1.619  24.704  0.00  0.00    -0.155 NA
ATOM     10  C   UNL     1      -2.745  -1.989  24.549  0.00  0.00    +0.098 C 
ATOM     19  C   UNL     1      -3.361  -1.447  24.479  0.00  0.00    +0.041 A 
ATOM     20  C   UNL     1      -4.157  -1.291  24.326  0.00  0.00    +0.013 A 
ATOM     21  C   UNL     1      -4.438  -0.517  24.353  0.00  0.00    +0.006 A 
ATOM     22  C   UNL     1      -3.924   0.103  24.533  0.00  0.00    +0.062 A 
ENDROOT
BRANCH  22  23
ATOM     23  C   UNL     1      -4.205   0.878  24.560  0.00  0.00    +0.034 A 
ATOM     24  C   UNL     1      -4.070   1.463  23.994  0.00  0.00    +0.007 A 
ATOM     25  C   UNL     1      -4.452   2.151  24.242  0.00  0.00    +0.007 A 
ATOM     26  C   UNL     1      -4.824   1.991  24.961  0.00  0.00    +0.035 A 
ATOM     27  S   UNL     1      -4.671   1.204  25.157  0.00  0.00    -0.086 S 
ENDBRANCH  22  23
BRANCH   9  11
ATOM     11  S   UNL     1      -1.775  -0.948  24.875  0.00  0.00    +0.069 S 
ATOM     12  O   UNL     1      -1.955  -1.031  25.676  0.00  0.00    -0.152 OA
ATOM     13  O   UNL     1      -1.593  -0.863  24.075  0.00  0.00    -0.152 OA
BRANCH  11  14
ATOM     14  C   UNL     1      -1.327  -0.276  25.047  0.00  0.00    +0.152 A 
ATOM     15  C   UNL     1      -1.251   0.080  25.787  0.00  0.00    +0.027 A 
ATOM     16  C   UNL     1      -0.754   0.734  25.706  0.00  0.00    +0.009 A 
ATOM     17  C   UNL     1      -0.523   0.782  24.914  0.00  0.00    +0.037 A 
ATOM     18  S   UNL     1      -0.877   0.157  24.507  0.00  0.00    -0.067 S 
ENDBRANCH  11  14
ENDBRANCH   9  11
TORSDOF 3
ENDMDL
MODEL 3
REMARK VINA RESULT:     -12.7      1.451      3.221
REMARK  Name = 
REMARK  3 active torsions:
REMARK  status: ('A' for Active; 'I' for Inactive)
REMARK    1  A    between atoms: N_9  and  S_11
REMARK    2  A    between atoms: S_11  and  C_14
REMARK    3  A    between atoms: C_22  and  C_23
REMARK                            x       y       z     vdW  Elec       q    Type
REMARK                         _______ _______ _______ _____ _____    ______ ____
ROOT
ATOM      1  O   UNL     1      -2.410   1.859  24.663  0.00  0.00    -0.267 OA
ATOM      2  C   UNL     1      -2.342   1.071  24.899  0.00  0.00    +0.261 A 
ATOM      3  N   UNL     1      -3.001   0.575  24.873  0.00  0.00    -0.299 N 
ATOM      4  C   UNL     1      -2.407   0.066  25.164  0.00  0.00    +0.110 C 
ATOM      5  C   UNL     1      -2.934  -0.764  25.263  0.00  0.00    +0.041 C 
ATOM      6  C   UNL     1      -3.222  -1.514  25.400  0.00  0.00    +0.011 C 
ATOM      7  C   UNL     1      -3.467  -0.898  25.167  0.00  0.00    +0.056 C 
ATOM      8  C   UNL     1      -4.236  -0.497  24.862  0.00  0.00    +0.102 C 
ATOM      9  N   UNL     1      -3.945   0.249  24.727  0.00  0.00    -0.155 NA
ATOM     10  C   UNL     1      -3.732  -0.336  24.944  0.00  0.00    +0.098 C 
ATOM     19  C   UNL     1      -2.934  -0.211  25.109  0.00  0.00    +0.041 A 
ATOM     20  C   UNL     1      -2.209  -0.503  25.372  0.00  0.00    +0.013 A 
ATOM     21  C   UNL     1      -1.551  -0.008  25.399  0.00  0.00    +0.006 A 
ATOM     22  C   UNL     1      -1.617   0.780  25.163  0.00  0.00    +0.062 A 
ENDROOT
BRANCH  22  23
ATOM     23  C   UNL     1      -0.958   1.276  25.189  0.00  0.00    +0.034 A 
ATOM     24  C   UNL     1      -0.759   1.784  25.808  0.00  0.00    +0.007 A 
ATOM     25  C   UNL     1      -0.061   2.173  25.604  0.00  0.00    +0.007 A 
ATOM     26  C   UNL     1       0.171   1.906  24.858  0.00  0.00    +0.035 A 
ATOM     27  S   UNL     1      -0.384   1.351  24.603  0.00  0.00    -0.086 S 
ENDBRANCH  22  23
BRANCH   9  11
ATOM     11  S   UNL     1      -3.929   1.044  24.509  0.00  0.00    +0.069 S 
ATOM     12  O   UNL     1      -3.720   0.830  23.741  0.00  0.00    -0.152 OA
ATOM     13  O   UNL     1      -4.138   1.259  25.278  0.00  0.00    -0.152 OA
BRANCH  11  14
ATOM     14  C   UNL     1      -3.913   1.840  24.291  0.00  0.00    +0.152 A 
ATOM     15  C   UNL     1      -3.686   2.137  23.556  0.00  0.00    +0.027 A 
ATOM     16  C   UNL     1      -3.753   2.959  23.581  0.00  0.00    +0.009 A 
ATOM     17  C   UNL     1      -4.023   3.170  24.333  0.00  0.00    +0.037 A 
ATOM     18  S   UNL     1      -4.121   2.478  24.772  0.00  0.00    -0.067 S 
ENDBRANCH  11  14
ENDBRANCH   9  11
TORSDOF 3
ENDMDL
MODEL 4
REMARK VINA RESULT:     -12.7      1.235      2.851
REMARK  Name = 
REMARK  3 active torsions:
REMARK  status: ('A' for Active; 'I' for Inactive)
REMARK    1  A    between atoms: N_9  and  S_11
REMARK    2  A    between atoms: S_11  and  C_14
REMARK    3  A    between atoms: C_22  and  C_23
REMARK                            x       y       z     vdW  Elec       q    Type
REMARK                         _______ _______ _______ _____ _____    ______ ____
ROOT
ATOM      1  O   UNL     1      -2.593  -0.054  24.641  0.00  0.00    -0.267 OA
ATOM      2  C   UNL     1      -2.884   0.719  24.653  0.00  0.00    +0.261 A 
ATOM      3  N   UNL     1      -3.693   0.854  24.741  0.00  0.00    -0.299 N 
ATOM      4  C   UNL     1      -3.389   1.630  24.686  0.00  0.00    +0.110 C 
ATOM      5  C   UNL     1      -4.229   2.143  24.767  0.00  0.00    +0.041 C 
ATOM      6  C   UNL     1      -4.819   2.702  24.820  0.00  0.00    +0.011 C 
ATOM      7  C   UNL     1      -4.764   2.002  24.832  0.00  0.00    +0.056 C 
ATOM      8  C   UNL     1      -5.273   1.241  24.910  0.00  0.00    +0.102 C 
ATOM      9  N   UNL     1      -4.682   0.687  24.857  0.00  0.00    -0.155 NA
ATOM     10  C   UNL     1      -4.752   1.342  24.848  0.00  0.00    +0.098 C 
ATOM     19  C   UNL     1      -3.983   1.625  24.753  0.00  0.00    +0.041 A 
ATOM     20  C   UNL     1      -3.465   2.262  24.678  0.00  0.00    +0.013 A 
ATOM     21  C   UNL     1      -2.656   2.127  24.590  0.00  0.00    +0.006 A 
ATOM     22  C   UNL     1      -2.365   1.356  24.578  0.00  0.00    +0.062 A 
ENDROOT
BRANCH  22  23
ATOM     23  C   UNL     1      -1.556   1.221  24.490  0.00  0.00    +0.034 A 
ATOM     24  C   UNL     1      -1.164   1.070  23.779  0.00  0.00    +0.007 A 
ATOM     25  C   UNL     1      -0.362   0.969  23.946  0.00  0.00    +0.007 A 
ATOM     26  C   UNL     1      -0.259   1.057  24.760  0.00  0.00    +0.035 A 
ATOM     27  S   UNL     1      -0.997   1.212  25.096  0.00  0.00    -0.086 S 
ENDBRANCH  22  23
BRANCH   9  11
ATOM     11  S   UNL     1      -4.314  -0.051  24.835  0.00  0.00    +0.069 S 
ATOM     12  O   UNL     1      -4.387  -0.064  24.014  0.00  0.00    -0.152 OA
ATOM     13  O   UNL     1      -4.240  -0.039  25.657  0.00  0.00    -0.152 OA
BRANCH  11  14
ATOM     14  C   UNL     1      -3.945  -0.789  24.814  0.00  0.00    +0.152 A 
ATOM     15  C   UNL     1      -3.597  -1.176  25.454  0.00  0.00    +0.027 A 
ATOM     16  C   UNL     1      -3.297  -1.896  25.184  0.00  0.00    +0.009 A 
ATOM     17  C   UNL     1      -3.460  -1.954  24.376  0.00  0.00    +0.037 A 
ATOM     18  S   UNL     1      -3.861  -1.269  24.147  0.00  0.00    -0.067 S 
ENDBRANCH  11  14
ENDBRANCH   9  11
TORSDOF 3
ENDMDL
MODEL 5
REMARK VINA RESULT:     -12.6      1.976      3.282
REMARK  Name = 
REMARK  3 active torsions:
REMARK  status: ('A' for Active; 'I' for Inactive)
REMARK    1  A    between atoms: N_9  and  S_11
REMARK    2  A    between atoms: S_11  and  C_14
REMARK    3  A    between atoms: C_22  and  C_23
REMARK                            x       y       z     vdW  Elec       q    Type
REMARK                         _______ _______ _______ _____ _____    ______ ____
ROOT
ATOM      1  O   UNL     1      -2.646   1.903  24.937  0.00  0.00    -0.267 OA
ATOM      2  C   UNL     1      -2.620   2.726  24.995  0.00  0.00    +0.261 A 
ATOM      3  N   UNL     1      -1.893   3.114  25.028  0.00  0.00    -0.299 N 
ATOM      4  C   UNL     1      -2.435   3.748  25.069  0.00  0.00    +0.110 C 
ATOM      5  C   UNL     1      -1.802   4.505  25.127  0.00  0.00    +0.041 C 
ATOM      6  C   UNL     1      -1.420   5.222  25.180  0.00  0.00    +0.011 C 
ATOM      7  C   UNL     1      -1.245   4.544  25.133  0.00  0.00    +0.056 C 
ATOM      8  C   UNL     1      -0.514   3.990  25.099  0.00  0.00    +0.102 C 
ATOM      9  N   UNL     1      -0.897   3.276  25.046  0.00  0.00    -0.155 NA
ATOM     10  C   UNL     1      -1.043   3.917  25.091  0.00  0.00    +0.098 C 
ATOM     19  C   UNL     1      -1.867   3.936  25.086  0.00  0.00    +0.041 A 
ATOM     20  C   UNL     1      -2.568   4.370  25.112  0.00  0.00    +0.013 A 
ATOM     21  C   UNL     1      -3.295   3.982  25.079  0.00  0.00    +0.006 A 
ATOM     22  C   UNL     1      -3.321   3.159  25.021  0.00  0.00    +0.062 A 
ENDROOT
BRANCH  22  23
ATOM     23  C   UNL     1      -4.048   2.771  24.988  0.00  0.00    +0.034 A 
ATOM     24  C   UNL     1      -4.409   2.475  24.308  0.00  0.00    +0.007 A 
ATOM     25  C   UNL     1      -5.127   2.131  24.529  0.00  0.00    +0.007 A 
ATOM     26  C   UNL     1      -5.208   2.214  25.346  0.00  0.00    +0.035 A 
ATOM     27  S   UNL     1      -4.541   2.609  25.629  0.00  0.00    -0.086 S 
ENDBRANCH  22  23
BRANCH   9  11
ATOM     11  S   UNL     1      -1.008   2.461  24.988  0.00  0.00    +0.069 S 
ATOM     12  O   UNL     1      -1.016   2.402  25.811  0.00  0.00    -0.152 OA
ATOM     13  O   UNL     1      -1.000   2.518  24.165  0.00  0.00    -0.152 OA
BRANCH  11  14
ATOM     14  C   UNL     1      -1.119   1.645  24.929  0.00  0.00    +0.152 A 
ATOM     15  C   UNL     1      -1.224   1.124  25.560  0.00  0.00    +0.027 A 
ATOM     16  C   UNL     1      -1.314   0.364  25.250  0.00  0.00    +0.009 A 
ATOM     17  C   UNL     1      -1.265   0.416  24.427  0.00  0.00    +0.037 A 
ATOM     18  S   UNL     1      -1.144   1.209  24.229  0.00  0.00    -0.067 S 
ENDBRANCH  11  14
ENDBRANCH   9  11
TORSDOF 3
ENDMDL
MODEL 6
REMARK VINA RESULT:     -12.4      1.924      3.317
REMARK  Name = 
REMARK  3 active torsions:
REMARK  status: ('A' for Active; 'I' for Inactive)
REMARK    1  A    between atoms: N_9  and  S_11
REMARK    2  A    between atoms: S_11  and  C_14
REMARK    3  A    between atoms: C_22  and  C_23
REMARK                            x       y       z     vdW  Elec       q    Type
REMARK                         _______ _______ _______ _____ _____    ______ ____
ROOT
ATOM      1  O   UNL     1      -2.815   2.021  24.931  0.00  0.00    -0.267 OA
ATOM      2  C   UNL     1      -2.153   2.512  24.987  0.00  0.00    +0.261 A 
ATOM      3  N   UNL     1      -2.249   3.330  25.030  0.00  0.00    -0.299 N 
ATOM      4  C   UNL     1      -1.419   3.247  25.061  0.00  0.00    +0.110 C 
ATOM      5  C   UNL     1      -1.160   4.199  25.127  0.00  0.00    +0.041 C 
ATOM      6  C   UNL     1      -0.788   4.921  25.184  0.00  0.00    +0.011 C 
ATOM      7  C   UNL     1      -1.445   4.678  25.142  0.00  0.00    +0.056 C 
ATOM      8  C   UNL     1      -2.319   4.961  25.121  0.00  0.00    +0.102 C 
ATOM      9  N   UNL     1      -2.686   4.240  25.064  0.00  0.00    -0.155 NA
ATOM     10  C   UNL     1      -2.076   4.486  25.104  0.00  0.00    +0.098 C 
ATOM     19  C   UNL     1      -1.589   3.820  25.087  0.00  0.00    +0.041 A 
ATOM     20  C   UNL     1      -0.833   3.493  25.100  0.00  0.00    +0.013 A 
ATOM     21  C   UNL     1      -0.736   2.675  25.057  0.00  0.00    +0.006 A 
ATOM     22  C   UNL     1      -1.396   2.184  25.001  0.00  0.00    +0.062 A 
ENDROOT
BRANCH  22  23
ATOM     23  C   UNL     1      -1.300   1.366  24.958  0.00  0.00    +0.034 A 
ATOM     24  C   UNL     1      -1.311   0.843  25.596  0.00  0.00    +0.007 A 
ATOM     25  C   UNL     1      -1.194   0.080  25.302  0.00  0.00    +0.007 A 
ATOM     26  C   UNL     1      -1.110   0.133  24.483  0.00  0.00    +0.035 A 
ATOM     27  S   UNL     1      -1.176   0.928  24.270  0.00  0.00    -0.086 S 
ENDBRANCH  22  23
BRANCH   9  11
ATOM     11  S   UNL     1      -3.292   3.684  25.006  0.00  0.00    +0.069 S 
ATOM     12  O   UNL     1      -3.325   3.633  25.829  0.00  0.00    -0.152 OA
ATOM     13  O   UNL     1      -3.260   3.733  24.183  0.00  0.00    -0.152 OA
BRANCH  11  14
ATOM     14  C   UNL     1      -3.899   3.127  24.948  0.00  0.00    +0.152 A 
ATOM     15  C   UNL     1      -4.180   2.787  24.251  0.00  0.00    +0.027 A 
ATOM     16  C   UNL     1      -4.785   2.263  24.449  0.00  0.00    +0.009 A 
ATOM     17  C   UNL     1      -4.878   2.278  25.269  0.00  0.00    +0.037 A 
ATOM     18  S   UNL     1      -4.330   2.813  25.578  0.00  0.00    -0.067 S 
ENDBRANCH  11  14
ENDBRANCH   9  11
TORSDOF 3
ENDMDL
