MODEL 1
REMARK VINA RESULT:      -9.7      0.000      0.000
REMARK  Name = 
REMARK  4 active torsions:
REMARK  status: ('A' for Active; 'I' for Inactive)
REMARK    1  A    between atoms: C_1  and  C_2
REMARK    2  A    between atoms: C_1  and  N_5
REMARK    3  A    between atoms: C_10  and  O_12
REMARK    4  A    between atoms: O_12  and  C_13
REMARK                            x       y       z     vdW  Elec       q    Type
REMARK                         _______ _______ _______ _____ _____    ______ ____
ROOT
ATOM      5  N   UNL     1      -4.049   1.620  24.584  0.00  0.00    -0.267 NA
ATOM      6  C   UNL     1      -3.320   1.964  24.405  0.00  0.00    +0.105 C 
ATOM      7  C   UNL     1      -2.565   1.642  24.486  0.00  0.00    +0.160 C 
ATOM      8  O   UNL     1      -2.352   0.895  24.765  0.00  0.00    -0.348 OA
ATOM      9  C   UNL     1      -2.841   0.287  25.032  0.00  0.00    +0.187 C 
ATOM     10  C   UNL     1      -3.663   0.275  25.087  0.00  0.00    +0.211 C 
ATOM     11  C   UNL     1      -4.201   0.869  24.887  0.00  0.00    +0.119 C 
ENDROOT
BRANCH   5   1
ATOM      1  C   UNL     1      -4.711   2.090  24.440  0.00  0.00    +0.072 C 
BRANCH   1   2
ATOM      2  C   UNL     1      -5.002   2.586  25.031  0.00  0.00    +0.016 C 
ATOM      3  C   UNL     1      -4.997   3.313  25.419  0.00  0.00    +0.001 C 
ATOM      4  C   UNL     1      -5.511   2.717  25.667  0.00  0.00    +0.001 C 
ENDBRANCH   1   2
ENDBRANCH   5   1
BRANCH  10  12
ATOM     12  O   UNL     1      -3.994  -0.423  25.379  0.00  0.00    -0.475 OA
BRANCH  12  13
ATOM     13  C   UNL     1      -3.897  -1.130  24.966  0.00  0.00    +0.139 A 
ATOM     14  C   UNL     1      -3.397  -1.715  25.263  0.00  0.00    +0.037 A 
ATOM     15  C   UNL     1      -3.300  -2.422  24.850  0.00  0.00    +0.003 A 
ATOM     16  C   UNL     1      -3.703  -2.545  24.140  0.00  0.00    +0.000 A 
ATOM     17  C   UNL     1      -4.203  -1.959  23.844  0.00  0.00    +0.003 A 
ATOM     18  C   UNL     1      -4.300  -1.251  24.257  0.00  0.00    +0.037 A 
ENDBRANCH  12  13
ENDBRANCH  10  12
TORSDOF 4
ENDMDL
MODEL 2
REMARK VINA RESULT:      -9.6      0.750      1.193
REMARK  Name = 
REMARK  4 active torsions:
REMARK  status: ('A' for Active; 'I' for Inactive)
REMARK    1  A    between atoms: C_1  and  C_2
REMARK    2  A    between atoms: C_1  and  N_5
REMARK    3  A    between atoms: C_10  and  O_12
REMARK    4  A    between atoms: O_12  and  C_13
REMARK                            x       y       z     vdW  Elec       q    Type
REMARK                         _______ _______ _______ _____ _____    ______ ____
ROOT
ATOM      5  N   UNL     1      -3.047   1.446  24.077  0.00  0.00    -0.267 NA
ATOM      6  C   UNL     1      -2.238   1.604  24.091  0.00  0.00    +0.105 C 
ATOM      7  C   UNL     1      -1.638   1.184  24.469  0.00  0.00    +0.160 C 
ATOM      8  O   UNL     1      -1.698   0.500  24.927  0.00  0.00    -0.348 OA
ATOM      9  C   UNL     1      -2.375   0.069  25.119  0.00  0.00    +0.187 C 
ATOM     10  C   UNL     1      -3.156   0.214  24.902  0.00  0.00    +0.211 C 
ATOM     11  C   UNL     1      -3.456   0.827  24.438  0.00  0.00    +0.119 C 
ENDROOT
BRANCH   5   1
ATOM      1  C   UNL     1      -3.508   1.976  23.645  0.00  0.00    +0.072 C 
BRANCH   1   2
ATOM      2  C   UNL     1      -3.823   2.644  24.012  0.00  0.00    +0.016 C 
ATOM      3  C   UNL     1      -4.433   3.008  24.431  0.00  0.00    +0.001 C 
ATOM      4  C   UNL     1      -3.758   3.437  24.230  0.00  0.00    +0.001 C 
ENDBRANCH   1   2
ENDBRANCH   5   1
BRANCH  10  12
ATOM     12  O   UNL     1      -3.714  -0.325  25.185  0.00  0.00    -0.475 OA
BRANCH  12  13
ATOM     13  C   UNL     1      -3.754  -1.084  24.865  0.00  0.00    +0.139 A 
ATOM     14  C   UNL     1      -4.167  -1.213  24.162  0.00  0.00    +0.037 A 
ATOM     15  C   UNL     1      -4.207  -1.972  23.841  0.00  0.00    +0.003 A 
ATOM     16  C   UNL     1      -3.836  -2.602  24.223  0.00  0.00    +0.000 A 
ATOM     17  C   UNL     1      -3.423  -2.472  24.927  0.00  0.00    +0.003 A 
ATOM     18  C   UNL     1      -3.383  -1.713  25.248  0.00  0.00    +0.037 A 
ENDBRANCH  12  13
ENDBRANCH  10  12
TORSDOF 4
ENDMDL
MODEL 3
REMARK VINA RESULT:      -9.5      0.906      3.746
REMARK  Name = 
REMARK  4 active torsions:
REMARK  status: ('A' for Active; 'I' for Inactive)
REMARK    1  A    between atoms: C_1  and  C_2
REMARK    2  A    between atoms: C_1  and  N_5
REMARK    3  A    between atoms: C_10  and  O_12
REMARK    4  A    between atoms: O_12  and  C_13
REMARK                            x       y       z     vdW  Elec       q    Type
REMARK                         _______ _______ _______ _____ _____    ______ ____
ROOT
ATOM      5  N   UNL     1      -3.318  -0.487  25.113  0.00  0.00    -0.267 NA
ATOM      6  C   UNL     1      -2.512  -0.440  25.283  0.00  0.00    +0.105 C 
ATOM      7  C   UNL     1      -1.996   0.190  25.154  0.00  0.00    +0.160 C 
ATOM      8  O   UNL     1      -2.157   0.929  24.824  0.00  0.00    -0.348 OA
ATOM      9  C   UNL     1      -2.875   1.219  24.540  0.00  0.00    +0.187 C 
ATOM     10  C   UNL     1      -3.608   0.843  24.517  0.00  0.00    +0.211 C 
ATOM     11  C   UNL     1      -3.805   0.083  24.772  0.00  0.00    +0.119 C 
ENDROOT
BRANCH   5   1
ATOM      1  C   UNL     1      -3.684  -1.200  25.310  0.00  0.00    +0.072 C 
BRANCH   1   2
ATOM      2  C   UNL     1      -3.679  -1.828  24.775  0.00  0.00    +0.016 C 
ATOM      3  C   UNL     1      -3.362  -2.545  24.519  0.00  0.00    +0.001 C 
ATOM      4  C   UNL     1      -3.987  -2.199  24.105  0.00  0.00    +0.001 C 
ENDBRANCH   1   2
ENDBRANCH   5   1
BRANCH  10  12
ATOM     12  O   UNL     1      -4.228   1.285  24.196  0.00  0.00    -0.475 OA
BRANCH  12  13
ATOM     13  C   UNL     1      -4.631   1.830  24.664  0.00  0.00    +0.139 A 
ATOM     14  C   UNL     1      -5.315   1.602  25.066  0.00  0.00    +0.037 A 
ATOM     15  C   UNL     1      -5.719   2.148  25.535  0.00  0.00    +0.003 A 
ATOM     16  C   UNL     1      -5.440   2.921  25.603  0.00  0.00    +0.000 A 
ATOM     17  C   UNL     1      -4.755   3.148  25.201  0.00  0.00    +0.003 A 
ATOM     18  C   UNL     1      -4.351   2.603  24.732  0.00  0.00    +0.037 A 
ENDBRANCH  12  13
ENDBRANCH  10  12
TORSDOF 4
ENDMDL
MODEL 4
REMARK VINA RESULT:      -9.4      2.757      3.771
REMARK  Name = 
REMARK  4 active torsions:
REMARK  status: ('A' for Active; 'I' for Inactive)
REMARK    1  A    between atoms: C_1  and  C_2
REMARK    2  A    between atoms: C_1  and  N_5
REMARK    3  A    between atoms: C_10  and  O_12
REMARK    4  A    between atoms: O_12  and  C_13
REMARK                            x       y       z     vdW  Elec       q    Type
REMARK                         _______ _______ _______ _____ _____    ______ ____
ROOT
ATOM      5  N   UNL     1      -2.083   3.223  24.802  0.00  0.00    -0.267 NA
ATOM      6  C   UNL     1      -1.581   2.702  24.406  0.00  0.00    +0.105 C 
ATOM      7  C   UNL     1      -1.765   2.168  23.804  0.00  0.00    +0.160 C 
ATOM      8  O   UNL     1      -2.496   2.023  23.450  0.00  0.00    -0.348 OA
ATOM      9  C   UNL     1      -3.223   2.377  23.611  0.00  0.00    +0.187 C 
ATOM     10  C   UNL     1      -3.400   2.962  24.165  0.00  0.00    +0.211 C 
ATOM     11  C   UNL     1      -2.892   3.339  24.695  0.00  0.00    +0.119 C 
ENDROOT
BRANCH   5   1
ATOM      1  C   UNL     1      -1.728   3.690  25.382  0.00  0.00    +0.072 C 
BRANCH   1   2
ATOM      2  C   UNL     1      -1.413   4.426  25.185  0.00  0.00    +0.016 C 
ATOM      3  C   UNL     1      -1.488   5.246  25.139  0.00  0.00    +0.001 C 
ATOM      4  C   UNL     1      -0.793   4.881  24.887  0.00  0.00    +0.001 C 
ENDBRANCH   1   2
ENDBRANCH   5   1
BRANCH  10  12
ATOM     12  O   UNL     1      -4.189   3.204  24.192  0.00  0.00    -0.475 OA
BRANCH  12  13
ATOM     13  C   UNL     1      -4.720   2.822  24.695  0.00  0.00    +0.139 A 
ATOM     14  C   UNL     1      -4.948   3.181  25.403  0.00  0.00    +0.037 A 
ATOM     15  C   UNL     1      -5.478   2.799  25.905  0.00  0.00    +0.003 A 
ATOM     16  C   UNL     1      -5.782   2.059  25.702  0.00  0.00    +0.000 A 
ATOM     17  C   UNL     1      -5.553   1.701  24.994  0.00  0.00    +0.003 A 
ATOM     18  C   UNL     1      -5.022   2.082  24.491  0.00  0.00    +0.037 A 
ENDBRANCH  12  13
ENDBRANCH  10  12
TORSDOF 4
ENDMDL
MODEL 5
REMARK VINA RESULT:      -9.4      1.404      2.262
REMARK  Name = 
REMARK  4 active torsions:
REMARK  status: ('A' for Active; 'I' for Inactive)
REMARK    1  A    between atoms: C_1  and  C_2
REMARK    2  A    between atoms: C_1  and  N_5
REMARK    3  A    between atoms: C_10  and  O_12
REMARK    4  A    between atoms: O_12  and  C_13
REMARK                            x       y       z     vdW  Elec       q    Type
REMARK                         _______ _______ _______ _____ _____    ______ ____
ROOT
ATOM      5  N   UNL     1      -4.131   3.009  24.949  0.00  0.00    -0.267 NA
ATOM      6  C   UNL     1      -4.786   3.185  25.419  0.00  0.00    +0.105 C 
ATOM      7  C   UNL     1      -5.415   2.695  25.630  0.00  0.00    +0.160 C 
ATOM      8  O   UNL     1      -5.545   1.907  25.423  0.00  0.00    -0.348 OA
ATOM      9  C   UNL     1      -5.077   1.416  24.953  0.00  0.00    +0.187 C 
ATOM     10  C   UNL     1      -4.366   1.590  24.576  0.00  0.00    +0.211 C 
ATOM     11  C   UNL     1      -3.945   2.299  24.574  0.00  0.00    +0.119 C 
ENDROOT
BRANCH   5   1
ATOM      1  C   UNL     1      -3.593   3.625  24.840  0.00  0.00    +0.072 C 
BRANCH   1   2
ATOM      2  C   UNL     1      -3.030   3.789  25.421  0.00  0.00    +0.016 C 
ATOM      3  C   UNL     1      -2.258   3.731  25.703  0.00  0.00    +0.001 C 
ATOM      4  C   UNL     1      -2.829   4.131  26.143  0.00  0.00    +0.001 C 
ENDBRANCH   1   2
ENDBRANCH   5   1
BRANCH  10  12
ATOM     12  O   UNL     1      -4.029   0.973  24.142  0.00  0.00    -0.475 OA
BRANCH  12  13
ATOM     13  C   UNL     1      -3.766   0.293  24.528  0.00  0.00    +0.139 A 
ATOM     14  C   UNL     1      -4.247  -0.378  24.553  0.00  0.00    +0.037 A 
ATOM     15  C   UNL     1      -3.984  -1.058  24.938  0.00  0.00    +0.003 A 
ATOM     16  C   UNL     1      -3.242  -1.069  25.299  0.00  0.00    +0.000 A 
ATOM     17  C   UNL     1      -2.762  -0.397  25.274  0.00  0.00    +0.003 A 
ATOM     18  C   UNL     1      -3.024   0.284  24.888  0.00  0.00    +0.037 A 
ENDBRANCH  12  13
ENDBRANCH  10  12
TORSDOF 4
ENDMDL
MODEL 6
REMARK VINA RESULT:      -9.2      2.258      4.172
REMARK  Name = 
REMARK  4 active torsions:
REMARK  status: ('A' for Active; 'I' for Inactive)
REMARK    1  A    between atoms: C_1  and  C_2
REMARK    2  A    between atoms: C_1  and  N_5
REMARK    3  A    between atoms: C_10  and  O_12
REMARK    4  A    between atoms: O_12  and  C_13
REMARK                            x       y       z     vdW  Elec       q    Type
REMARK                         _______ _______ _______ _____ _____    ______ ____
ROOT
ATOM      5  N   UNL     1      -3.898   2.379  24.443  0.00  0.00    -0.267 NA
ATOM      6  C   UNL     1      -3.767   1.761  23.912  0.00  0.00    +0.105 C 
ATOM      7  C   UNL     1      -3.068   1.347  23.767  0.00  0.00    +0.160 C 
ATOM      8  O   UNL     1      -2.328   1.448  24.117  0.00  0.00    -0.348 OA
ATOM      9  C   UNL     1      -2.104   1.988  24.698  0.00  0.00    +0.187 C 
ATOM     10  C   UNL     1      -2.564   2.560  25.074  0.00  0.00    +0.211 C 
ATOM     11  C   UNL     1      -3.363   2.734  24.960  0.00  0.00    +0.119 C 
ENDROOT
BRANCH   5   1
ATOM      1  C   UNL     1      -4.666   2.679  24.459  0.00  0.00    +0.072 C 
BRANCH   1   2
ATOM      2  C   UNL     1      -5.234   2.335  24.948  0.00  0.00    +0.016 C 
ATOM      3  C   UNL     1      -5.808   1.758  25.079  0.00  0.00    +0.001 C 
ATOM      4  C   UNL     1      -5.644   2.317  25.663  0.00  0.00    +0.001 C 
ENDBRANCH   1   2
ENDBRANCH   5   1
BRANCH  10  12
ATOM     12  O   UNL     1      -2.175   3.021  25.638  0.00  0.00    -0.475 OA
BRANCH  12  13
ATOM     13  C   UNL     1      -1.757   3.693  25.405  0.00  0.00    +0.139 A 
ATOM     14  C   UNL     1      -0.980   3.622  25.135  0.00  0.00    +0.037 A 
ATOM     15  C   UNL     1      -0.563   4.293  24.903  0.00  0.00    +0.003 A 
ATOM     16  C   UNL     1      -0.920   5.036  24.939  0.00  0.00    +0.000 A 
ATOM     17  C   UNL     1      -1.697   5.106  25.209  0.00  0.00    +0.003 A 
ATOM     18  C   UNL     1      -2.116   4.435  25.442  0.00  0.00    +0.037 A 
ENDBRANCH  12  13
ENDBRANCH  10  12
TORSDOF 4
ENDMDL
MODEL 7
REMARK VINA RESULT:      -9.1      2.255      2.905
REMARK  Name = 
REMARK  4 active torsions:
REMARK  status: ('A' for Active; 'I' for Inactive)
REMARK    1  A    between atoms: C_1  and  C_2
REMARK    2  A    between atoms: C_1  and  N_5
REMARK    3  A    between atoms: C_10  and  O_12
REMARK    4  A    between atoms: O_12  and  C_13
REMARK                            x       y       z     vdW  Elec       q    Type
REMARK                         _______ _______ _______ _____ _____    ______ ____
ROOT
ATOM      5  N   UNL     1      -1.026   0.538  24.598  0.00  0.00    -0.267 NA
ATOM      6  C   UNL     1      -0.334   0.239  24.261  0.00  0.00    +0.105 C 
ATOM      7  C   UNL     1      -0.107  -0.548  24.166  0.00  0.00    +0.160 C 
ATOM      8  O   UNL     1      -0.514  -1.231  24.383  0.00  0.00    -0.348 OA
ATOM      9  C   UNL     1      -1.250  -1.295  24.750  0.00  0.00    +0.187 C 
ATOM     10  C   UNL     1      -1.760  -0.694  24.990  0.00  0.00    +0.211 C 
ATOM     11  C   UNL     1      -1.660   0.123  24.922  0.00  0.00    +0.119 C 
ENDROOT
BRANCH   5   1
ATOM      1  C   UNL     1      -1.090   1.360  24.612  0.00  0.00    +0.072 C 
BRANCH   1   2
ATOM      2  C   UNL     1      -0.704   1.795  25.197  0.00  0.00    +0.016 C 
ATOM      3  C   UNL     1      -0.030   2.183  25.471  0.00  0.00    +0.001 C 
ATOM      4  C   UNL     1      -0.710   2.159  25.937  0.00  0.00    +0.001 C 
ENDBRANCH   1   2
ENDBRANCH   5   1
BRANCH  10  12
ATOM     12  O   UNL     1      -2.464  -0.939  25.345  0.00  0.00    -0.475 OA
BRANCH  12  13
ATOM     13  C   UNL     1      -3.063  -1.271  24.887  0.00  0.00    +0.139 A 
ATOM     14  C   UNL     1      -3.601  -0.783  24.496  0.00  0.00    +0.037 A 
ATOM     15  C   UNL     1      -4.201  -1.115  24.037  0.00  0.00    +0.003 A 
ATOM     16  C   UNL     1      -4.263  -1.935  23.968  0.00  0.00    +0.000 A 
ATOM     17  C   UNL     1      -3.724  -2.423  24.359  0.00  0.00    +0.003 A 
ATOM     18  C   UNL     1      -3.124  -2.091  24.818  0.00  0.00    +0.037 A 
ENDBRANCH  12  13
ENDBRANCH  10  12
TORSDOF 4
ENDMDL
MODEL 8
REMARK VINA RESULT:      -9.0      1.712      4.141
REMARK  Name = 
REMARK  4 active torsions:
REMARK  status: ('A' for Active; 'I' for Inactive)
REMARK    1  A    between atoms: C_1  and  C_2
REMARK    2  A    between atoms: C_1  and  N_5
REMARK    3  A    between atoms: C_10  and  O_12
REMARK    4  A    between atoms: O_12  and  C_13
REMARK                            x       y       z     vdW  Elec       q    Type
REMARK                         _______ _______ _______ _____ _____    ______ ____
ROOT
ATOM      5  N   UNL     1      -4.405   1.258  24.583  0.00  0.00    -0.267 NA
ATOM      6  C   UNL     1      -5.090   1.286  25.044  0.00  0.00    +0.105 C 
ATOM      7  C   UNL     1      -5.452   1.943  25.387  0.00  0.00    +0.160 C 
ATOM      8  O   UNL     1      -5.221   2.734  25.354  0.00  0.00    -0.348 OA
ATOM      9  C   UNL     1      -4.569   3.063  24.970  0.00  0.00    +0.187 C 
ATOM     10  C   UNL     1      -3.989   2.684  24.525  0.00  0.00    +0.211 C 
ATOM     11  C   UNL     1      -3.916   1.880  24.352  0.00  0.00    +0.119 C 
ENDROOT
BRANCH   5   1
ATOM      1  C   UNL     1      -4.183   0.509  24.319  0.00  0.00    +0.072 C 
BRANCH   1   2
ATOM      2  C   UNL     1      -3.841  -0.029  24.843  0.00  0.00    +0.016 C 
ATOM      3  C   UNL     1      -3.921  -0.628  25.404  0.00  0.00    +0.001 C 
ATOM      4  C   UNL     1      -3.170  -0.360  25.189  0.00  0.00    +0.001 C 
ENDBRANCH   1   2
ENDBRANCH   5   1
BRANCH  10  12
ATOM     12  O   UNL     1      -3.402   3.172  24.209  0.00  0.00    -0.475 OA
BRANCH  12  13
ATOM     13  C   UNL     1      -2.763   3.403  24.675  0.00  0.00    +0.139 A 
ATOM     14  C   UNL     1      -2.037   3.016  24.600  0.00  0.00    +0.037 A 
ATOM     15  C   UNL     1      -1.398   3.247  25.067  0.00  0.00    +0.003 A 
ATOM     16  C   UNL     1      -1.481   3.864  25.607  0.00  0.00    +0.000 A 
ATOM     17  C   UNL     1      -2.207   4.251  25.681  0.00  0.00    +0.003 A 
ATOM     18  C   UNL     1      -2.848   4.021  25.215  0.00  0.00    +0.037 A 
ENDBRANCH  12  13
ENDBRANCH  10  12
TORSDOF 4
ENDMDL
