MODEL 1
REMARK VINA RESULT:     -13.7      0.000      0.000
REMARK  Name = 
REMARK  8 active torsions:
REMARK  status: ('A' for Active; 'I' for Inactive)
REMARK    1  A    between atoms: C_4  and  C_5
REMARK    2  A    between atoms: C_10  and  N_11
REMARK    3  A    between atoms: N_14  and  C_15
REMARK    4  A    between atoms: C_23  and  C_24
REMARK    5  A    between atoms: N_26  and  C_27
REMARK    6  A    between atoms: C_27  and  C_28
REMARK    7  A    between atoms: C_27  and  C_35
REMARK    8  A    between atoms: C_28  and  C_29
REMARK                            x       y       z     vdW  Elec       q    Type
REMARK                         _______ _______ _______ _____ _____    ______ ____
ROOT
ATOM      5  C   UNL     1      -0.819   2.844  25.053  0.00  0.00    +0.249 C 
ATOM      6  O   UNL     1       0.003   2.914  25.019  0.00  0.00    -0.270 OA
ATOM      7  N   UNL     1      -1.169   2.098  25.075  0.00  0.00    -0.268 N 
ATOM      8  C   UNL     1      -0.770   1.375  25.068  0.00  0.00    +0.096 C 
ATOM      9  C   UNL     1      -1.334   0.774  25.097  0.00  0.00    +0.045 C 
ATOM     10  C   UNL     1      -2.081   1.124  25.123  0.00  0.00    +0.126 C 
ATOM     23  C   UNL     1      -1.979   1.943  25.110  0.00  0.00    +0.174 C 
ENDROOT
BRANCH   5   4
ATOM      1  C   UNL     1      -0.119   4.337  24.991  0.00  0.00    +0.027 C 
ATOM      2  C   UNL     1      -0.940   4.268  25.033  0.00  0.00    -0.039 C 
ATOM      3  C   UNL     1      -1.412   4.946  25.044  0.00  0.00    +0.027 C 
ATOM      4  C   UNL     1      -1.290   3.522  25.064  0.00  0.00    +0.049 C 
ENDBRANCH   5   4
BRANCH  10  11
ATOM     11  N   UNL     1      -2.802   0.726  25.157  0.00  0.00    -0.186 NA
ATOM     12  C   UNL     1      -2.844  -0.072  24.952  0.00  0.00    +0.344 C 
ATOM     13  O   UNL     1      -2.163  -0.472  24.714  0.00  0.00    -0.249 OA
ATOM     14  N   UNL     1      -3.565  -0.470  24.986  0.00  0.00    -0.159 NA
BRANCH  14  15
ATOM     15  C   UNL     1      -3.606  -1.269  24.781  0.00  0.00    +0.102 A 
ATOM     16  C   UNL     1      -4.078  -1.508  24.148  0.00  0.00    +0.158 A 
ATOM     17  F   UNL     1      -4.509  -0.950  23.721  0.00  0.00    -0.203 F 
ATOM     18  C   UNL     1      -4.119  -2.306  23.944  0.00  0.00    +0.061 A 
ATOM     19  C   UNL     1      -3.688  -2.865  24.372  0.00  0.00    +0.142 A 
ATOM     20  F   UNL     1      -3.729  -3.662  24.167  0.00  0.00    -0.204 F 
ATOM     21  C   UNL     1      -3.216  -2.625  25.004  0.00  0.00    +0.031 A 
ATOM     22  C   UNL     1      -3.175  -1.826  25.209  0.00  0.00    +0.021 A 
ENDBRANCH  14  15
ENDBRANCH  10  11
BRANCH  23  24
ATOM     24  C   UNL     1      -2.580   2.507  25.127  0.00  0.00    +0.262 C 
ATOM     25  O   UNL     1      -2.551   3.124  25.674  0.00  0.00    -0.271 OA
ATOM     26  N   UNL     1      -3.210   2.454  24.598  0.00  0.00    -0.196 NA
BRANCH  26  27
ATOM     27  C   UNL     1      -3.812   3.018  24.615  0.00  0.00    +0.179 C 
BRANCH  27  35
ATOM     35  C   UNL     1      -3.944   3.500  23.957  0.00  0.00    +0.281 C 
ATOM     36  N   UNL     1      -3.887   3.184  23.197  0.00  0.00    -0.086 NA
ATOM     37  O   UNL     1      -4.134   4.296  24.060  0.00  0.00    -0.270 OA
ENDBRANCH  27  35
BRANCH  27  28
ATOM     28  C   UNL     1      -4.281   3.101  25.287  0.00  0.00    +0.057 C 
BRANCH  28  29
ATOM     29  C   UNL     1      -4.994   2.689  25.347  0.00  0.00    -0.020 A 
ATOM     30  C   UNL     1      -5.341   2.365  24.672  0.00  0.00    -0.004 A 
ATOM     31  C   UNL     1      -6.053   1.954  24.731  0.00  0.00    -0.000 A 
ATOM     32  C   UNL     1      -6.420   1.866  25.466  0.00  0.00    -0.000 A 
ATOM     33  C   UNL     1      -6.073   2.190  26.140  0.00  0.00    -0.000 A 
ATOM     34  C   UNL     1      -5.360   2.602  26.081  0.00  0.00    -0.004 A 
ENDBRANCH  28  29
ENDBRANCH  27  28
ENDBRANCH  26  27
ENDBRANCH  23  24
TORSDOF 8
ENDMDL
MODEL 2
REMARK VINA RESULT:     -11.9      2.253      5.802
REMARK  Name = 
REMARK  8 active torsions:
REMARK  status: ('A' for Active; 'I' for Inactive)
REMARK    1  A    between atoms: C_4  and  C_5
REMARK    2  A    between atoms: C_10  and  N_11
REMARK    3  A    between atoms: N_14  and  C_15
REMARK    4  A    between atoms: C_23  and  C_24
REMARK    5  A    between atoms: N_26  and  C_27
REMARK    6  A    between atoms: C_27  and  C_28
REMARK    7  A    between atoms: C_27  and  C_35
REMARK    8  A    between atoms: C_28  and  C_29
REMARK                            x       y       z     vdW  Elec       q    Type
REMARK                         _______ _______ _______ _____ _____    ______ ____
ROOT
ATOM      5  C   UNL     1      -3.992  -0.570  24.243  0.00  0.00    +0.249 C 
ATOM      6  O   UNL     1      -4.727  -0.666  23.880  0.00  0.00    -0.270 OA
ATOM      7  N   UNL     1      -3.733   0.184  24.458  0.00  0.00    -0.268 N 
ATOM      8  C   UNL     1      -4.147   0.889  24.345  0.00  0.00    +0.096 C 
ATOM      9  C   UNL     1      -3.684   1.505  24.641  0.00  0.00    +0.045 C 
ATOM     10  C   UNL     1      -2.985   1.180  24.936  0.00  0.00    +0.126 C 
ATOM     23  C   UNL     1      -3.015   0.364  24.823  0.00  0.00    +0.174 C 
ENDROOT
BRANCH   5   4
ATOM      1  C   UNL     1      -4.492  -2.071  23.777  0.00  0.00    +0.027 C 
ATOM      2  C   UNL     1      -3.766  -1.978  24.158  0.00  0.00    -0.039 C 
ATOM      3  C   UNL     1      -3.290  -2.636  24.307  0.00  0.00    +0.027 C 
ATOM      4  C   UNL     1      -3.516  -1.227  24.392  0.00  0.00    +0.049 C 
ENDBRANCH   5   4
BRANCH  10  11
ATOM     11  N   UNL     1      -2.365   1.600  25.283  0.00  0.00    -0.186 NA
ATOM     12  C   UNL     1      -2.289   2.410  25.150  0.00  0.00    +0.344 C 
ATOM     13  O   UNL     1      -2.834   2.801  24.670  0.00  0.00    -0.249 OA
ATOM     14  N   UNL     1      -1.669   2.829  25.497  0.00  0.00    -0.159 NA
BRANCH  14  15
ATOM     15  C   UNL     1      -1.593   3.640  25.364  0.00  0.00    +0.102 A 
ATOM     16  C   UNL     1      -0.910   3.938  25.010  0.00  0.00    +0.158 A 
ATOM     17  F   UNL     1      -0.303   3.425  24.789  0.00  0.00    -0.203 F 
ATOM     18  C   UNL     1      -0.835   4.748  24.877  0.00  0.00    +0.061 A 
ATOM     19  C   UNL     1      -1.442   5.261  25.097  0.00  0.00    +0.142 A 
ATOM     20  F   UNL     1      -1.367   6.071  24.964  0.00  0.00    -0.204 F 
ATOM     21  C   UNL     1      -2.125   4.964  25.451  0.00  0.00    +0.031 A 
ATOM     22  C   UNL     1      -2.201   4.153  25.585  0.00  0.00    +0.021 A 
ENDBRANCH  14  15
ENDBRANCH  10  11
BRANCH  23  24
ATOM     24  C   UNL     1      -2.431  -0.177  25.037  0.00  0.00    +0.262 C 
ATOM     25  O   UNL     1      -2.626  -0.838  25.490  0.00  0.00    -0.271 OA
ATOM     26  N   UNL     1      -1.650  -0.058  24.798  0.00  0.00    -0.196 NA
BRANCH  26  27
ATOM     27  C   UNL     1      -1.065  -0.598  25.012  0.00  0.00    +0.179 C 
BRANCH  27  35
ATOM     35  C   UNL     1      -0.905  -0.738  25.809  0.00  0.00    +0.281 C 
ATOM     36  N   UNL     1      -0.846  -1.512  26.088  0.00  0.00    -0.086 NA
ATOM     37  O   UNL     1      -0.804  -0.104  26.327  0.00  0.00    -0.270 OA
ENDBRANCH  27  35
BRANCH  27  28
ATOM     28  C   UNL     1      -0.641  -0.999  24.430  0.00  0.00    +0.057 C 
BRANCH  28  29
ATOM     29  C   UNL     1      -0.144  -0.581  23.920  0.00  0.00    -0.020 A 
ATOM     30  C   UNL     1       0.404  -0.045  24.226  0.00  0.00    -0.004 A 
ATOM     31  C   UNL     1       0.901   0.372  23.717  0.00  0.00    -0.000 A 
ATOM     32  C   UNL     1       0.850   0.255  22.901  0.00  0.00    -0.000 A 
ATOM     33  C   UNL     1       0.302  -0.281  22.596  0.00  0.00    -0.000 A 
ATOM     34  C   UNL     1      -0.195  -0.699  23.105  0.00  0.00    -0.004 A 
ENDBRANCH  28  29
ENDBRANCH  27  28
ENDBRANCH  26  27
ENDBRANCH  23  24
TORSDOF 8
ENDMDL
MODEL 3
REMARK VINA RESULT:     -11.7      2.434      4.648
REMARK  Name = 
REMARK  8 active torsions:
REMARK  status: ('A' for Active; 'I' for Inactive)
REMARK    1  A    between atoms: C_4  and  C_5
REMARK    2  A    between atoms: C_10  and  N_11
REMARK    3  A    between atoms: N_14  and  C_15
REMARK    4  A    between atoms: C_23  and  C_24
REMARK    5  A    between atoms: N_26  and  C_27
REMARK    6  A    between atoms: C_27  and  C_28
REMARK    7  A    between atoms: C_27  and  C_35
REMARK    8  A    between atoms: C_28  and  C_29
REMARK                            x       y       z     vdW  Elec       q    Type
REMARK                         _______ _______ _______ _____ _____    ______ ____
ROOT
ATOM      5  C   UNL     1      -3.580   2.131  24.104  0.00  0.00    +0.249 C 
ATOM      6  O   UNL     1      -3.930   2.798  23.766  0.00  0.00    -0.270 OA
ATOM      7  N   UNL     1      -2.837   1.882  23.849  0.00  0.00    -0.268 N 
ATOM      8  C   UNL     1      -2.379   2.242  23.264  0.00  0.00    +0.096 C 
ATOM      9  C   UNL     1      -1.679   1.811  23.188  0.00  0.00    +0.045 C 
ATOM     10  C   UNL     1      -1.705   1.185  23.725  0.00  0.00    +0.126 C 
ATOM     23  C   UNL     1      -2.420   1.228  24.134  0.00  0.00    +0.174 C 
ENDROOT
BRANCH   5   4
ATOM      1  C   UNL     1      -5.071   2.626  24.608  0.00  0.00    +0.027 C 
ATOM      2  C   UNL     1      -4.720   1.961  24.949  0.00  0.00    -0.039 C 
ATOM      3  C   UNL     1      -5.115   1.543  25.541  0.00  0.00    +0.027 C 
ATOM      4  C   UNL     1      -3.975   1.714  24.696  0.00  0.00    +0.049 C 
ENDBRANCH   5   4
BRANCH  10  11
ATOM     11  N   UNL     1      -1.118   0.615  23.834  0.00  0.00    -0.186 NA
ATOM     12  C   UNL     1      -0.364   0.735  23.523  0.00  0.00    +0.344 C 
ATOM     13  O   UNL     1      -0.196   1.425  23.103  0.00  0.00    -0.249 OA
ATOM     14  N   UNL     1       0.223   0.166  23.632  0.00  0.00    -0.159 NA
BRANCH  14  15
ATOM     15  C   UNL     1       0.978   0.286  23.320  0.00  0.00    +0.102 A 
ATOM     16  C   UNL     1       1.265  -0.213  22.730  0.00  0.00    +0.158 A 
ATOM     17  F   UNL     1       0.797  -0.833  22.450  0.00  0.00    -0.203 F 
ATOM     18  C   UNL     1       2.019  -0.093  22.419  0.00  0.00    +0.061 A 
ATOM     19  C   UNL     1       2.487   0.526  22.698  0.00  0.00    +0.142 A 
ATOM     20  F   UNL     1       3.241   0.646  22.387  0.00  0.00    -0.204 F 
ATOM     21  C   UNL     1       2.200   1.025  23.289  0.00  0.00    +0.031 A 
ATOM     22  C   UNL     1       1.445   0.905  23.600  0.00  0.00    +0.021 A 
ENDBRANCH  14  15
ENDBRANCH  10  11
BRANCH  23  24
ATOM     24  C   UNL     1      -2.675   0.711  24.723  0.00  0.00    +0.262 C 
ATOM     25  O   UNL     1      -2.912   1.004  25.455  0.00  0.00    -0.271 OA
ATOM     26  N   UNL     1      -2.691  -0.102  24.579  0.00  0.00    -0.196 NA
BRANCH  26  27
ATOM     27  C   UNL     1      -2.946  -0.620  25.167  0.00  0.00    +0.179 C 
BRANCH  27  35
ATOM     35  C   UNL     1      -2.450  -0.797  25.804  0.00  0.00    +0.281 C 
ATOM     36  N   UNL     1      -2.728  -0.719  26.576  0.00  0.00    -0.086 NA
ATOM     37  O   UNL     1      -1.677  -1.051  25.666  0.00  0.00    -0.270 OA
ENDBRANCH  27  35
BRANCH  27  28
ATOM     28  C   UNL     1      -3.694  -0.962  25.121  0.00  0.00    +0.057 C 
BRANCH  28  29
ATOM     29  C   UNL     1      -3.811  -1.639  24.662  0.00  0.00    -0.020 A 
ATOM     30  C   UNL     1      -3.499  -2.362  24.907  0.00  0.00    -0.004 A 
ATOM     31  C   UNL     1      -3.616  -3.038  24.449  0.00  0.00    -0.000 A 
ATOM     32  C   UNL     1      -4.045  -2.991  23.746  0.00  0.00    -0.000 A 
ATOM     33  C   UNL     1      -4.357  -2.267  23.501  0.00  0.00    -0.000 A 
ATOM     34  C   UNL     1      -4.240  -1.591  23.959  0.00  0.00    -0.004 A 
ENDBRANCH  28  29
ENDBRANCH  27  28
ENDBRANCH  26  27
ENDBRANCH  23  24
TORSDOF 8
ENDMDL
MODEL 4
REMARK VINA RESULT:     -11.7      2.083      5.171
REMARK  Name = 
REMARK  8 active torsions:
REMARK  status: ('A' for Active; 'I' for Inactive)
REMARK    1  A    between atoms: C_4  and  C_5
REMARK    2  A    between atoms: C_10  and  N_11
REMARK    3  A    between atoms: N_14  and  C_15
REMARK    4  A    between atoms: C_23  and  C_24
REMARK    5  A    between atoms: N_26  and  C_27
REMARK    6  A    between atoms: C_27  and  C_28
REMARK    7  A    between atoms: C_27  and  C_35
REMARK    8  A    between atoms: C_28  and  C_29
REMARK                            x       y       z     vdW  Elec       q    Type
REMARK                         _______ _______ _______ _____ _____    ______ ____
ROOT
ATOM      5  C   UNL     1      -3.173  -1.707  24.419  0.00  0.00    +0.249 C 
ATOM      6  O   UNL     1      -3.655  -2.353  24.243  0.00  0.00    -0.270 OA
ATOM      7  N   UNL     1      -3.490  -0.946  24.430  0.00  0.00    -0.268 N 
ATOM      8  C   UNL     1      -4.275  -0.746  24.277  0.00  0.00    +0.096 C 
ATOM      9  C   UNL     1      -4.347   0.073  24.348  0.00  0.00    +0.045 C 
ATOM     10  C   UNL     1      -3.607   0.379  24.545  0.00  0.00    +0.126 C 
ATOM     23  C   UNL     1      -3.076  -0.251  24.596  0.00  0.00    +0.174 C 
ENDROOT
BRANCH   5   4
ATOM      1  C   UNL     1      -2.544  -3.233  24.420  0.00  0.00    +0.027 C 
ATOM      2  C   UNL     1      -2.058  -2.586  24.585  0.00  0.00    -0.039 C 
ATOM      3  C   UNL     1      -1.258  -2.703  24.750  0.00  0.00    +0.027 C 
ATOM      4  C   UNL     1      -2.373  -1.824  24.584  0.00  0.00    +0.049 C 
ENDBRANCH   5   4
BRANCH  10  11
ATOM     11  N   UNL     1      -3.428   1.175  24.670  0.00  0.00    -0.186 NA
ATOM     12  C   UNL     1      -4.030   1.710  24.848  0.00  0.00    +0.344 C 
ATOM     13  O   UNL     1      -4.811   1.449  24.901  0.00  0.00    -0.249 OA
ATOM     14  N   UNL     1      -3.852   2.506  24.972  0.00  0.00    -0.159 NA
BRANCH  14  15
ATOM     15  C   UNL     1      -4.454   3.041  25.150  0.00  0.00    +0.102 A 
ATOM     16  C   UNL     1      -4.403   3.821  24.888  0.00  0.00    +0.158 A 
ATOM     17  F   UNL     1      -3.749   4.067  24.449  0.00  0.00    -0.203 F 
ATOM     18  C   UNL     1      -5.005   4.356  25.066  0.00  0.00    +0.061 A 
ATOM     19  C   UNL     1      -5.659   4.111  25.506  0.00  0.00    +0.142 A 
ATOM     20  F   UNL     1      -6.261   4.645  25.683  0.00  0.00    -0.204 F 
ATOM     21  C   UNL     1      -5.710   3.330  25.767  0.00  0.00    +0.031 A 
ATOM     22  C   UNL     1      -5.107   2.795  25.590  0.00  0.00    +0.021 A 
ENDBRANCH  14  15
ENDBRANCH  10  11
BRANCH  23  24
ATOM     24  C   UNL     1      -2.274  -0.196  24.780  0.00  0.00    +0.262 C 
ATOM     25  O   UNL     1      -1.959  -0.654  25.389  0.00  0.00    -0.271 OA
ATOM     26  N   UNL     1      -1.788   0.317  24.355  0.00  0.00    -0.196 NA
BRANCH  26  27
ATOM     27  C   UNL     1      -0.986   0.373  24.539  0.00  0.00    +0.179 C 
BRANCH  27  35
ATOM     35  C   UNL     1      -0.419   0.145  23.983  0.00  0.00    +0.281 C 
ATOM     36  N   UNL     1      -0.503   0.369  23.193  0.00  0.00    -0.086 NA
ATOM     37  O   UNL     1       0.231  -0.306  24.217  0.00  0.00    -0.270 OA
ENDBRANCH  27  35
BRANCH  27  28
ATOM     28  C   UNL     1      -0.750   0.655  25.276  0.00  0.00    +0.057 C 
BRANCH  28  29
ATOM     29  C   UNL     1      -0.563   1.453  25.372  0.00  0.00    -0.020 A 
ATOM     30  C   UNL     1      -0.363   1.912  24.716  0.00  0.00    -0.004 A 
ATOM     31  C   UNL     1      -0.176   2.709  24.813  0.00  0.00    -0.000 A 
ATOM     32  C   UNL     1      -0.188   3.049  25.565  0.00  0.00    -0.000 A 
ATOM     33  C   UNL     1      -0.388   2.590  26.220  0.00  0.00    -0.000 A 
ATOM     34  C   UNL     1      -0.576   1.792  26.124  0.00  0.00    -0.004 A 
ENDBRANCH  28  29
ENDBRANCH  27  28
ENDBRANCH  26  27
ENDBRANCH  23  24
TORSDOF 8
ENDMDL
MODEL 5
REMARK VINA RESULT:     -11.7      1.349      3.238
REMARK  Name = 
REMARK  8 active torsions:
REMARK  status: ('A' for Active; 'I' for Inactive)
REMARK    1  A    between atoms: C_4  and  C_5
REMARK    2  A    between atoms: C_10  and  N_11
REMARK    3  A    between atoms: N_14  and  C_15
REMARK    4  A    between atoms: C_23  and  C_24
REMARK    5  A    between atoms: N_26  and  C_27
REMARK    6  A    between atoms: C_27  and  C_28
REMARK    7  A    between atoms: C_27  and  C_35
REMARK    8  A    between atoms: C_28  and  C_29
REMARK                            x       y       z     vdW  Elec       q    Type
REMARK                         _______ _______ _______ _____ _____    ______ ____
ROOT
ATOM      5  C   UNL     1      -4.976   3.044  25.384  0.00  0.00    +0.249 C 
ATOM      6  O   UNL     1      -5.574   3.311  25.886  0.00  0.00    -0.270 OA
ATOM      7  N   UNL     1      -4.900   2.239  25.223  0.00  0.00    -0.268 N 
ATOM      8  C   UNL     1      -5.380   1.638  25.522  0.00  0.00    +0.096 C 
ATOM      9  C   UNL     1      -5.108   0.920  25.218  0.00  0.00    +0.045 C 
ATOM     10  C   UNL     1      -4.460   1.078  24.732  0.00  0.00    +0.126 C 
ATOM     23  C   UNL     1      -4.332   1.893  24.734  0.00  0.00    +0.174 C 
ENDROOT
BRANCH   5   4
ATOM      1  C   UNL     1      -5.175   4.661  25.643  0.00  0.00    +0.027 C 
ATOM      2  C   UNL     1      -4.552   4.393  25.173  0.00  0.00    -0.039 C 
ATOM      3  C   UNL     1      -4.029   4.933  24.832  0.00  0.00    +0.027 C 
ATOM      4  C   UNL     1      -4.453   3.584  25.043  0.00  0.00    +0.049 C 
ENDBRANCH   5   4
BRANCH  10  11
ATOM     11  N   UNL     1      -4.019   0.519  24.316  0.00  0.00    -0.186 NA
ATOM     12  C   UNL     1      -4.017  -0.269  24.558  0.00  0.00    +0.344 C 
ATOM     13  O   UNL     1      -4.457  -0.498  25.217  0.00  0.00    -0.249 OA
ATOM     14  N   UNL     1      -3.576  -0.828  24.142  0.00  0.00    -0.159 NA
BRANCH  14  15
ATOM     15  C   UNL     1      -3.574  -1.617  24.384  0.00  0.00    +0.102 A 
ATOM     16  C   UNL     1      -3.925  -2.195  23.912  0.00  0.00    +0.158 A 
ATOM     17  F   UNL     1      -4.277  -1.984  23.196  0.00  0.00    -0.203 F 
ATOM     18  C   UNL     1      -3.923  -2.983  24.154  0.00  0.00    +0.061 A 
ATOM     19  C   UNL     1      -3.571  -3.194  24.870  0.00  0.00    +0.142 A 
ATOM     20  F   UNL     1      -3.569  -3.982  25.113  0.00  0.00    -0.204 F 
ATOM     21  C   UNL     1      -3.220  -2.616  25.343  0.00  0.00    +0.031 A 
ATOM     22  C   UNL     1      -3.222  -1.827  25.100  0.00  0.00    +0.021 A 
ENDBRANCH  14  15
ENDBRANCH  10  11
BRANCH  23  24
ATOM     24  C   UNL     1      -3.740   2.292  24.322  0.00  0.00    +0.262 C 
ATOM     25  O   UNL     1      -3.939   2.880  23.779  0.00  0.00    -0.271 OA
ATOM     26  N   UNL     1      -2.947   2.104  24.452  0.00  0.00    -0.196 NA
BRANCH  26  27
ATOM     27  C   UNL     1      -2.355   2.502  24.040  0.00  0.00    +0.179 C 
BRANCH  27  35
ATOM     35  C   UNL     1      -2.233   2.346  23.238  0.00  0.00    +0.281 C 
ATOM     36  N   UNL     1      -2.364   2.937  22.679  0.00  0.00    -0.086 NA
ATOM     37  O   UNL     1      -1.981   1.598  22.998  0.00  0.00    -0.270 OA
ENDBRANCH  27  35
BRANCH  27  28
ATOM     28  C   UNL     1      -1.884   3.057  24.427  0.00  0.00    +0.057 C 
BRANCH  28  29
ATOM     29  C   UNL     1      -1.252   2.807  24.896  0.00  0.00    -0.020 A 
ATOM     30  C   UNL     1      -1.312   2.835  25.719  0.00  0.00    -0.004 A 
ATOM     31  C   UNL     1      -0.681   2.585  26.187  0.00  0.00    -0.000 A 
ATOM     32  C   UNL     1       0.010   2.306  25.834  0.00  0.00    -0.000 A 
ATOM     33  C   UNL     1       0.070   2.278  25.011  0.00  0.00    -0.000 A 
ATOM     34  C   UNL     1      -0.561   2.528  24.542  0.00  0.00    -0.004 A 
ENDBRANCH  28  29
ENDBRANCH  27  28
ENDBRANCH  26  27
ENDBRANCH  23  24
TORSDOF 8
ENDMDL
MODEL 6
REMARK VINA RESULT:     -11.6      1.816      4.588
REMARK  Name = 
REMARK  8 active torsions:
REMARK  status: ('A' for Active; 'I' for Inactive)
REMARK    1  A    between atoms: C_4  and  C_5
REMARK    2  A    between atoms: C_10  and  N_11
REMARK    3  A    between atoms: N_14  and  C_15
REMARK    4  A    between atoms: C_23  and  C_24
REMARK    5  A    between atoms: N_26  and  C_27
REMARK    6  A    between atoms: C_27  and  C_28
REMARK    7  A    between atoms: C_27  and  C_35
REMARK    8  A    between atoms: C_28  and  C_29
REMARK                            x       y       z     vdW  Elec       q    Type
REMARK                         _______ _______ _______ _____ _____    ______ ____
ROOT
ATOM      5  C   UNL     1      -0.439   0.921  23.623  0.00  0.00    +0.249 C 
ATOM      6  O   UNL     1       0.070   1.256  23.067  0.00  0.00    -0.270 OA
ATOM      7  N   UNL     1      -1.088   1.349  23.900  0.00  0.00    -0.268 N 
ATOM      8  C   UNL     1      -1.297   2.114  23.672  0.00  0.00    +0.096 C 
ATOM      9  C   UNL     1      -1.980   2.324  24.085  0.00  0.00    +0.045 C 
ATOM     10  C   UNL     1      -2.193   1.689  24.567  0.00  0.00    +0.126 C 
ATOM     23  C   UNL     1      -1.642   1.086  24.453  0.00  0.00    +0.174 C 
ENDROOT
BRANCH   5   4
ATOM      1  C   UNL     1       0.834   0.050  23.039  0.00  0.00    +0.027 C 
ATOM      2  C   UNL     1       0.338  -0.279  23.611  0.00  0.00    -0.039 C 
ATOM      3  C   UNL     1       0.478  -1.042  23.890  0.00  0.00    +0.027 C 
ATOM      4  C   UNL     1      -0.299   0.157  23.903  0.00  0.00    +0.049 C 
ENDBRANCH   5   4
BRANCH  10  11
ATOM     11  N   UNL     1      -2.843   1.663  25.074  0.00  0.00    -0.186 NA
ATOM     12  C   UNL     1      -3.399   2.272  25.065  0.00  0.00    +0.344 C 
ATOM     13  O   UNL     1      -3.305   2.908  24.548  0.00  0.00    -0.249 OA
ATOM     14  N   UNL     1      -4.049   2.245  25.572  0.00  0.00    -0.159 NA
BRANCH  14  15
ATOM     15  C   UNL     1      -4.606   2.855  25.562  0.00  0.00    +0.102 A 
ATOM     16  C   UNL     1      -5.410   2.678  25.517  0.00  0.00    +0.158 A 
ATOM     17  F   UNL     1      -5.658   1.892  25.481  0.00  0.00    -0.203 F 
ATOM     18  C   UNL     1      -5.966   3.287  25.507  0.00  0.00    +0.061 A 
ATOM     19  C   UNL     1      -5.718   4.073  25.543  0.00  0.00    +0.142 A 
ATOM     20  F   UNL     1      -6.274   4.682  25.533  0.00  0.00    -0.204 F 
ATOM     21  C   UNL     1      -4.914   4.250  25.588  0.00  0.00    +0.031 A 
ATOM     22  C   UNL     1      -4.357   3.640  25.598  0.00  0.00    +0.021 A 
ENDBRANCH  14  15
ENDBRANCH  10  11
BRANCH  23  24
ATOM     24  C   UNL     1      -1.644   0.351  24.826  0.00  0.00    +0.262 C 
ATOM     25  O   UNL     1      -0.979   0.098  25.242  0.00  0.00    -0.271 OA
ATOM     26  N   UNL     1      -2.311  -0.132  24.783  0.00  0.00    -0.196 NA
BRANCH  26  27
ATOM     27  C   UNL     1      -2.314  -0.868  25.155  0.00  0.00    +0.179 C 
BRANCH  27  35
ATOM     35  C   UNL     1      -2.355  -0.912  25.979  0.00  0.00    +0.281 C 
ATOM     36  N   UNL     1      -1.699  -1.167  26.410  0.00  0.00    -0.086 NA
ATOM     37  O   UNL     1      -3.050  -0.703  26.370  0.00  0.00    -0.270 OA
ENDBRANCH  27  35
BRANCH  27  28
ATOM     28  C   UNL     1      -2.276  -1.558  24.706  0.00  0.00    +0.057 C 
BRANCH  28  29
ATOM     29  C   UNL     1      -2.970  -1.909  24.429  0.00  0.00    -0.020 A 
ATOM     30  C   UNL     1      -3.110  -2.710  24.566  0.00  0.00    -0.004 A 
ATOM     31  C   UNL     1      -3.803  -3.061  24.289  0.00  0.00    -0.000 A 
ATOM     32  C   UNL     1      -4.357  -2.610  23.875  0.00  0.00    -0.000 A 
ATOM     33  C   UNL     1      -4.217  -1.809  23.739  0.00  0.00    -0.000 A 
ATOM     34  C   UNL     1      -3.523  -1.458  24.016  0.00  0.00    -0.004 A 
ENDBRANCH  28  29
ENDBRANCH  27  28
ENDBRANCH  26  27
ENDBRANCH  23  24
TORSDOF 8
ENDMDL
MODEL 7
REMARK VINA RESULT:     -11.6      2.102      4.707
REMARK  Name = 
REMARK  8 active torsions:
REMARK  status: ('A' for Active; 'I' for Inactive)
REMARK    1  A    between atoms: C_4  and  C_5
REMARK    2  A    between atoms: C_10  and  N_11
REMARK    3  A    between atoms: N_14  and  C_15
REMARK    4  A    between atoms: C_23  and  C_24
REMARK    5  A    between atoms: N_26  and  C_27
REMARK    6  A    between atoms: C_27  and  C_28
REMARK    7  A    between atoms: C_27  and  C_35
REMARK    8  A    between atoms: C_28  and  C_29
REMARK                            x       y       z     vdW  Elec       q    Type
REMARK                         _______ _______ _______ _____ _____    ______ ____
ROOT
ATOM      5  C   UNL     1      -1.008  -1.084  24.874  0.00  0.00    +0.249 C 
ATOM      6  O   UNL     1      -0.289  -1.483  24.805  0.00  0.00    -0.270 OA
ATOM      7  N   UNL     1      -1.021  -0.261  24.919  0.00  0.00    -0.268 N 
ATOM      8  C   UNL     1      -0.362   0.236  24.901  0.00  0.00    +0.096 C 
ATOM      9  C   UNL     1      -0.629   1.014  24.961  0.00  0.00    +0.045 C 
ATOM     10  C   UNL     1      -1.452   0.999  25.015  0.00  0.00    +0.126 C 
ATOM     23  C   UNL     1      -1.695   0.210  24.990  0.00  0.00    +0.174 C 
ENDROOT
BRANCH   5   4
ATOM      1  C   UNL     1      -0.987  -2.727  24.728  0.00  0.00    +0.027 C 
ATOM      2  C   UNL     1      -1.704  -2.332  24.826  0.00  0.00    -0.039 C 
ATOM      3  C   UNL     1      -2.411  -2.757  24.851  0.00  0.00    +0.027 C 
ATOM      4  C   UNL     1      -1.715  -1.510  24.899  0.00  0.00    +0.049 C 
ENDBRANCH   5   4
BRANCH  10  11
ATOM     11  N   UNL     1      -1.946   1.656  25.084  0.00  0.00    -0.186 NA
ATOM     12  C   UNL     1      -1.627   2.416  25.060  0.00  0.00    +0.344 C 
ATOM     13  O   UNL     1      -0.814   2.519  24.967  0.00  0.00    -0.249 OA
ATOM     14  N   UNL     1      -2.121   3.074  25.128  0.00  0.00    -0.159 NA
BRANCH  14  15
ATOM     15  C   UNL     1      -1.802   3.834  25.104  0.00  0.00    +0.102 A 
ATOM     16  C   UNL     1      -2.190   4.457  25.481  0.00  0.00    +0.158 A 
ATOM     17  F   UNL     1      -2.898   4.319  25.882  0.00  0.00    -0.203 F 
ATOM     18  C   UNL     1      -1.871   5.217  25.456  0.00  0.00    +0.061 A 
ATOM     19  C   UNL     1      -1.163   5.355  25.055  0.00  0.00    +0.142 A 
ATOM     20  F   UNL     1      -0.844   6.114  25.031  0.00  0.00    -0.204 F 
ATOM     21  C   UNL     1      -0.775   4.732  24.679  0.00  0.00    +0.031 A 
ATOM     22  C   UNL     1      -1.094   3.971  24.703  0.00  0.00    +0.021 A 
ENDBRANCH  14  15
ENDBRANCH  10  11
BRANCH  23  24
ATOM     24  C   UNL     1      -2.473  -0.059  25.028  0.00  0.00    +0.262 C 
ATOM     25  O   UNL     1      -2.688  -0.621  25.591  0.00  0.00    -0.271 OA
ATOM     26  N   UNL     1      -3.037   0.234  24.501  0.00  0.00    -0.196 NA
BRANCH  26  27
ATOM     27  C   UNL     1      -3.816  -0.035  24.539  0.00  0.00    +0.179 C 
BRANCH  27  35
ATOM     35  C   UNL     1      -4.118  -0.507  23.932  0.00  0.00    +0.281 C 
ATOM     36  N   UNL     1      -4.622  -1.135  24.112  0.00  0.00    -0.086 NA
ATOM     37  O   UNL     1      -3.917  -0.350  23.148  0.00  0.00    -0.270 OA
ENDBRANCH  27  35
BRANCH  27  28
ATOM     28  C   UNL     1      -4.292   0.166  25.180  0.00  0.00    +0.057 C 
BRANCH  28  29
ATOM     29  C   UNL     1      -4.767   0.841  25.146  0.00  0.00    -0.020 A 
ATOM     30  C   UNL     1      -4.880   1.230  24.428  0.00  0.00    -0.004 A 
ATOM     31  C   UNL     1      -5.355   1.903  24.394  0.00  0.00    -0.000 A 
ATOM     32  C   UNL     1      -5.718   2.188  25.078  0.00  0.00    -0.000 A 
ATOM     33  C   UNL     1      -5.605   1.798  25.797  0.00  0.00    -0.000 A 
ATOM     34  C   UNL     1      -5.130   1.124  25.831  0.00  0.00    -0.004 A 
ENDBRANCH  28  29
ENDBRANCH  27  28
ENDBRANCH  26  27
ENDBRANCH  23  24
TORSDOF 8
ENDMDL
MODEL 8
REMARK VINA RESULT:     -11.3      2.566      3.920
REMARK  Name = 
REMARK  8 active torsions:
REMARK  status: ('A' for Active; 'I' for Inactive)
REMARK    1  A    between atoms: C_4  and  C_5
REMARK    2  A    between atoms: C_10  and  N_11
REMARK    3  A    between atoms: N_14  and  C_15
REMARK    4  A    between atoms: C_23  and  C_24
REMARK    5  A    between atoms: N_26  and  C_27
REMARK    6  A    between atoms: C_27  and  C_28
REMARK    7  A    between atoms: C_27  and  C_35
REMARK    8  A    between atoms: C_28  and  C_29
REMARK                            x       y       z     vdW  Elec       q    Type
REMARK                         _______ _______ _______ _____ _____    ______ ____
ROOT
ATOM      5  C   UNL     1      -1.885   3.291  25.851  0.00  0.00    +0.249 C 
ATOM      6  O   UNL     1      -1.741   3.755  26.517  0.00  0.00    -0.270 OA
ATOM      7  N   UNL     1      -1.294   2.796  25.556  0.00  0.00    -0.268 N 
ATOM      8  C   UNL     1      -0.535   2.708  25.868  0.00  0.00    +0.096 C 
ATOM      9  C   UNL     1      -0.131   2.161  25.403  0.00  0.00    +0.045 C 
ATOM     10  C   UNL     1      -0.639   1.910  24.803  0.00  0.00    +0.126 C 
ATOM     23  C   UNL     1      -1.359   2.303  24.898  0.00  0.00    +0.174 C 
ENDROOT
BRANCH   5   4
ATOM      1  C   UNL     1      -3.065   4.284  26.437  0.00  0.00    +0.027 C 
ATOM      2  C   UNL     1      -3.211   3.818  25.772  0.00  0.00    -0.039 C 
ATOM      3  C   UNL     1      -3.947   3.848  25.400  0.00  0.00    +0.027 C 
ATOM      4  C   UNL     1      -2.621   3.321  25.479  0.00  0.00    +0.049 C 
ENDBRANCH   5   4
BRANCH  10  11
ATOM     11  N   UNL     1      -0.459   1.363  24.213  0.00  0.00    -0.186 NA
ATOM     12  C   UNL     1       0.323   1.252  23.976  0.00  0.00    +0.344 C 
ATOM     13  O   UNL     1       0.926   1.689  24.331  0.00  0.00    -0.249 OA
ATOM     14  N   UNL     1       0.503   0.704  23.386  0.00  0.00    -0.159 NA
BRANCH  14  15
ATOM     15  C   UNL     1       1.286   0.594  23.150  0.00  0.00    +0.102 A 
ATOM     16  C   UNL     1       1.491  -0.065  22.698  0.00  0.00    +0.158 A 
ATOM     17  F   UNL     1       0.914  -0.614  22.483  0.00  0.00    -0.203 F 
ATOM     18  C   UNL     1       2.273  -0.175  22.463  0.00  0.00    +0.061 A 
ATOM     19  C   UNL     1       2.851   0.373  22.678  0.00  0.00    +0.142 A 
ATOM     20  F   UNL     1       3.633   0.263  22.442  0.00  0.00    -0.204 F 
ATOM     21  C   UNL     1       2.645   1.032  23.129  0.00  0.00    +0.031 A 
ATOM     22  C   UNL     1       1.862   1.143  23.365  0.00  0.00    +0.021 A 
ENDBRANCH  14  15
ENDBRANCH  10  11
BRANCH  23  24
ATOM     24  C   UNL     1      -2.024   2.217  24.419  0.00  0.00    +0.262 C 
ATOM     25  O   UNL     1      -2.360   2.878  24.058  0.00  0.00    -0.271 OA
ATOM     26  N   UNL     1      -2.354   1.470  24.301  0.00  0.00    -0.196 NA
BRANCH  26  27
ATOM     27  C   UNL     1      -3.020   1.384  23.822  0.00  0.00    +0.179 C 
BRANCH  27  35
ATOM     35  C   UNL     1      -2.980   1.578  23.020  0.00  0.00    +0.281 C 
ATOM     36  N   UNL     1      -3.465   2.170  22.715  0.00  0.00    -0.086 NA
ATOM     37  O   UNL     1      -2.454   1.178  22.526  0.00  0.00    -0.270 OA
ENDBRANCH  27  35
BRANCH  27  28
ATOM     28  C   UNL     1      -3.726   1.106  24.143  0.00  0.00    +0.057 C 
BRANCH  28  29
ATOM     29  C   UNL     1      -3.792   0.315  24.371  0.00  0.00    -0.020 A 
ATOM     30  C   UNL     1      -3.855  -0.276  23.798  0.00  0.00    -0.004 A 
ATOM     31  C   UNL     1      -3.921  -1.065  24.025  0.00  0.00    -0.000 A 
ATOM     32  C   UNL     1      -3.925  -1.266  24.826  0.00  0.00    -0.000 A 
ATOM     33  C   UNL     1      -3.862  -0.676  25.399  0.00  0.00    -0.000 A 
ATOM     34  C   UNL     1      -3.796   0.115  25.171  0.00  0.00    -0.004 A 
ENDBRANCH  28  29
ENDBRANCH  27  28
ENDBRANCH  26  27
ENDBRANCH  23  24
TORSDOF 8
ENDMDL
MODEL 9
REMARK VINA RESULT:     -11.1      2.969      4.783
REMARK  Name = 
REMARK  8 active torsions:
REMARK  status: ('A' for Active; 'I' for Inactive)
REMARK    1  A    between atoms: C_4  and  C_5
REMARK    2  A    between atoms: C_10  and  N_11
REMARK    3  A    between atoms: N_14  and  C_15
REMARK    4  A    between atoms: C_23  and  C_24
REMARK    5  A    between atoms: N_26  and  C_27
REMARK    6  A    between atoms: C_27  and  C_28
REMARK    7  A    between atoms: C_27  and  C_35
REMARK    8  A    between atoms: C_28  and  C_29
REMARK                            x       y       z     vdW  Elec       q    Type
REMARK                         _______ _______ _______ _____ _____    ______ ____
ROOT
ATOM      5  C   UNL     1      -2.302  -1.018  25.229  0.00  0.00    +0.249 C 
ATOM      6  O   UNL     1      -2.394  -1.686  25.705  0.00  0.00    -0.270 OA
ATOM      7  N   UNL     1      -1.570  -0.851  24.889  0.00  0.00    -0.268 N 
ATOM      8  C   UNL     1      -0.882  -1.299  24.974  0.00  0.00    +0.096 C 
ATOM      9  C   UNL     1      -0.284  -0.931  24.541  0.00  0.00    +0.045 C 
ATOM     10  C   UNL     1      -0.602  -0.257  24.188  0.00  0.00    +0.126 C 
ATOM     23  C   UNL     1      -1.397  -0.207  24.403  0.00  0.00    +0.174 C 
ENDROOT
BRANCH   5   4
ATOM      1  C   UNL     1      -3.771  -1.359  25.899  0.00  0.00    +0.027 C 
ATOM      2  C   UNL     1      -3.678  -0.688  25.429  0.00  0.00    -0.039 C 
ATOM      3  C   UNL     1      -4.320  -0.187  25.294  0.00  0.00    +0.027 C 
ATOM      4  C   UNL     1      -2.944  -0.517  25.094  0.00  0.00    +0.049 C 
ENDBRANCH   5   4
BRANCH  10  11
ATOM     11  N   UNL     1      -0.195   0.275  23.705  0.00  0.00    -0.186 NA
ATOM     12  C   UNL     1       0.599   0.145  23.525  0.00  0.00    +0.344 C 
ATOM     13  O   UNL     1       0.987  -0.516  23.828  0.00  0.00    -0.249 OA
ATOM     14  N   UNL     1       1.005   0.677  23.042  0.00  0.00    -0.159 NA
BRANCH  14  15
ATOM     15  C   UNL     1       1.800   0.547  22.862  0.00  0.00    +0.102 A 
ATOM     16  C   UNL     1       2.373   1.084  23.113  0.00  0.00    +0.158 A 
ATOM     17  F   UNL     1       2.151   1.752  23.543  0.00  0.00    -0.203 F 
ATOM     18  C   UNL     1       3.167   0.954  22.933  0.00  0.00    +0.061 A 
ATOM     19  C   UNL     1       3.389   0.286  22.502  0.00  0.00    +0.142 A 
ATOM     20  F   UNL     1       4.183   0.156  22.322  0.00  0.00    -0.204 F 
ATOM     21  C   UNL     1       2.816  -0.252  22.252  0.00  0.00    +0.031 A 
ATOM     22  C   UNL     1       2.021  -0.122  22.432  0.00  0.00    +0.021 A 
ENDBRANCH  14  15
ENDBRANCH  10  11
BRANCH  23  24
ATOM     24  C   UNL     1      -1.925   0.383  24.173  0.00  0.00    +0.262 C 
ATOM     25  O   UNL     1      -2.631   0.181  23.797  0.00  0.00    -0.271 OA
ATOM     26  N   UNL     1      -1.748   1.175  24.318  0.00  0.00    -0.196 NA
BRANCH  26  27
ATOM     27  C   UNL     1      -2.276   1.766  24.088  0.00  0.00    +0.179 C 
BRANCH  27  35
ATOM     35  C   UNL     1      -2.343   1.971  23.291  0.00  0.00    +0.281 C 
ATOM     36  N   UNL     1      -3.071   1.902  22.908  0.00  0.00    -0.086 NA
ATOM     37  O   UNL     1      -1.683   2.245  22.879  0.00  0.00    -0.270 OA
ENDBRANCH  27  35
BRANCH  27  28
ATOM     28  C   UNL     1      -2.736   2.151  24.653  0.00  0.00    +0.057 C 
BRANCH  28  29
ATOM     29  C   UNL     1      -2.451   2.831  25.025  0.00  0.00    -0.020 A 
ATOM     30  C   UNL     1      -1.749   2.801  25.457  0.00  0.00    -0.004 A 
ATOM     31  C   UNL     1      -1.464   3.480  25.828  0.00  0.00    -0.000 A 
ATOM     32  C   UNL     1      -1.881   4.190  25.767  0.00  0.00    -0.000 A 
ATOM     33  C   UNL     1      -2.583   4.219  25.335  0.00  0.00    -0.000 A 
ATOM     34  C   UNL     1      -2.869   3.539  24.963  0.00  0.00    -0.004 A 
ENDBRANCH  28  29
ENDBRANCH  27  28
ENDBRANCH  26  27
ENDBRANCH  23  24
TORSDOF 8
ENDMDL
MODEL 10
REMARK VINA RESULT:     -10.8      1.361      3.602
REMARK  Name = 
REMARK  8 active torsions:
REMARK  status: ('A' for Active; 'I' for Inactive)
REMARK    1  A    between atoms: C_4  and  C_5
REMARK    2  A    between atoms: C_10  and  N_11
REMARK    3  A    between atoms: N_14  and  C_15
REMARK    4  A    between atoms: C_23  and  C_24
REMARK    5  A    between atoms: N_26  and  C_27
REMARK    6  A    between atoms: C_27  and  C_28
REMARK    7  A    between atoms: C_27  and  C_35
REMARK    8  A    between atoms: C_28  and  C_29
REMARK                            x       y       z     vdW  Elec       q    Type
REMARK                         _______ _______ _______ _____ _____    ______ ____
ROOT
ATOM      5  C   UNL     1      -3.260   3.415  25.304  0.00  0.00    +0.249 C 
ATOM      6  O   UNL     1      -3.889   3.876  25.572  0.00  0.00    -0.270 OA
ATOM      7  N   UNL     1      -3.384   2.626  25.097  0.00  0.00    -0.268 N 
ATOM      8  C   UNL     1      -4.104   2.224  25.129  0.00  0.00    +0.096 C 
ATOM      9  C   UNL     1      -3.975   1.450  24.874  0.00  0.00    +0.045 C 
ATOM     10  C   UNL     1      -3.176   1.374  24.684  0.00  0.00    +0.126 C 
ATOM     23  C   UNL     1      -2.810   2.101  24.822  0.00  0.00    +0.174 C 
ENDROOT
BRANCH   5   4
ATOM      1  C   UNL     1      -3.002   4.979  25.760  0.00  0.00    +0.027 C 
ATOM      2  C   UNL     1      -2.376   4.525  25.471  0.00  0.00    -0.039 C 
ATOM      3  C   UNL     1      -1.621   4.854  25.410  0.00  0.00    +0.027 C 
ATOM      4  C   UNL     1      -2.505   3.743  25.243  0.00  0.00    +0.049 C 
ENDBRANCH   5   4
BRANCH  10  11
ATOM     11  N   UNL     1      -2.807   0.691  24.405  0.00  0.00    -0.186 NA
ATOM     12  C   UNL     1      -3.201  -0.033  24.436  0.00  0.00    +0.344 C 
ATOM     13  O   UNL     1      -3.964  -0.074  24.746  0.00  0.00    -0.249 OA
ATOM     14  N   UNL     1      -2.832  -0.716  24.156  0.00  0.00    -0.159 NA
BRANCH  14  15
ATOM     15  C   UNL     1      -3.227  -1.441  24.188  0.00  0.00    +0.102 A 
ATOM     16  C   UNL     1      -2.878  -2.084  24.568  0.00  0.00    +0.158 A 
ATOM     17  F   UNL     1      -2.135  -2.004  24.917  0.00  0.00    -0.203 F 
ATOM     18  C   UNL     1      -3.273  -2.807  24.599  0.00  0.00    +0.061 A 
ATOM     19  C   UNL     1      -4.016  -2.888  24.250  0.00  0.00    +0.142 A 
ATOM     20  F   UNL     1      -4.410  -3.611  24.281  0.00  0.00    -0.204 F 
ATOM     21  C   UNL     1      -4.365  -2.245  23.869  0.00  0.00    +0.031 A 
ATOM     22  C   UNL     1      -3.970  -1.520  23.838  0.00  0.00    +0.021 A 
ENDBRANCH  14  15
ENDBRANCH  10  11
BRANCH  23  24
ATOM     24  C   UNL     1      -2.012   2.272  24.705  0.00  0.00    +0.262 C 
ATOM     25  O   UNL     1      -1.792   2.919  24.244  0.00  0.00    -0.271 OA
ATOM     26  N   UNL     1      -1.433   1.795  25.050  0.00  0.00    -0.196 NA
BRANCH  26  27
ATOM     27  C   UNL     1      -0.635   1.966  24.934  0.00  0.00    +0.179 C 
BRANCH  27  35
ATOM     35  C   UNL     1      -0.144   2.105  25.584  0.00  0.00    +0.281 C 
ATOM     36  N   UNL     1      -0.228   1.650  26.267  0.00  0.00    -0.086 NA
ATOM     37  O   UNL     1       0.428   2.697  25.549  0.00  0.00    -0.270 OA
ENDBRANCH  27  35
BRANCH  27  28
ATOM     28  C   UNL     1      -0.326   1.998  24.171  0.00  0.00    +0.057 C 
BRANCH  28  29
ATOM     29  C   UNL     1       0.188   1.408  23.908  0.00  0.00    -0.020 A 
ATOM     30  C   UNL     1       0.987   1.578  23.795  0.00  0.00    -0.004 A 
ATOM     31  C   UNL     1       1.501   0.989  23.533  0.00  0.00    -0.000 A 
ATOM     32  C   UNL     1       1.216   0.229  23.383  0.00  0.00    -0.000 A 
ATOM     33  C   UNL     1       0.417   0.059  23.496  0.00  0.00    -0.000 A 
ATOM     34  C   UNL     1      -0.098   0.649  23.759  0.00  0.00    -0.004 A 
ENDBRANCH  28  29
ENDBRANCH  27  28
ENDBRANCH  26  27
ENDBRANCH  23  24
TORSDOF 8
ENDMDL
