MODEL 1
REMARK VINA RESULT:      -9.7      0.000      0.000
REMARK  Name = 
REMARK  9 active torsions:
REMARK  status: ('A' for Active; 'I' for Inactive)
REMARK    1  A    between atoms: C_2  and  N_3
REMARK    2  A    between atoms: N_3  and  C_4
REMARK    3  A    between atoms: N_3  and  C_6
REMARK    4  A    between atoms: C_6  and  C_7
REMARK    5  A    between atoms: C_7  and  C_8
REMARK    6  A    between atoms: C_13  and  C_14
REMARK    7  A    between atoms: C_14  and  C_15
REMARK    8  A    between atoms: C_18  and  C_20
REMARK    9  A    between atoms: C_23  and  O_24
REMARK                            x       y       z     vdW  Elec       q    Type
REMARK                         _______ _______ _______ _____ _____    ______ ____
ROOT
ATOM      8  C   UNL     1      -3.710   0.614  24.804  0.00  0.00    +0.022 C 
ATOM      9  C   UNL     1      -2.898   0.758  24.772  0.00  0.00    +0.094 C 
ATOM     10  N   UNL     1      -2.612   1.528  24.835  0.00  0.00    -0.276 N 
ATOM     11  C   UNL     1      -3.138   2.157  24.931  0.00  0.00    +0.094 C 
ATOM     12  C   UNL     1      -3.949   2.015  24.964  0.00  0.00    +0.022 C 
ATOM     13  C   UNL     1      -4.236   1.244  24.900  0.00  0.00    +0.015 C 
ATOM     18  C   UNL     1      -1.800   1.671  24.802  0.00  0.00    +0.249 C 
ATOM     19  O   UNL     1      -1.274   1.043  24.706  0.00  0.00    -0.270 OA
ENDROOT
BRANCH  18  20
ATOM     20  C   UNL     1      -1.514   2.442  24.866  0.00  0.00    +0.054 A 
ATOM     21  C   UNL     1      -1.370   2.887  24.186  0.00  0.00    +0.008 A 
ATOM     22  C   UNL     1      -1.084   3.657  24.249  0.00  0.00    +0.037 A 
ATOM     23  C   UNL     1      -0.941   3.984  24.994  0.00  0.00    +0.139 A 
ATOM     26  C   UNL     1      -1.084   3.540  25.673  0.00  0.00    +0.037 A 
ATOM     27  C   UNL     1      -1.370   2.769  25.610  0.00  0.00    +0.008 A 
BRANCH  23  24
ATOM     24  O   UNL     1      -0.654   4.756  25.057  0.00  0.00    -0.471 OA
ATOM     25  C   UNL     1      -1.167   5.395  24.972  0.00  0.00    +0.252 C 
ENDBRANCH  23  24
ENDBRANCH  18  20
BRANCH   8   7
ATOM      7  C   UNL     1      -3.996  -0.156  24.741  0.00  0.00    +0.019 C 
BRANCH   7   6
ATOM      6  C   UNL     1      -3.478  -0.778  24.580  0.00  0.00    +0.072 C 
BRANCH   6   3
ATOM      3  N   UNL     1      -3.763  -1.550  24.526  0.00  0.00    -0.273 NA
BRANCH   3   2
ATOM      1  C   UNL     1      -4.311  -2.553  23.669  0.00  0.00    +0.019 C 
ATOM      2  C   UNL     1      -4.260  -1.765  23.904  0.00  0.00    +0.072 C 
ENDBRANCH   3   2
BRANCH   3   4
ATOM      4  C   UNL     1      -3.550  -2.108  25.095  0.00  0.00    +0.072 C 
ATOM      5  C   UNL     1      -2.806  -2.462  25.068  0.00  0.00    +0.019 C 
ENDBRANCH   3   4
ENDBRANCH   6   3
ENDBRANCH   7   6
ENDBRANCH   8   7
BRANCH  13  14
ATOM     14  C   UNL     1      -5.048   1.101  24.933  0.00  0.00    +0.114 C 
BRANCH  14  15
ATOM     15  C   UNL     1      -5.566   1.712  25.129  0.00  0.00    +0.365 C 
ATOM     16  O   UNL     1      -5.771   1.843  25.917  0.00  0.00    -0.246 OA
ATOM     17  O   UNL     1      -5.881   2.193  24.536  0.00  0.00    -0.246 OA
ENDBRANCH  14  15
ENDBRANCH  13  14
TORSDOF 9
ENDMDL
MODEL 2
REMARK VINA RESULT:      -9.5      1.290      4.736
REMARK  Name = 
REMARK  9 active torsions:
REMARK  status: ('A' for Active; 'I' for Inactive)
REMARK    1  A    between atoms: C_2  and  N_3
REMARK    2  A    between atoms: N_3  and  C_4
REMARK    3  A    between atoms: N_3  and  C_6
REMARK    4  A    between atoms: C_6  and  C_7
REMARK    5  A    between atoms: C_7  and  C_8
REMARK    6  A    between atoms: C_13  and  C_14
REMARK    7  A    between atoms: C_14  and  C_15
REMARK    8  A    between atoms: C_18  and  C_20
REMARK    9  A    between atoms: C_23  and  O_24
REMARK                            x       y       z     vdW  Elec       q    Type
REMARK                         _______ _______ _______ _____ _____    ______ ____
ROOT
ATOM      8  C   UNL     1      -3.313   2.436  24.983  0.00  0.00    +0.022 C 
ATOM      9  C   UNL     1      -2.871   1.766  24.792  0.00  0.00    +0.094 C 
ATOM     10  N   UNL     1      -3.241   1.031  24.733  0.00  0.00    -0.276 N 
ATOM     11  C   UNL     1      -4.054   0.966  24.864  0.00  0.00    +0.094 C 
ATOM     12  C   UNL     1      -4.495   1.636  25.055  0.00  0.00    +0.022 C 
ATOM     13  C   UNL     1      -4.126   2.371  25.115  0.00  0.00    +0.015 C 
ATOM     18  C   UNL     1      -2.800   0.361  24.542  0.00  0.00    +0.249 C 
ATOM     19  O   UNL     1      -1.988   0.425  24.411  0.00  0.00    -0.270 OA
ENDROOT
BRANCH  18  20
ATOM     20  C   UNL     1      -3.169  -0.374  24.482  0.00  0.00    +0.054 A 
ATOM     21  C   UNL     1      -3.157  -0.896  25.121  0.00  0.00    +0.008 A 
ATOM     22  C   UNL     1      -3.526  -1.630  25.062  0.00  0.00    +0.037 A 
ATOM     23  C   UNL     1      -3.910  -1.844  24.362  0.00  0.00    +0.139 A 
ATOM     26  C   UNL     1      -3.923  -1.323  23.723  0.00  0.00    +0.037 A 
ATOM     27  C   UNL     1      -3.553  -0.587  23.783  0.00  0.00    +0.008 A 
BRANCH  23  24
ATOM     24  O   UNL     1      -4.280  -2.579  24.303  0.00  0.00    -0.471 OA
ATOM     25  C   UNL     1      -3.829  -3.261  24.197  0.00  0.00    +0.252 C 
ENDBRANCH  23  24
ENDBRANCH  18  20
BRANCH   8   7
ATOM      7  C   UNL     1      -2.943   3.171  25.043  0.00  0.00    +0.019 C 
BRANCH   7   6
ATOM      6  C   UNL     1      -2.172   3.223  25.331  0.00  0.00    +0.072 C 
BRANCH   6   3
ATOM      3  N   UNL     1      -1.727   3.904  25.199  0.00  0.00    -0.273 NA
BRANCH   3   2
ATOM      1  C   UNL     1      -1.652   5.331  25.167  0.00  0.00    +0.019 C 
ATOM      2  C   UNL     1      -2.019   4.640  25.429  0.00  0.00    +0.072 C 
ENDBRANCH   3   2
BRANCH   3   4
ATOM      4  C   UNL     1      -0.988   3.849  24.835  0.00  0.00    +0.072 C 
ATOM      5  C   UNL     1      -0.349   3.526  25.245  0.00  0.00    +0.019 C 
ENDBRANCH   3   4
ENDBRANCH   6   3
ENDBRANCH   7   6
ENDBRANCH   8   7
BRANCH  13  14
ATOM     14  C   UNL     1      -4.567   3.041  25.306  0.00  0.00    +0.114 C 
BRANCH  14  15
ATOM     15  C   UNL     1      -5.347   2.961  25.562  0.00  0.00    +0.365 C 
ATOM     16  O   UNL     1      -5.957   2.886  25.011  0.00  0.00    -0.246 OA
ATOM     17  O   UNL     1      -5.518   2.957  26.369  0.00  0.00    -0.246 OA
ENDBRANCH  14  15
ENDBRANCH  13  14
TORSDOF 9
ENDMDL
MODEL 3
REMARK VINA RESULT:      -9.1      1.551      5.317
REMARK  Name = 
REMARK  9 active torsions:
REMARK  status: ('A' for Active; 'I' for Inactive)
REMARK    1  A    between atoms: C_2  and  N_3
REMARK    2  A    between atoms: N_3  and  C_4
REMARK    3  A    between atoms: N_3  and  C_6
REMARK    4  A    between atoms: C_6  and  C_7
REMARK    5  A    between atoms: C_7  and  C_8
REMARK    6  A    between atoms: C_13  and  C_14
REMARK    7  A    between atoms: C_14  and  C_15
REMARK    8  A    between atoms: C_18  and  C_20
REMARK    9  A    between atoms: C_23  and  O_24
REMARK                            x       y       z     vdW  Elec       q    Type
REMARK                         _______ _______ _______ _____ _____    ______ ____
ROOT
ATOM      8  C   UNL     1      -1.984   1.924  24.659  0.00  0.00    +0.022 C 
ATOM      9  C   UNL     1      -2.715   1.579  24.826  0.00  0.00    +0.094 C 
ATOM     10  N   UNL     1      -2.826   0.770  24.710  0.00  0.00    -0.276 N 
ATOM     11  C   UNL     1      -2.205   0.305  24.427  0.00  0.00    +0.094 C 
ATOM     12  C   UNL     1      -1.475   0.649  24.260  0.00  0.00    +0.022 C 
ATOM     13  C   UNL     1      -1.363   1.458  24.375  0.00  0.00    +0.015 C 
ATOM     18  C   UNL     1      -3.557   0.425  24.877  0.00  0.00    +0.249 C 
ATOM     19  O   UNL     1      -4.177   0.891  25.160  0.00  0.00    -0.270 OA
ENDROOT
BRANCH  18  20
ATOM     20  C   UNL     1      -3.668  -0.383  24.762  0.00  0.00    +0.054 A 
ATOM     21  C   UNL     1      -3.489  -0.916  25.366  0.00  0.00    +0.008 A 
ATOM     22  C   UNL     1      -3.600  -1.724  25.250  0.00  0.00    +0.037 A 
ATOM     23  C   UNL     1      -3.891  -2.002  24.529  0.00  0.00    +0.139 A 
ATOM     26  C   UNL     1      -4.070  -1.470  23.925  0.00  0.00    +0.037 A 
ATOM     27  C   UNL     1      -3.958  -0.661  24.040  0.00  0.00    +0.008 A 
BRANCH  23  24
ATOM     24  O   UNL     1      -4.002  -2.811  24.413  0.00  0.00    -0.471 OA
ATOM     25  C   UNL     1      -3.351  -3.315  24.363  0.00  0.00    +0.252 C 
ENDBRANCH  23  24
ENDBRANCH  18  20
BRANCH   8   7
ATOM      7  C   UNL     1      -1.873   2.732  24.775  0.00  0.00    +0.019 C 
BRANCH   7   6
ATOM      6  C   UNL     1      -2.477   3.190  25.100  0.00  0.00    +0.072 C 
BRANCH   6   3
ATOM      3  N   UNL     1      -2.320   3.957  25.360  0.00  0.00    -0.273 NA
BRANCH   3   2
ATOM      1  C   UNL     1      -3.372   4.239  26.286  0.00  0.00    +0.019 C 
ATOM      2  C   UNL     1      -2.568   4.198  26.110  0.00  0.00    +0.072 C 
ENDBRANCH   3   2
BRANCH   3   4
ATOM      4  C   UNL     1      -1.916   4.483  24.871  0.00  0.00    +0.072 C 
ATOM      5  C   UNL     1      -1.575   5.164  25.189  0.00  0.00    +0.019 C 
ENDBRANCH   3   4
ENDBRANCH   6   3
ENDBRANCH   7   6
ENDBRANCH   8   7
BRANCH  13  14
ATOM     14  C   UNL     1      -0.633   1.802  24.208  0.00  0.00    +0.114 C 
BRANCH  14  15
ATOM     15  C   UNL     1       0.052   1.343  24.222  0.00  0.00    +0.365 C 
ATOM     16  O   UNL     1       0.518   1.316  24.901  0.00  0.00    -0.246 OA
ATOM     17  O   UNL     1       0.271   0.909  23.554  0.00  0.00    -0.246 OA
ENDBRANCH  14  15
ENDBRANCH  13  14
TORSDOF 9
ENDMDL
MODEL 4
REMARK VINA RESULT:      -8.2      1.273      2.754
REMARK  Name = 
REMARK  9 active torsions:
REMARK  status: ('A' for Active; 'I' for Inactive)
REMARK    1  A    between atoms: C_2  and  N_3
REMARK    2  A    between atoms: N_3  and  C_4
REMARK    3  A    between atoms: N_3  and  C_6
REMARK    4  A    between atoms: C_6  and  C_7
REMARK    5  A    between atoms: C_7  and  C_8
REMARK    6  A    between atoms: C_13  and  C_14
REMARK    7  A    between atoms: C_14  and  C_15
REMARK    8  A    between atoms: C_18  and  C_20
REMARK    9  A    between atoms: C_23  and  O_24
REMARK                            x       y       z     vdW  Elec       q    Type
REMARK                         _______ _______ _______ _____ _____    ______ ____
ROOT
ATOM      8  C   UNL     1      -2.222   0.175  24.391  0.00  0.00    +0.022 C 
ATOM      9  C   UNL     1      -2.719   0.777  24.659  0.00  0.00    +0.094 C 
ATOM     10  N   UNL     1      -2.426   1.542  24.755  0.00  0.00    -0.276 N 
ATOM     11  C   UNL     1      -1.635   1.706  24.583  0.00  0.00    +0.094 C 
ATOM     12  C   UNL     1      -1.138   1.105  24.315  0.00  0.00    +0.022 C 
ATOM     13  C   UNL     1      -1.431   0.339  24.219  0.00  0.00    +0.015 C 
ATOM     18  C   UNL     1      -2.923   2.144  25.023  0.00  0.00    +0.249 C 
ATOM     19  O   UNL     1      -3.713   1.980  25.195  0.00  0.00    -0.270 OA
ENDROOT
BRANCH  18  20
ATOM     20  C   UNL     1      -2.631   2.908  25.120  0.00  0.00    +0.054 A 
ATOM     21  C   UNL     1      -2.745   3.472  24.528  0.00  0.00    +0.008 A 
ATOM     22  C   UNL     1      -2.452   4.237  24.624  0.00  0.00    +0.037 A 
ATOM     23  C   UNL     1      -2.045   4.439  25.313  0.00  0.00    +0.139 A 
ATOM     26  C   UNL     1      -1.931   3.877  25.905  0.00  0.00    +0.037 A 
ATOM     27  C   UNL     1      -2.223   3.111  25.809  0.00  0.00    +0.008 A 
BRANCH  23  24
ATOM     24  O   UNL     1      -1.752   5.205  25.409  0.00  0.00    -0.471 OA
ATOM     25  C   UNL     1      -1.087   5.449  24.987  0.00  0.00    +0.252 C 
ENDBRANCH  23  24
ENDBRANCH  18  20
BRANCH   8   7
ATOM      7  C   UNL     1      -2.514  -0.590  24.295  0.00  0.00    +0.019 C 
BRANCH   7   6
ATOM      6  C   UNL     1      -3.144  -0.853  24.758  0.00  0.00    +0.072 C 
BRANCH   6   3
ATOM      3  N   UNL     1      -3.510  -1.572  24.589  0.00  0.00    -0.273 NA
BRANCH   3   2
ATOM      1  C   UNL     1      -3.388  -2.472  25.692  0.00  0.00    +0.019 C 
ATOM      2  C   UNL     1      -3.214  -2.272  24.911  0.00  0.00    +0.072 C 
ENDBRANCH   3   2
BRANCH   3   4
ATOM      4  C   UNL     1      -4.171  -1.592  24.096  0.00  0.00    +0.072 C 
ATOM      5  C   UNL     1      -4.379  -2.292  23.713  0.00  0.00    +0.019 C 
ENDBRANCH   3   4
ENDBRANCH   6   3
ENDBRANCH   7   6
ENDBRANCH   8   7
BRANCH  13  14
ATOM     14  C   UNL     1      -0.934  -0.262  23.951  0.00  0.00    +0.114 C 
BRANCH  14  15
ATOM     15  C   UNL     1      -0.120  -0.134  23.905  0.00  0.00    +0.365 C 
ATOM     16  O   UNL     1       0.206   0.215  23.232  0.00  0.00    -0.246 OA
ATOM     17  O   UNL     1       0.369  -0.355  24.533  0.00  0.00    -0.246 OA
ENDBRANCH  14  15
ENDBRANCH  13  14
TORSDOF 9
ENDMDL
