MODEL 1
REMARK VINA RESULT:     -11.5      0.000      0.000
REMARK  Name = 
REMARK  6 active torsions:
REMARK  status: ('A' for Active; 'I' for Inactive)
REMARK    1  A    between atoms: C_2  and  O_14
REMARK    2  A    between atoms: N_3  and  C_4
REMARK    3  A    between atoms: O_14  and  C_15
REMARK    4  A    between atoms: C_19  and  N_23
REMARK    5  A    between atoms: N_23  and  C_24
REMARK    6  A    between atoms: C_24  and  C_25
REMARK                            x       y       z     vdW  Elec       q    Type
REMARK                         _______ _______ _______ _____ _____    ______ ____
ROOT
ATOM     15  C   UNL     1      -0.478   1.001  24.801  0.00  0.00    +0.229 C 
ATOM     16  C   UNL     1      -0.577   0.866  23.993  0.00  0.00    +0.188 C 
ATOM     17  O   UNL     1      -1.033   0.184  23.902  0.00  0.00    -0.348 OA
ATOM     18  C   UNL     1      -1.216  -0.102  24.653  0.00  0.00    +0.164 C 
ATOM     19  C   UNL     1      -1.610  -0.701  25.062  0.00  0.00    +0.132 C 
ATOM     20  C   UNL     1      -1.511  -0.565  25.871  0.00  0.00    +0.162 C 
ATOM     21  O   UNL     1      -1.056   0.116  25.961  0.00  0.00    -0.348 OA
ATOM     22  C   UNL     1      -0.873   0.403  25.209  0.00  0.00    +0.186 C 
ENDROOT
BRANCH  15  14
ATOM     14  O   UNL     1      -0.058   1.625  25.140  0.00  0.00    -0.432 OA
BRANCH  14   2
ATOM      1  O   UNL     1      -0.025   2.714  24.216  0.00  0.00    -0.224 OA
ATOM      2  C   UNL     1      -0.249   2.403  24.947  0.00  0.00    +0.425 C 
ATOM      3  N   UNL     1      -0.665   2.872  25.484  0.00  0.00    -0.142 NA
BRANCH   3   4
ATOM      4  C   UNL     1      -0.856   3.651  25.291  0.00  0.00    +0.077 A 
ATOM      5  C   UNL     1      -0.319   4.114  24.868  0.00  0.00    +0.017 A 
ATOM      6  C   UNL     1      -0.509   4.893  24.674  0.00  0.00    +0.001 A 
ATOM      7  C   UNL     1      -1.236   5.209  24.902  0.00  0.00    +0.000 A 
ATOM      8  C   UNL     1      -1.773   4.746  25.325  0.00  0.00    +0.001 A 
ATOM      9  C   UNL     1      -2.499   5.062  25.554  0.00  0.00    +0.000 A 
ATOM     10  C   UNL     1      -3.036   4.599  25.976  0.00  0.00    +0.000 A 
ATOM     11  C   UNL     1      -2.845   3.820  26.170  0.00  0.00    +0.000 A 
ATOM     12  C   UNL     1      -2.119   3.504  25.942  0.00  0.00    +0.001 A 
ATOM     13  C   UNL     1      -1.583   3.967  25.519  0.00  0.00    +0.015 A 
ENDBRANCH   3   4
ENDBRANCH  14   2
ENDBRANCH  15  14
BRANCH  19  23
ATOM     23  N   UNL     1      -2.030  -1.324  24.723  0.00  0.00    -0.206 NA
BRANCH  23  24
ATOM     24  C   UNL     1      -2.744  -1.569  25.055  0.00  0.00    +0.153 C 
BRANCH  24  25
ATOM     25  C   UNL     1      -3.263  -2.038  24.617  0.00  0.00    +0.141 A 
ATOM     26  C   UNL     1      -3.928  -1.772  24.206  0.00  0.00    +0.038 A 
ATOM     27  C   UNL     1      -4.284  -2.424  23.849  0.00  0.00    +0.043 A 
ATOM     28  C   UNL     1      -3.841  -3.093  24.039  0.00  0.00    +0.179 A 
ATOM     29  O   UNL     1      -3.210  -2.854  24.514  0.00  0.00    -0.453 OA
ENDBRANCH  24  25
ENDBRANCH  23  24
ENDBRANCH  19  23
TORSDOF 6
ENDMDL
MODEL 2
REMARK VINA RESULT:     -10.8      1.023      5.531
REMARK  Name = 
REMARK  6 active torsions:
REMARK  status: ('A' for Active; 'I' for Inactive)
REMARK    1  A    between atoms: C_2  and  O_14
REMARK    2  A    between atoms: N_3  and  C_4
REMARK    3  A    between atoms: O_14  and  C_15
REMARK    4  A    between atoms: C_19  and  N_23
REMARK    5  A    between atoms: N_23  and  C_24
REMARK    6  A    between atoms: C_24  and  C_25
REMARK                            x       y       z     vdW  Elec       q    Type
REMARK                         _______ _______ _______ _____ _____    ______ ____
ROOT
ATOM     15  C   UNL     1      -0.527   0.266  24.852  0.00  0.00    +0.229 C 
ATOM     16  C   UNL     1      -0.472   0.516  24.068  0.00  0.00    +0.188 C 
ATOM     17  O   UNL     1      -0.476   1.341  24.062  0.00  0.00    -0.348 OA
ATOM     18  C   UNL     1      -0.533   1.601  24.842  0.00  0.00    +0.164 C 
ATOM     19  C   UNL     1      -0.571   2.271  25.322  0.00  0.00    +0.132 C 
ATOM     20  C   UNL     1      -0.626   2.021  26.106  0.00  0.00    +0.162 C 
ATOM     21  O   UNL     1      -0.622   1.196  26.112  0.00  0.00    -0.348 OA
ATOM     22  C   UNL     1      -0.565   0.936  25.330  0.00  0.00    +0.186 C 
ENDROOT
BRANCH  15  14
ATOM     14  O   UNL     1      -0.542  -0.517  25.111  0.00  0.00    -0.432 OA
BRANCH  14   2
ATOM      1  O   UNL     1      -0.821  -1.469  24.082  0.00  0.00    -0.224 OA
ATOM      2  C   UNL     1      -1.055  -1.059  24.758  0.00  0.00    +0.425 C 
ATOM      3  N   UNL     1      -1.802  -1.190  25.083  0.00  0.00    -0.142 NA
BRANCH   3   4
ATOM      4  C   UNL     1      -2.315  -1.732  24.730  0.00  0.00    +0.077 A 
ATOM      5  C   UNL     1      -2.047  -2.488  24.538  0.00  0.00    +0.017 A 
ATOM      6  C   UNL     1      -2.559  -3.031  24.185  0.00  0.00    +0.001 A 
ATOM      7  C   UNL     1      -3.339  -2.816  24.024  0.00  0.00    +0.000 A 
ATOM      8  C   UNL     1      -3.607  -2.059  24.216  0.00  0.00    +0.001 A 
ATOM      9  C   UNL     1      -4.387  -1.845  24.055  0.00  0.00    +0.000 A 
ATOM     10  C   UNL     1      -4.655  -1.088  24.246  0.00  0.00    +0.000 A 
ATOM     11  C   UNL     1      -4.142  -0.547  24.599  0.00  0.00    +0.000 A 
ATOM     12  C   UNL     1      -3.362  -0.761  24.760  0.00  0.00    +0.001 A 
ATOM     13  C   UNL     1      -3.095  -1.517  24.569  0.00  0.00    +0.015 A 
ENDBRANCH   3   4
ENDBRANCH  14   2
ENDBRANCH  15  14
BRANCH  19  23
ATOM     23  N   UNL     1      -0.556   3.054  25.063  0.00  0.00    -0.206 NA
BRANCH  23  24
ATOM     24  C   UNL     1      -0.881   3.650  25.532  0.00  0.00    +0.153 C 
BRANCH  24  25
ATOM     25  C   UNL     1      -0.995   4.405  25.219  0.00  0.00    +0.141 A 
ATOM     26  C   UNL     1      -1.688   4.851  25.268  0.00  0.00    +0.038 A 
ATOM     27  C   UNL     1      -1.557   5.568  24.882  0.00  0.00    +0.043 A 
ATOM     28  C   UNL     1      -0.784   5.566  24.595  0.00  0.00    +0.179 A 
ATOM     29  O   UNL     1      -0.437   4.847  24.803  0.00  0.00    -0.453 OA
ENDBRANCH  24  25
ENDBRANCH  23  24
ENDBRANCH  19  23
TORSDOF 6
ENDMDL
MODEL 3
REMARK VINA RESULT:     -10.7      1.915      6.020
REMARK  Name = 
REMARK  6 active torsions:
REMARK  status: ('A' for Active; 'I' for Inactive)
REMARK    1  A    between atoms: C_2  and  O_14
REMARK    2  A    between atoms: N_3  and  C_4
REMARK    3  A    between atoms: O_14  and  C_15
REMARK    4  A    between atoms: C_19  and  N_23
REMARK    5  A    between atoms: N_23  and  C_24
REMARK    6  A    between atoms: C_24  and  C_25
REMARK                            x       y       z     vdW  Elec       q    Type
REMARK                         _______ _______ _______ _____ _____    ______ ____
ROOT
ATOM     15  C   UNL     1      -4.120   1.360  24.527  0.00  0.00    +0.229 C 
ATOM     16  C   UNL     1      -3.685   1.468  23.835  0.00  0.00    +0.188 C 
ATOM     17  O   UNL     1      -3.310   2.202  23.881  0.00  0.00    -0.348 OA
ATOM     18  C   UNL     1      -3.514   2.547  24.602  0.00  0.00    +0.164 C 
ATOM     19  C   UNL     1      -3.409   3.214  25.076  0.00  0.00    +0.132 C 
ATOM     20  C   UNL     1      -3.845   3.106  25.769  0.00  0.00    +0.162 C 
ATOM     21  O   UNL     1      -4.219   2.372  25.722  0.00  0.00    -0.348 OA
ATOM     22  C   UNL     1      -4.015   2.027  25.001  0.00  0.00    +0.186 C 
ENDROOT
BRANCH  15  14
ATOM     14  O   UNL     1      -4.580   0.701  24.713  0.00  0.00    -0.432 OA
BRANCH  14   2
ATOM      1  O   UNL     1      -4.540  -0.264  23.659  0.00  0.00    -0.224 OA
ATOM      2  C   UNL     1      -4.363  -0.045  24.435  0.00  0.00    +0.425 C 
ATOM      3  N   UNL     1      -3.969  -0.572  24.933  0.00  0.00    -0.142 NA
BRANCH   3   4
ATOM      4  C   UNL     1      -3.752  -1.318  24.654  0.00  0.00    +0.077 A 
ATOM      5  C   UNL     1      -4.294  -1.773  24.229  0.00  0.00    +0.017 A 
ATOM      6  C   UNL     1      -4.078  -2.519  23.950  0.00  0.00    +0.001 A 
ATOM      7  C   UNL     1      -3.319  -2.809  24.097  0.00  0.00    +0.000 A 
ATOM      8  C   UNL     1      -2.778  -2.354  24.522  0.00  0.00    +0.001 A 
ATOM      9  C   UNL     1      -2.020  -2.645  24.668  0.00  0.00    +0.000 A 
ATOM     10  C   UNL     1      -1.478  -2.190  25.093  0.00  0.00    +0.000 A 
ATOM     11  C   UNL     1      -1.695  -1.444  25.371  0.00  0.00    +0.000 A 
ATOM     12  C   UNL     1      -2.453  -1.153  25.225  0.00  0.00    +0.001 A 
ATOM     13  C   UNL     1      -2.994  -1.608  24.800  0.00  0.00    +0.015 A 
ENDBRANCH   3   4
ENDBRANCH  14   2
ENDBRANCH  15  14
BRANCH  19  23
ATOM     23  N   UNL     1      -2.949   3.873  24.891  0.00  0.00    -0.206 NA
BRANCH  23  24
ATOM     24  C   UNL     1      -2.433   4.186  25.453  0.00  0.00    +0.153 C 
BRANCH  24  25
ATOM     25  C   UNL     1      -1.769   4.612  25.211  0.00  0.00    +0.141 A 
ATOM     26  C   UNL     1      -1.728   5.430  25.105  0.00  0.00    +0.038 A 
ATOM     27  C   UNL     1      -0.963   5.618  24.862  0.00  0.00    +0.043 A 
ATOM     28  C   UNL     1      -0.531   4.918  24.817  0.00  0.00    +0.179 A 
ATOM     29  O   UNL     1      -1.028   4.296  25.033  0.00  0.00    -0.453 OA
ENDBRANCH  24  25
ENDBRANCH  23  24
ENDBRANCH  19  23
TORSDOF 6
ENDMDL
MODEL 4
REMARK VINA RESULT:     -10.1      2.016      2.533
REMARK  Name = 
REMARK  6 active torsions:
REMARK  status: ('A' for Active; 'I' for Inactive)
REMARK    1  A    between atoms: C_2  and  O_14
REMARK    2  A    between atoms: N_3  and  C_4
REMARK    3  A    between atoms: O_14  and  C_15
REMARK    4  A    between atoms: C_19  and  N_23
REMARK    5  A    between atoms: N_23  and  C_24
REMARK    6  A    between atoms: C_24  and  C_25
REMARK                            x       y       z     vdW  Elec       q    Type
REMARK                         _______ _______ _______ _____ _____    ______ ____
ROOT
ATOM     15  C   UNL     1      -4.011   2.187  24.414  0.00  0.00    +0.229 C 
ATOM     16  C   UNL     1      -3.730   1.978  23.667  0.00  0.00    +0.188 C 
ATOM     17  O   UNL     1      -3.802   1.160  23.588  0.00  0.00    -0.348 OA
ATOM     18  C   UNL     1      -4.127   0.864  24.285  0.00  0.00    +0.164 C 
ATOM     19  C   UNL     1      -4.372   0.175  24.668  0.00  0.00    +0.132 C 
ATOM     20  C   UNL     1      -4.653   0.384  25.415  0.00  0.00    +0.162 C 
ATOM     21  O   UNL     1      -4.581   1.202  25.494  0.00  0.00    -0.348 OA
ATOM     22  C   UNL     1      -4.256   1.499  24.796  0.00  0.00    +0.186 C 
ENDROOT
BRANCH  15  14
ATOM     14  O   UNL     1      -4.041   2.951  24.725  0.00  0.00    -0.432 OA
BRANCH  14   2
ATOM      1  O   UNL     1      -3.286   3.937  24.017  0.00  0.00    -0.224 OA
ATOM      2  C   UNL     1      -3.381   3.444  24.672  0.00  0.00    +0.425 C 
ATOM      3  N   UNL     1      -2.816   3.443  25.273  0.00  0.00    -0.142 NA
BRANCH   3   4
ATOM      4  C   UNL     1      -2.156   3.935  25.220  0.00  0.00    +0.077 A 
ATOM      5  C   UNL     1      -2.247   4.721  24.986  0.00  0.00    +0.017 A 
ATOM      6  C   UNL     1      -1.588   5.215  24.932  0.00  0.00    +0.001 A 
ATOM      7  C   UNL     1      -0.838   4.922  25.113  0.00  0.00    +0.000 A 
ATOM      8  C   UNL     1      -0.747   4.136  25.347  0.00  0.00    +0.001 A 
ATOM      9  C   UNL     1       0.002   3.843  25.527  0.00  0.00    +0.000 A 
ATOM     10  C   UNL     1       0.093   3.057  25.761  0.00  0.00    +0.000 A 
ATOM     11  C   UNL     1      -0.567   2.564  25.815  0.00  0.00    +0.000 A 
ATOM     12  C   UNL     1      -1.316   2.857  25.634  0.00  0.00    +0.001 A 
ATOM     13  C   UNL     1      -1.407   3.642  25.400  0.00  0.00    +0.015 A 
ENDBRANCH   3   4
ENDBRANCH  14   2
ENDBRANCH  15  14
BRANCH  19  23
ATOM     23  N   UNL     1      -4.342  -0.589  24.358  0.00  0.00    -0.206 NA
BRANCH  23  24
ATOM     24  C   UNL     1      -4.106  -1.218  24.835  0.00  0.00    +0.153 C 
BRANCH  24  25
ATOM     25  C   UNL     1      -3.948  -1.955  24.499  0.00  0.00    +0.141 A 
ATOM     26  C   UNL     1      -3.394  -2.504  24.769  0.00  0.00    +0.038 A 
ATOM     27  C   UNL     1      -3.421  -3.160  24.270  0.00  0.00    +0.043 A 
ATOM     28  C   UNL     1      -3.991  -3.017  23.692  0.00  0.00    +0.179 A 
ATOM     29  O   UNL     1      -4.317  -2.273  23.833  0.00  0.00    -0.453 OA
ENDBRANCH  24  25
ENDBRANCH  23  24
ENDBRANCH  19  23
TORSDOF 6
ENDMDL
MODEL 5
REMARK VINA RESULT:     -10.0      2.821      4.462
REMARK  Name = 
REMARK  6 active torsions:
REMARK  status: ('A' for Active; 'I' for Inactive)
REMARK    1  A    between atoms: C_2  and  O_14
REMARK    2  A    between atoms: N_3  and  C_4
REMARK    3  A    between atoms: O_14  and  C_15
REMARK    4  A    between atoms: C_19  and  N_23
REMARK    5  A    between atoms: N_23  and  C_24
REMARK    6  A    between atoms: C_24  and  C_25
REMARK                            x       y       z     vdW  Elec       q    Type
REMARK                         _______ _______ _______ _____ _____    ______ ____
ROOT
ATOM     15  C   UNL     1      -0.633   1.178  24.426  0.00  0.00    +0.229 C 
ATOM     16  C   UNL     1      -0.204   1.843  24.657  0.00  0.00    +0.188 C 
ATOM     17  O   UNL     1       0.548   1.790  24.322  0.00  0.00    -0.348 OA
ATOM     18  C   UNL     1       0.583   1.092  23.884  0.00  0.00    +0.164 C 
ATOM     19  C   UNL     1       1.069   0.627  23.406  0.00  0.00    +0.132 C 
ATOM     20  C   UNL     1       0.639  -0.039  23.176  0.00  0.00    +0.162 C 
ATOM     21  O   UNL     1      -0.112   0.015  23.511  0.00  0.00    -0.348 OA
ATOM     22  C   UNL     1      -0.147   0.714  23.949  0.00  0.00    +0.186 C 
ENDROOT
BRANCH  15  14
ATOM     14  O   UNL     1      -1.413   1.007  24.637  0.00  0.00    -0.432 OA
BRANCH  14   2
ATOM      1  O   UNL     1      -1.735   2.286  25.186  0.00  0.00    -0.224 OA
ATOM      2  C   UNL     1      -1.953   1.620  24.751  0.00  0.00    +0.425 C 
ATOM      3  N   UNL     1      -2.711   1.567  24.430  0.00  0.00    -0.142 NA
BRANCH   3   4
ATOM      4  C   UNL     1      -3.251   2.180  24.545  0.00  0.00    +0.077 A 
ATOM      5  C   UNL     1      -3.003   2.965  24.482  0.00  0.00    +0.017 A 
ATOM      6  C   UNL     1      -3.542   3.579  24.596  0.00  0.00    +0.001 A 
ATOM      7  C   UNL     1      -4.329   3.409  24.773  0.00  0.00    +0.000 A 
ATOM      8  C   UNL     1      -4.577   2.624  24.836  0.00  0.00    +0.001 A 
ATOM      9  C   UNL     1      -5.365   2.454  25.013  0.00  0.00    +0.000 A 
ATOM     10  C   UNL     1      -5.613   1.669  25.076  0.00  0.00    +0.000 A 
ATOM     11  C   UNL     1      -5.074   1.056  24.962  0.00  0.00    +0.000 A 
ATOM     12  C   UNL     1      -4.286   1.226  24.785  0.00  0.00    +0.001 A 
ATOM     13  C   UNL     1      -4.038   2.010  24.722  0.00  0.00    +0.015 A 
ENDBRANCH   3   4
ENDBRANCH  14   2
ENDBRANCH  15  14
BRANCH  19  23
ATOM     23  N   UNL     1       1.848   0.797  23.196  0.00  0.00    -0.206 NA
BRANCH  23  24
ATOM     24  C   UNL     1       2.327   0.207  22.876  0.00  0.00    +0.153 C 
BRANCH  24  25
ATOM     25  C   UNL     1       3.147   0.305  22.858  0.00  0.00    +0.141 A 
ATOM     26  C   UNL     1       3.550   0.971  22.585  0.00  0.00    +0.038 A 
ATOM     27  C   UNL     1       4.359   0.832  22.669  0.00  0.00    +0.043 A 
ATOM     28  C   UNL     1       4.455   0.080  22.993  0.00  0.00    +0.179 A 
ATOM     29  O   UNL     1       3.706  -0.246  23.110  0.00  0.00    -0.453 OA
ENDBRANCH  24  25
ENDBRANCH  23  24
ENDBRANCH  19  23
TORSDOF 6
ENDMDL
MODEL 6
REMARK VINA RESULT:      -9.3      2.604      5.569
REMARK  Name = 
REMARK  6 active torsions:
REMARK  status: ('A' for Active; 'I' for Inactive)
REMARK    1  A    between atoms: C_2  and  O_14
REMARK    2  A    between atoms: N_3  and  C_4
REMARK    3  A    between atoms: O_14  and  C_15
REMARK    4  A    between atoms: C_19  and  N_23
REMARK    5  A    between atoms: N_23  and  C_24
REMARK    6  A    between atoms: C_24  and  C_25
REMARK                            x       y       z     vdW  Elec       q    Type
REMARK                         _______ _______ _______ _____ _____    ______ ____
ROOT
ATOM     15  C   UNL     1      -0.535   0.913  23.671  0.00  0.00    +0.229 C 
ATOM     16  C   UNL     1      -0.194   1.380  24.259  0.00  0.00    +0.188 C 
ATOM     17  O   UNL     1       0.626   1.293  24.211  0.00  0.00    -0.348 OA
ATOM     18  C   UNL     1       0.790   0.773  23.593  0.00  0.00    +0.164 C 
ATOM     19  C   UNL     1       1.398   0.398  23.180  0.00  0.00    +0.132 C 
ATOM     20  C   UNL     1       1.057  -0.070  22.591  0.00  0.00    +0.162 C 
ATOM     21  O   UNL     1       0.238   0.017  22.640  0.00  0.00    -0.348 OA
ATOM     22  C   UNL     1       0.073   0.538  23.259  0.00  0.00    +0.186 C 
ENDROOT
BRANCH  15  14
ATOM     14  O   UNL     1      -1.343   0.835  23.521  0.00  0.00    -0.432 OA
BRANCH  14   2
ATOM      1  O   UNL     1      -1.872   0.958  24.843  0.00  0.00    -0.224 OA
ATOM      2  C   UNL     1      -1.848   0.568  24.116  0.00  0.00    +0.425 C 
ATOM      3  N   UNL     1      -2.330  -0.089  23.984  0.00  0.00    -0.142 NA
BRANCH   3   4
ATOM      4  C   UNL     1      -2.835  -0.355  24.579  0.00  0.00    +0.077 A 
ATOM      5  C   UNL     1      -3.228   0.188  25.061  0.00  0.00    +0.017 A 
ATOM      6  C   UNL     1      -3.733  -0.078  25.656  0.00  0.00    +0.001 A 
ATOM      7  C   UNL     1      -3.847  -0.887  25.770  0.00  0.00    +0.000 A 
ATOM      8  C   UNL     1      -3.455  -1.430  25.288  0.00  0.00    +0.001 A 
ATOM      9  C   UNL     1      -3.568  -2.239  25.401  0.00  0.00    +0.000 A 
ATOM     10  C   UNL     1      -3.176  -2.783  24.920  0.00  0.00    +0.000 A 
ATOM     11  C   UNL     1      -2.671  -2.516  24.325  0.00  0.00    +0.000 A 
ATOM     12  C   UNL     1      -2.557  -1.707  24.211  0.00  0.00    +0.001 A 
ATOM     13  C   UNL     1      -2.949  -1.165  24.693  0.00  0.00    +0.015 A 
ENDBRANCH   3   4
ENDBRANCH  14   2
ENDBRANCH  15  14
BRANCH  19  23
ATOM     23  N   UNL     1       2.205   0.475  23.330  0.00  0.00    -0.206 NA
BRANCH  23  24
ATOM     24  C   UNL     1       2.754   0.251  22.756  0.00  0.00    +0.153 C 
BRANCH  24  25
ATOM     25  C   UNL     1       3.562   0.282  22.923  0.00  0.00    +0.141 A 
ATOM     26  C   UNL     1       4.059   0.930  22.799  0.00  0.00    +0.038 A 
ATOM     27  C   UNL     1       4.818   0.720  23.043  0.00  0.00    +0.043 A 
ATOM     28  C   UNL     1       4.791  -0.057  23.318  0.00  0.00    +0.179 A 
ATOM     29  O   UNL     1       4.015  -0.327  23.244  0.00  0.00    -0.453 OA
ENDBRANCH  24  25
ENDBRANCH  23  24
ENDBRANCH  19  23
TORSDOF 6
ENDMDL
