REMARK  Name = 
REMARK  9 active torsions:
REMARK  status: ('A' for Active; 'I' for Inactive)
REMARK    1  A    between atoms: C_2  and  C_4
REMARK    2  A    between atoms: C_6  and  C_7
REMARK    3  A    between atoms: C_7  and  C_8
REMARK    4  A    between atoms: C_11  and  C_13
REMARK    5  A    between atoms: C_22  and  C_23
REMARK    6  A    between atoms: C_23  and  N_24
REMARK    7  A    between atoms: N_24  and  C_26
REMARK    8  A    between atoms: C_26  and  C_27
REMARK    9  A    between atoms: C_27  and  N_28
REMARK                            x       y       z     vdW  Elec       q    Type
REMARK                         _______ _______ _______ _____ _____    ______ ____
ROOT
ATOM      4  C   UNL     1       3.465  -2.829   0.000  0.00  0.00    +0.006 C 
ATOM      5  C   UNL     1       2.750  -2.417   0.000  0.00  0.00    +0.005 C 
ATOM      6  C   UNL     1       2.750  -1.592   0.000  0.00  0.00    +0.027 C 
ATOM     19  C   UNL     1       3.465  -1.179   0.000  0.00  0.00    -0.048 C 
ATOM     20  C   UNL     1       3.465  -0.354   0.000  0.00  0.00    +0.026 C 
ATOM     21  C   UNL     1       4.179  -1.592   0.000  0.00  0.00    -0.034 C 
ATOM     22  C   UNL     1       4.179  -2.417   0.000  0.00  0.00    +0.037 C 
ENDROOT
BRANCH   4   2
ATOM      1  C   UNL     1       4.179  -4.067   0.000  0.00  0.00    +0.000 C 
ATOM      2  C   UNL     1       3.465  -3.655   0.000  0.00  0.00    +0.000 C 
ATOM      3  C   UNL     1       2.750  -4.067   0.000  0.00  0.00    +0.000 C 
ENDBRANCH   4   2
BRANCH   6   7
ATOM      7  C   UNL     1       2.036  -1.179   0.000  0.00  0.00    +0.091 C 
BRANCH   7   8
ATOM      8  C   UNL     1       2.036  -0.354   0.000  0.00  0.00    +0.227 A 
ATOM      9  N   UNL     1       1.369   0.130   0.000  0.00  0.00    -0.111 NA
ATOM     10  N   UNL     1       1.623   0.915   0.000  0.00  0.00    -0.107 NA
ATOM     11  C   UNL     1       2.448   0.915   0.000  0.00  0.00    +0.250 A 
ATOM     12  O   UNL     1       2.703   0.130   0.000  0.00  0.00    -0.420 OA
BRANCH  11  13
ATOM     13  C   UNL     1       2.933   1.582   0.000  0.00  0.00    +0.055 A 
ATOM     14  C   UNL     1       2.598   2.336   0.000  0.00  0.00    +0.005 A 
ATOM     15  C   UNL     1       3.083   3.004   0.000  0.00  0.00    +0.000 A 
ATOM     16  C   UNL     1       3.903   2.917   0.000  0.00  0.00    +0.000 A 
ATOM     17  C   UNL     1       4.239   2.164   0.000  0.00  0.00    +0.000 A 
ATOM     18  C   UNL     1       3.754   1.496   0.000  0.00  0.00    +0.005 A 
ENDBRANCH  11  13
ENDBRANCH   7   8
ENDBRANCH   6   7
BRANCH  22  23
ATOM     23  C   UNL     1       4.894  -2.829   0.000  0.00  0.00    +0.076 C 
BRANCH  23  24
ATOM     24  N   UNL     1       5.608  -2.417   0.000  0.00  0.00    -0.270 NA
ATOM     25  C   UNL     1       5.608  -1.592   0.000  0.00  0.00    +0.090 C 
BRANCH  24  26
ATOM     26  C   UNL     1       6.323  -2.829   0.000  0.00  0.00    +0.090 C 
BRANCH  26  27
ATOM     27  C   UNL     1       7.037  -2.417   0.000  0.00  0.00    +0.090 C 
BRANCH  27  28
ATOM     28  N   UNL     1       7.752  -2.829   0.000  0.00  0.00    -0.269 NA
ATOM     29  C   UNL     1       8.466  -2.417   0.000  0.00  0.00    +0.090 C 
ATOM     30  C   UNL     1       7.752  -3.655   0.000  0.00  0.00    +0.090 C 
ENDBRANCH  27  28
ENDBRANCH  26  27
ENDBRANCH  24  26
ENDBRANCH  23  24
ENDBRANCH  22  23
TORSDOF 9
