MODEL 1
REMARK VINA RESULT:      -9.6      0.000      0.000
REMARK  Name = 
REMARK  7 active torsions:
REMARK  status: ('A' for Active; 'I' for Inactive)
REMARK    1  A    between atoms: C_2  and  C_4
REMARK    2  A    between atoms: C_4  and  C_5
REMARK    3  A    between atoms: C_5  and  C_6
REMARK    4  A    between atoms: C_6  and  C_7
REMARK    5  A    between atoms: N_9  and  C_10
REMARK    6  A    between atoms: C_14  and  N_18
REMARK    7  A    between atoms: C_21  and  C_25
REMARK                            x       y       z     vdW  Elec       q    Type
REMARK                         _______ _______ _______ _____ _____    ______ ____
ROOT
ATOM     10  C   UNL     1      -1.822   2.056  23.881  0.00  0.00    +0.154 C 
ATOM     11  C   UNL     1      -1.360   2.730  23.995  0.00  0.00    +0.166 C 
ATOM     12  O   UNL     1      -0.571   2.495  24.032  0.00  0.00    -0.350 OA
ATOM     13  C   UNL     1      -0.544   1.676  23.942  0.00  0.00    +0.166 C 
ATOM     14  C   UNL     1      -0.041   1.023  23.910  0.00  0.00    +0.154 C 
ATOM     15  C   UNL     1      -0.502   0.349  23.796  0.00  0.00    +0.166 C 
ATOM     16  O   UNL     1      -1.291   0.585  23.758  0.00  0.00    -0.350 OA
ATOM     17  C   UNL     1      -1.318   1.405  23.849  0.00  0.00    +0.166 C 
ENDROOT
BRANCH  14  18
ATOM     18  N   UNL     1       0.782   1.042  23.979  0.00  0.00    -0.200 NA
ATOM     19  C   UNL     1       1.251   0.645  23.429  0.00  0.00    +0.237 A 
ATOM     20  N   UNL     1       2.073   0.663  23.498  0.00  0.00    -0.212 NA
ATOM     21  C   UNL     1       2.543   0.266  22.948  0.00  0.00    +0.086 A 
ATOM     22  C   UNL     1       2.190  -0.150  22.329  0.00  0.00    +0.040 A 
ATOM     23  C   UNL     1       1.368  -0.169  22.260  0.00  0.00    +0.103 A 
ATOM     24  N   UNL     1       0.899   0.229  22.810  0.00  0.00    -0.211 NA
BRANCH  21  25
ATOM     25  C   UNL     1       3.364   0.284  23.017  0.00  0.00    +0.020 A 
ATOM     26  C   UNL     1       3.788   0.933  22.729  0.00  0.00    +0.002 A 
ATOM     27  C   UNL     1       4.609   0.952  22.798  0.00  0.00    +0.002 A 
ATOM     28  C   UNL     1       5.008   0.323  23.154  0.00  0.00    +0.030 A 
ATOM     29  C   UNL     1       4.585  -0.324  23.441  0.00  0.00    +0.140 A 
ATOM     30  F   UNL     1       4.983  -0.953  23.796  0.00  0.00    -0.204 F 
ATOM     31  C   UNL     1       3.763  -0.343  23.372  0.00  0.00    +0.031 A 
ENDBRANCH  21  25
ENDBRANCH  14  18
BRANCH  10   9
ATOM      7  C   UNL     1      -3.113   2.458  24.345  0.00  0.00    +0.241 C 
ATOM      8  O   UNL     1      -2.759   2.897  24.947  0.00  0.00    -0.273 OA
ATOM      9  N   UNL     1      -2.644   2.037  23.812  0.00  0.00    -0.202 NA
BRANCH   7   6
ATOM      6  C   UNL     1      -3.934   2.439  24.276  0.00  0.00    +0.087 C 
BRANCH   6   5
ATOM      5  C   UNL     1      -4.408   2.665  24.913  0.00  0.00    +0.019 C 
ATOM     32  C   UNL     1      -4.882   2.723  25.586  0.00  0.00    +0.001 C 
ATOM     33  C   UNL     1      -5.069   3.518  25.699  0.00  0.00    +0.000 C 
ATOM     34  C   UNL     1      -4.710   3.952  25.098  0.00  0.00    +0.000 C 
ATOM     35  C   UNL     1      -4.301   3.426  24.612  0.00  0.00    +0.001 C 
BRANCH   5   4
ATOM      4  C   UNL     1      -4.415   1.858  25.082  0.00  0.00    +0.115 C 
BRANCH   4   2
ATOM      1  O   UNL     1      -5.627   1.474  24.429  0.00  0.00    -0.246 OA
ATOM      2  C   UNL     1      -5.129   1.443  25.085  0.00  0.00    +0.365 C 
ATOM      3  O   UNL     1      -5.344   0.998  25.745  0.00  0.00    -0.246 OA
ENDBRANCH   4   2
ENDBRANCH   5   4
ENDBRANCH   6   5
ENDBRANCH   7   6
ENDBRANCH  10   9
TORSDOF 7
ENDMDL
MODEL 2
REMARK VINA RESULT:      -9.0      0.688      1.155
REMARK  Name = 
REMARK  7 active torsions:
REMARK  status: ('A' for Active; 'I' for Inactive)
REMARK    1  A    between atoms: C_2  and  C_4
REMARK    2  A    between atoms: C_4  and  C_5
REMARK    3  A    between atoms: C_5  and  C_6
REMARK    4  A    between atoms: C_6  and  C_7
REMARK    5  A    between atoms: N_9  and  C_10
REMARK    6  A    between atoms: C_14  and  N_18
REMARK    7  A    between atoms: C_21  and  C_25
REMARK                            x       y       z     vdW  Elec       q    Type
REMARK                         _______ _______ _______ _____ _____    ______ ____
ROOT
ATOM     10  C   UNL     1      -1.570   1.840  23.885  0.00  0.00    +0.154 C 
ATOM     11  C   UNL     1      -1.145   2.457  24.231  0.00  0.00    +0.166 C 
ATOM     12  O   UNL     1      -0.352   2.232  24.265  0.00  0.00    -0.350 OA
ATOM     13  C   UNL     1      -0.286   1.478  23.940  0.00  0.00    +0.166 C 
ATOM     14  C   UNL     1       0.244   0.872  23.760  0.00  0.00    +0.154 C 
ATOM     15  C   UNL     1      -0.181   0.255  23.414  0.00  0.00    +0.166 C 
ATOM     16  O   UNL     1      -0.974   0.479  23.380  0.00  0.00    -0.350 OA
ATOM     17  C   UNL     1      -1.039   1.235  23.705  0.00  0.00    +0.166 C 
ENDROOT
BRANCH  14  18
ATOM     18  N   UNL     1       1.057   0.881  23.901  0.00  0.00    -0.200 NA
ATOM     19  C   UNL     1       1.575   0.545  23.354  0.00  0.00    +0.237 A 
ATOM     20  N   UNL     1       2.387   0.554  23.495  0.00  0.00    -0.212 NA
ATOM     21  C   UNL     1       2.905   0.218  22.948  0.00  0.00    +0.086 A 
ATOM     22  C   UNL     1       2.610  -0.128  22.260  0.00  0.00    +0.040 A 
ATOM     23  C   UNL     1       1.797  -0.138  22.118  0.00  0.00    +0.103 A 
ATOM     24  N   UNL     1       1.280   0.199  22.666  0.00  0.00    -0.211 NA
BRANCH  21  25
ATOM     25  C   UNL     1       3.718   0.227  23.089  0.00  0.00    +0.020 A 
ATOM     26  C   UNL     1       4.169   0.879  22.856  0.00  0.00    +0.002 A 
ATOM     27  C   UNL     1       4.982   0.888  22.997  0.00  0.00    +0.002 A 
ATOM     28  C   UNL     1       5.344   0.248  23.371  0.00  0.00    +0.030 A 
ATOM     29  C   UNL     1       4.893  -0.403  23.603  0.00  0.00    +0.140 A 
ATOM     30  F   UNL     1       5.254  -1.043  23.976  0.00  0.00    -0.204 F 
ATOM     31  C   UNL     1       4.079  -0.412  23.462  0.00  0.00    +0.031 A 
ENDBRANCH  21  25
ENDBRANCH  14  18
BRANCH  10   9
ATOM      7  C   UNL     1      -2.912   1.891  24.374  0.00  0.00    +0.241 C 
ATOM      8  O   UNL     1      -2.628   1.961  25.146  0.00  0.00    -0.273 OA
ATOM      9  N   UNL     1      -2.383   1.830  23.744  0.00  0.00    -0.202 NA
BRANCH   7   6
ATOM      6  C   UNL     1      -3.724   1.881  24.233  0.00  0.00    +0.087 C 
BRANCH   6   5
ATOM      5  C   UNL     1      -4.230   1.492  24.756  0.00  0.00    +0.019 C 
ATOM     32  C   UNL     1      -4.756   1.259  25.347  0.00  0.00    +0.001 C 
ATOM     33  C   UNL     1      -4.877   0.446  25.276  0.00  0.00    +0.000 C 
ATOM     34  C   UNL     1      -4.426   0.176  24.641  0.00  0.00    +0.000 C 
ATOM     35  C   UNL     1      -4.026   0.822  24.319  0.00  0.00    +0.001 C 
BRANCH   5   4
ATOM      4  C   UNL     1      -4.328   2.242  25.083  0.00  0.00    +0.115 C 
BRANCH   4   2
ATOM      1  O   UNL     1      -5.416   2.737  24.300  0.00  0.00    -0.246 OA
ATOM      2  C   UNL     1      -5.059   2.622  25.034  0.00  0.00    +0.365 C 
ATOM      3  O   UNL     1      -5.434   2.886  25.720  0.00  0.00    -0.246 OA
ENDBRANCH   4   2
ENDBRANCH   5   4
ENDBRANCH   6   5
ENDBRANCH   7   6
ENDBRANCH  10   9
TORSDOF 7
ENDMDL
MODEL 3
REMARK VINA RESULT:      -7.8      2.608      7.292
REMARK  Name = 
REMARK  7 active torsions:
REMARK  status: ('A' for Active; 'I' for Inactive)
REMARK    1  A    between atoms: C_2  and  C_4
REMARK    2  A    between atoms: C_4  and  C_5
REMARK    3  A    between atoms: C_5  and  C_6
REMARK    4  A    between atoms: C_6  and  C_7
REMARK    5  A    between atoms: N_9  and  C_10
REMARK    6  A    between atoms: C_14  and  N_18
REMARK    7  A    between atoms: C_21  and  C_25
REMARK                            x       y       z     vdW  Elec       q    Type
REMARK                         _______ _______ _______ _____ _____    ______ ____
ROOT
ATOM     10  C   UNL     1       0.787   0.488  23.525  0.00  0.00    +0.154 C 
ATOM     11  C   UNL     1       0.729   1.310  23.498  0.00  0.00    +0.166 C 
ATOM     12  O   UNL     1       0.023   1.527  23.866  0.00  0.00    -0.350 OA
ATOM     13  C   UNL     1      -0.355   0.841  24.120  0.00  0.00    +0.166 C 
ATOM     14  C   UNL     1      -1.024   0.549  24.504  0.00  0.00    +0.154 C 
ATOM     15  C   UNL     1      -0.966  -0.273  24.531  0.00  0.00    +0.166 C 
ATOM     16  O   UNL     1      -0.261  -0.491  24.163  0.00  0.00    -0.350 OA
ATOM     17  C   UNL     1       0.117   0.198  23.909  0.00  0.00    +0.166 C 
ENDROOT
BRANCH  14  18
ATOM     18  N   UNL     1      -1.644   1.001  24.808  0.00  0.00    -0.200 NA
ATOM     19  C   UNL     1      -2.417   0.865  24.556  0.00  0.00    +0.237 A 
ATOM     20  N   UNL     1      -3.036   1.317  24.859  0.00  0.00    -0.212 NA
ATOM     21  C   UNL     1      -3.810   1.181  24.607  0.00  0.00    +0.086 A 
ATOM     22  C   UNL     1      -3.964   0.592  24.050  0.00  0.00    +0.040 A 
ATOM     23  C   UNL     1      -3.344   0.140  23.746  0.00  0.00    +0.103 A 
ATOM     24  N   UNL     1      -2.571   0.276  23.999  0.00  0.00    -0.211 NA
BRANCH  21  25
ATOM     25  C   UNL     1      -4.429   1.633  24.911  0.00  0.00    +0.020 A 
ATOM     26  C   UNL     1      -5.075   1.261  25.267  0.00  0.00    +0.002 A 
ATOM     27  C   UNL     1      -5.694   1.713  25.571  0.00  0.00    +0.002 A 
ATOM     28  C   UNL     1      -5.669   2.536  25.519  0.00  0.00    +0.030 A 
ATOM     29  C   UNL     1      -5.024   2.907  25.163  0.00  0.00    +0.140 A 
ATOM     30  F   UNL     1      -4.998   3.730  25.110  0.00  0.00    -0.204 F 
ATOM     31  C   UNL     1      -4.404   2.455  24.858  0.00  0.00    +0.031 A 
ENDBRANCH  21  25
ENDBRANCH  14  18
BRANCH  10   9
ATOM      7  C   UNL     1       2.174   0.339  23.212  0.00  0.00    +0.241 C 
ATOM      8  O   UNL     1       2.321   1.095  23.508  0.00  0.00    -0.273 OA
ATOM      9  N   UNL     1       1.406   0.035  23.221  0.00  0.00    -0.202 NA
BRANCH   7   6
ATOM      6  C   UNL     1       2.793  -0.113  22.908  0.00  0.00    +0.087 C 
BRANCH   6   5
ATOM      5  C   UNL     1       3.570   0.158  22.966  0.00  0.00    +0.019 C 
ATOM     32  C   UNL     1       4.352   0.329  23.163  0.00  0.00    +0.001 C 
ATOM     33  C   UNL     1       4.645   0.863  22.606  0.00  0.00    +0.000 C 
ATOM     34  C   UNL     1       4.044   1.022  22.065  0.00  0.00    +0.000 C 
ATOM     35  C   UNL     1       3.379   0.587  22.287  0.00  0.00    +0.001 C 
BRANCH   5   4
ATOM      4  C   UNL     1       3.598  -0.326  23.633  0.00  0.00    +0.115 C 
BRANCH   4   2
ATOM      1  O   UNL     1       3.906  -1.696  23.371  0.00  0.00    -0.246 OA
ATOM      2  C   UNL     1       4.128  -0.958  23.662  0.00  0.00    +0.365 C 
ATOM      3  O   UNL     1       4.880  -0.850  23.984  0.00  0.00    -0.246 OA
ENDBRANCH   4   2
ENDBRANCH   5   4
ENDBRANCH   6   5
ENDBRANCH   7   6
ENDBRANCH  10   9
TORSDOF 7
ENDMDL
