MODEL 1
REMARK VINA RESULT:     -17.0      0.000      0.000
REMARK  Name = 
REMARK  2 active torsions:
REMARK  status: ('A' for Active; 'I' for Inactive)
REMARK    1  A    between atoms: C_5  and  N_6
REMARK    2  A    between atoms: C_18  and  C_23
REMARK                            x       y       z     vdW  Elec       q    Type
REMARK                         _______ _______ _______ _____ _____    ______ ____
ROOT
ATOM      6  N   UNL     1      -2.968   0.777  24.401  0.00  0.00    -0.162 NA
ATOM      7  C   UNL     1      -2.346   1.305  24.126  0.00  0.00    +0.327 C 
ATOM      8  O   UNL     1      -1.531   1.439  23.846  0.00  0.00    -0.250 OA
ATOM      9  N   UNL     1      -2.892   1.969  24.204  0.00  0.00    -0.262 N 
ATOM     10  C   UNL     1      -2.947   2.796  24.101  0.00  0.00    +0.097 C 
ATOM     11  C   UNL     1      -3.884   2.937  24.380  0.00  0.00    +0.043 C 
ATOM     12  C   UNL     1      -4.624   3.216  24.576  0.00  0.00    +0.011 C 
ATOM     13  C   UNL     1      -4.290   2.599  24.559  0.00  0.00    +0.058 C 
ATOM     14  C   UNL     1      -3.383   2.479  24.287  0.00  0.00    +0.101 C 
ATOM     15  C   UNL     1      -4.418   1.705  24.730  0.00  0.00    +0.041 A 
ATOM     16  C   UNL     1      -4.998   1.180  24.991  0.00  0.00    +0.013 A 
ATOM     17  C   UNL     1      -4.827   0.375  25.054  0.00  0.00    +0.006 A 
ATOM     18  C   UNL     1      -4.076   0.096  24.854  0.00  0.00    +0.058 A 
ATOM     19  C   UNL     1      -3.497   0.621  24.593  0.00  0.00    +0.261 A 
ATOM     20  O   UNL     1      -2.622   0.399  24.346  0.00  0.00    -0.267 OA
ATOM     21  N   UNL     1      -3.668   1.426  24.531  0.00  0.00    -0.299 N 
ATOM     22  C   UNL     1      -4.009   2.001  24.556  0.00  0.00    +0.110 C 
ENDROOT
BRANCH   6   5
ATOM      1 CL   UNL     1      -1.699  -2.448  24.712  0.00  0.00    -0.082 Cl
ATOM      2  C   UNL     1      -2.025  -1.695  24.624  0.00  0.00    +0.058 A 
ATOM      3  C   UNL     1      -2.757  -1.603  24.255  0.00  0.00    +0.013 A 
ATOM      4  C   UNL     1      -2.919  -0.717  24.266  0.00  0.00    +0.018 A 
ATOM      5  C   UNL     1      -2.676  -0.189  24.449  0.00  0.00    +0.075 A 
ATOM     29  C   UNL     1      -1.945  -0.282  24.817  0.00  0.00    +0.018 A 
ATOM     30  C   UNL     1      -1.619  -1.034  24.906  0.00  0.00    +0.013 A 
ENDBRANCH   6   5
BRANCH  18  23
ATOM     23  C   UNL     1      -3.906  -0.709  24.917  0.00  0.00    +0.024 A 
ATOM     24  C   UNL     1      -4.048  -1.211  24.279  0.00  0.00    +0.003 A 
ATOM     25  C   UNL     1      -3.877  -2.017  24.342  0.00  0.00    +0.021 A 
ATOM     26  C   UNL     1      -3.565  -2.318  25.044  0.00  0.00    +0.099 A 
ATOM     27  N   UNL     1      -3.424  -1.815  25.682  0.00  0.00    -0.242 NA
ATOM     28  C   UNL     1      -3.594  -1.010  25.619  0.00  0.00    +0.099 A 
ENDBRANCH  18  23
TORSDOF 2
ENDMDL
MODEL 2
REMARK VINA RESULT:     -16.6      1.392      3.493
REMARK  Name = 
REMARK  2 active torsions:
REMARK  status: ('A' for Active; 'I' for Inactive)
REMARK    1  A    between atoms: C_5  and  N_6
REMARK    2  A    between atoms: C_18  and  C_23
REMARK                            x       y       z     vdW  Elec       q    Type
REMARK                         _______ _______ _______ _____ _____    ______ ____
ROOT
ATOM      6  N   UNL     1      -2.281  -0.265  24.513  0.00  0.00    -0.162 NA
ATOM      7  C   UNL     1      -1.569  -0.727  24.657  0.00  0.00    +0.327 C 
ATOM      8  O   UNL     1      -0.709  -0.776  24.794  0.00  0.00    -0.250 OA
ATOM      9  N   UNL     1      -2.047  -1.447  24.637  0.00  0.00    -0.262 N 
ATOM     10  C   UNL     1      -1.994  -2.278  24.708  0.00  0.00    +0.097 C 
ATOM     11  C   UNL     1      -2.944  -2.515  24.579  0.00  0.00    +0.043 C 
ATOM     12  C   UNL     1      -3.672  -2.871  24.493  0.00  0.00    +0.011 C 
ATOM     13  C   UNL     1      -3.408  -2.221  24.485  0.00  0.00    +0.058 C 
ATOM     14  C   UNL     1      -2.486  -2.007  24.611  0.00  0.00    +0.101 C 
ATOM     15  C   UNL     1      -3.658  -1.342  24.381  0.00  0.00    +0.041 A 
ATOM     16  C   UNL     1      -4.326  -0.879  24.243  0.00  0.00    +0.013 A 
ATOM     17  C   UNL     1      -4.255  -0.058  24.192  0.00  0.00    +0.006 A 
ATOM     18  C   UNL     1      -3.516   0.298  24.280  0.00  0.00    +0.058 A 
ATOM     19  C   UNL     1      -2.848  -0.165  24.418  0.00  0.00    +0.261 A 
ATOM     20  O   UNL     1      -1.974   0.147  24.530  0.00  0.00    -0.267 OA
ATOM     21  N   UNL     1      -2.919  -0.986  24.468  0.00  0.00    -0.299 N 
ATOM     22  C   UNL     1      -3.196  -1.595  24.471  0.00  0.00    +0.110 C 
ENDROOT
BRANCH   6   5
ATOM      1 CL   UNL     1      -1.520   3.128  24.626  0.00  0.00    -0.082 Cl
ATOM      2  C   UNL     1      -1.716   2.328  24.572  0.00  0.00    +0.058 A 
ATOM      3  C   UNL     1      -2.158   2.054  23.932  0.00  0.00    +0.013 A 
ATOM      4  C   UNL     1      -2.254   1.169  24.072  0.00  0.00    +0.018 A 
ATOM      5  C   UNL     1      -2.107   0.728  24.466  0.00  0.00    +0.075 A 
ATOM     29  C   UNL     1      -1.665   1.003  25.105  0.00  0.00    +0.018 A 
ATOM     30  C   UNL     1      -1.469   1.802  25.159  0.00  0.00    +0.013 A 
ENDBRANCH   6   5
BRANCH  18  23
ATOM     23  C   UNL     1      -3.446   1.118  24.229  0.00  0.00    +0.024 A 
ATOM     24  C   UNL     1      -3.300   1.476  23.501  0.00  0.00    +0.003 A 
ATOM     25  C   UNL     1      -3.230   2.298  23.451  0.00  0.00    +0.021 A 
ATOM     26  C   UNL     1      -3.306   2.759  24.130  0.00  0.00    +0.099 A 
ATOM     27  N   UNL     1      -3.452   2.401  24.859  0.00  0.00    -0.242 NA
ATOM     28  C   UNL     1      -3.522   1.581  24.909  0.00  0.00    +0.099 A 
ENDBRANCH  18  23
TORSDOF 2
ENDMDL
MODEL 3
REMARK VINA RESULT:     -16.1      1.026      1.930
REMARK  Name = 
REMARK  2 active torsions:
REMARK  status: ('A' for Active; 'I' for Inactive)
REMARK    1  A    between atoms: C_5  and  N_6
REMARK    2  A    between atoms: C_18  and  C_23
REMARK                            x       y       z     vdW  Elec       q    Type
REMARK                         _______ _______ _______ _____ _____    ______ ____
ROOT
ATOM      6  N   UNL     1      -3.955   0.926  24.843  0.00  0.00    -0.162 NA
ATOM      7  C   UNL     1      -4.786   1.143  24.804  0.00  0.00    +0.327 C 
ATOM      8  O   UNL     1      -5.630   0.923  24.790  0.00  0.00    -0.250 OA
ATOM      9  N   UNL     1      -4.555   1.975  24.766  0.00  0.00    -0.262 N 
ATOM     10  C   UNL     1      -4.869   2.747  24.713  0.00  0.00    +0.097 C 
ATOM     11  C   UNL     1      -4.029   3.267  24.711  0.00  0.00    +0.043 C 
ATOM     12  C   UNL     1      -3.440   3.831  24.698  0.00  0.00    +0.011 C 
ATOM     13  C   UNL     1      -3.489   3.131  24.735  0.00  0.00    +0.058 C 
ATOM     14  C   UNL     1      -4.309   2.643  24.736  0.00  0.00    +0.101 C 
ATOM     15  C   UNL     1      -2.970   2.375  24.794  0.00  0.00    +0.041 A 
ATOM     16  C   UNL     1      -2.179   2.142  24.832  0.00  0.00    +0.013 A 
ATOM     17  C   UNL     1      -1.988   1.341  24.883  0.00  0.00    +0.006 A 
ATOM     18  C   UNL     1      -2.587   0.774  24.895  0.00  0.00    +0.058 A 
ATOM     19  C   UNL     1      -3.377   1.007  24.857  0.00  0.00    +0.261 A 
ATOM     20  O   UNL     1      -4.120   0.439  24.865  0.00  0.00    -0.267 OA
ATOM     21  N   UNL     1      -3.568   1.807  24.806  0.00  0.00    -0.299 N 
ATOM     22  C   UNL     1      -3.495   2.472  24.772  0.00  0.00    +0.110 C 
ENDROOT
BRANCH   6   5
ATOM      1 CL   UNL     1      -3.632  -2.538  24.789  0.00  0.00    -0.082 Cl
ATOM      2  C   UNL     1      -3.690  -1.716  24.827  0.00  0.00    +0.058 A 
ATOM      3  C   UNL     1      -3.304  -1.303  25.427  0.00  0.00    +0.013 A 
ATOM      4  C   UNL     1      -3.499  -0.435  25.282  0.00  0.00    +0.018 A 
ATOM      5  C   UNL     1      -3.808  -0.072  24.903  0.00  0.00    +0.075 A 
ATOM     29  C   UNL     1      -4.194  -0.486  24.304  0.00  0.00    +0.018 A 
ATOM     30  C   UNL     1      -4.136  -1.307  24.265  0.00  0.00    +0.013 A 
ENDBRANCH   6   5
BRANCH  18  23
ATOM     23  C   UNL     1      -2.394  -0.027  24.946  0.00  0.00    +0.024 A 
ATOM     24  C   UNL     1      -2.318  -0.387  25.683  0.00  0.00    +0.003 A 
ATOM     25  C   UNL     1      -2.126  -1.189  25.734  0.00  0.00    +0.021 A 
ATOM     26  C   UNL     1      -2.009  -1.628  25.045  0.00  0.00    +0.099 A 
ATOM     27  N   UNL     1      -2.085  -1.267  24.307  0.00  0.00    -0.242 NA
ATOM     28  C   UNL     1      -2.278  -0.467  24.257  0.00  0.00    +0.099 A 
ENDBRANCH  18  23
TORSDOF 2
ENDMDL
MODEL 4
REMARK VINA RESULT:     -15.8      2.096      4.014
REMARK  Name = 
REMARK  2 active torsions:
REMARK  status: ('A' for Active; 'I' for Inactive)
REMARK    1  A    between atoms: C_5  and  N_6
REMARK    2  A    between atoms: C_18  and  C_23
REMARK                            x       y       z     vdW  Elec       q    Type
REMARK                         _______ _______ _______ _____ _____    ______ ____
ROOT
ATOM      6  N   UNL     1      -3.252   2.150  24.906  0.00  0.00    -0.162 NA
ATOM      7  C   UNL     1      -4.093   2.330  24.893  0.00  0.00    +0.327 C 
ATOM      8  O   UNL     1      -4.748   2.906  24.903  0.00  0.00    -0.250 OA
ATOM      9  N   UNL     1      -4.262   1.484  24.849  0.00  0.00    -0.262 N 
ATOM     10  C   UNL     1      -4.891   0.936  24.807  0.00  0.00    +0.097 C 
ATOM     11  C   UNL     1      -4.375   0.093  24.781  0.00  0.00    +0.043 C 
ATOM     12  C   UNL     1      -4.104  -0.674  24.752  0.00  0.00    +0.011 C 
ATOM     13  C   UNL     1      -3.831  -0.028  24.790  0.00  0.00    +0.058 C 
ATOM     14  C   UNL     1      -4.343   0.777  24.814  0.00  0.00    +0.101 C 
ATOM     15  C   UNL     1      -3.026   0.413  24.831  0.00  0.00    +0.041 A 
ATOM     16  C   UNL     1      -2.215   0.265  24.845  0.00  0.00    +0.013 A 
ATOM     17  C   UNL     1      -1.682   0.894  24.888  0.00  0.00    +0.006 A 
ATOM     18  C   UNL     1      -1.961   1.670  24.917  0.00  0.00    +0.058 A 
ATOM     19  C   UNL     1      -2.772   1.818  24.903  0.00  0.00    +0.261 A 
ATOM     20  O   UNL     1      -3.180   2.659  24.932  0.00  0.00    -0.267 OA
ATOM     21  N   UNL     1      -3.305   1.189  24.860  0.00  0.00    -0.299 N 
ATOM     22  C   UNL     1      -3.539   0.563  24.825  0.00  0.00    +0.110 C 
ENDROOT
BRANCH   6   5
ATOM      1 CL   UNL     1      -1.438   5.089  25.328  0.00  0.00    -0.082 Cl
ATOM      2  C   UNL     1      -1.848   4.384  25.205  0.00  0.00    +0.058 A 
ATOM      3  C   UNL     1      -1.599   3.858  24.620  0.00  0.00    +0.013 A 
ATOM      4  C   UNL     1      -2.178   3.169  24.658  0.00  0.00    +0.018 A 
ATOM      5  C   UNL     1      -2.670   2.974  24.959  0.00  0.00    +0.075 A 
ATOM     29  C   UNL     1      -2.919   3.500  25.543  0.00  0.00    +0.018 A 
ATOM     30  C   UNL     1      -2.509   4.205  25.667  0.00  0.00    +0.013 A 
ENDBRANCH   6   5
BRANCH  18  23
ATOM     23  C   UNL     1      -1.428   2.297  24.960  0.00  0.00    +0.024 A 
ATOM     24  C   UNL     1      -1.157   2.560  25.693  0.00  0.00    +0.003 A 
ATOM     25  C   UNL     1      -0.623   3.189  25.736  0.00  0.00    +0.021 A 
ATOM     26  C   UNL     1      -0.361   3.553  25.044  0.00  0.00    +0.099 A 
ATOM     27  N   UNL     1      -0.631   3.291  24.310  0.00  0.00    -0.242 NA
ATOM     28  C   UNL     1      -1.164   2.663  24.268  0.00  0.00    +0.099 A 
ENDBRANCH  18  23
TORSDOF 2
ENDMDL
MODEL 5
REMARK VINA RESULT:     -15.6      1.882      2.804
REMARK  Name = 
REMARK  2 active torsions:
REMARK  status: ('A' for Active; 'I' for Inactive)
REMARK    1  A    between atoms: C_5  and  N_6
REMARK    2  A    between atoms: C_18  and  C_23
REMARK                            x       y       z     vdW  Elec       q    Type
REMARK                         _______ _______ _______ _____ _____    ______ ____
ROOT
ATOM      6  N   UNL     1      -3.208   2.452  25.043  0.00  0.00    -0.162 NA
ATOM      7  C   UNL     1      -3.445   3.247  25.274  0.00  0.00    +0.327 C 
ATOM      8  O   UNL     1      -3.245   4.070  25.482  0.00  0.00    -0.250 OA
ATOM      9  N   UNL     1      -4.270   2.991  25.264  0.00  0.00    -0.262 N 
ATOM     10  C   UNL     1      -5.049   3.264  25.394  0.00  0.00    +0.097 C 
ATOM     11  C   UNL     1      -5.549   2.433  25.206  0.00  0.00    +0.043 C 
ATOM     12  C   UNL     1      -6.098   1.843  25.086  0.00  0.00    +0.011 C 
ATOM     13  C   UNL     1      -5.401   1.917  25.056  0.00  0.00    +0.058 C 
ATOM     14  C   UNL     1      -4.932   2.728  25.241  0.00  0.00    +0.101 C 
ATOM     15  C   UNL     1      -4.634   1.445  24.874  0.00  0.00    +0.041 A 
ATOM     16  C   UNL     1      -4.382   0.692  24.653  0.00  0.00    +0.013 A 
ATOM     17  C   UNL     1      -3.578   0.538  24.553  0.00  0.00    +0.006 A 
ATOM     18  C   UNL     1      -3.025   1.138  24.675  0.00  0.00    +0.058 A 
ATOM     19  C   UNL     1      -3.276   1.891  24.897  0.00  0.00    +0.261 A 
ATOM     20  O   UNL     1      -2.726   2.631  25.057  0.00  0.00    -0.267 OA
ATOM     21  N   UNL     1      -4.080   2.045  24.996  0.00  0.00    -0.299 N 
ATOM     22  C   UNL     1      -4.742   1.949  25.017  0.00  0.00    +0.110 C 
ENDROOT
BRANCH   6   5
ATOM      1 CL   UNL     1       0.264   2.236  24.987  0.00  0.00    -0.082 Cl
ATOM      2  C   UNL     1      -0.561   2.274  24.973  0.00  0.00    +0.058 A 
ATOM      3  C   UNL     1      -0.975   1.977  24.324  0.00  0.00    +0.013 A 
ATOM      4  C   UNL     1      -1.845   2.118  24.514  0.00  0.00    +0.018 A 
ATOM      5  C   UNL     1      -2.209   2.349  24.944  0.00  0.00    +0.075 A 
ATOM     29  C   UNL     1      -1.794   2.645  25.591  0.00  0.00    +0.018 A 
ATOM     30  C   UNL     1      -0.970   2.608  25.607  0.00  0.00    +0.013 A 
ENDBRANCH   6   5
BRANCH  18  23
ATOM     23  C   UNL     1      -2.221   0.983  24.576  0.00  0.00    +0.024 A 
ATOM     24  C   UNL     1      -1.777   0.684  25.204  0.00  0.00    +0.003 A 
ATOM     25  C   UNL     1      -0.972   0.529  25.104  0.00  0.00    +0.021 A 
ATOM     26  C   UNL     1      -0.613   0.674  24.376  0.00  0.00    +0.099 A 
ATOM     27  N   UNL     1      -1.056   0.973  23.748  0.00  0.00    -0.242 NA
ATOM     28  C   UNL     1      -1.860   1.128  23.848  0.00  0.00    +0.099 A 
ENDBRANCH  18  23
TORSDOF 2
ENDMDL
MODEL 6
REMARK VINA RESULT:     -15.6      1.670      3.728
REMARK  Name = 
REMARK  2 active torsions:
REMARK  status: ('A' for Active; 'I' for Inactive)
REMARK    1  A    between atoms: C_5  and  N_6
REMARK    2  A    between atoms: C_18  and  C_23
REMARK                            x       y       z     vdW  Elec       q    Type
REMARK                         _______ _______ _______ _____ _____    ______ ____
ROOT
ATOM      6  N   UNL     1      -2.826   0.035  24.447  0.00  0.00    -0.162 NA
ATOM      7  C   UNL     1      -3.654   0.138  24.235  0.00  0.00    +0.327 C 
ATOM      8  O   UNL     1      -4.327   0.651  24.028  0.00  0.00    -0.250 OA
ATOM      9  N   UNL     1      -3.759  -0.719  24.278  0.00  0.00    -0.262 N 
ATOM     10  C   UNL     1      -4.331  -1.320  24.186  0.00  0.00    +0.097 C 
ATOM     11  C   UNL     1      -3.773  -2.111  24.387  0.00  0.00    +0.043 C 
ATOM     12  C   UNL     1      -3.457  -2.849  24.524  0.00  0.00    +0.011 C 
ATOM     13  C   UNL     1      -3.237  -2.183  24.524  0.00  0.00    +0.058 C 
ATOM     14  C   UNL     1      -3.789  -1.429  24.328  0.00  0.00    +0.101 C 
ATOM     15  C   UNL     1      -2.488  -1.671  24.668  0.00  0.00    +0.041 A 
ATOM     16  C   UNL     1      -1.691  -1.744  24.869  0.00  0.00    +0.013 A 
ATOM     17  C   UNL     1      -1.218  -1.071  24.931  0.00  0.00    +0.006 A 
ATOM     18  C   UNL     1      -1.542  -0.325  24.792  0.00  0.00    +0.058 A 
ATOM     19  C   UNL     1      -2.338  -0.252  24.590  0.00  0.00    +0.261 A 
ATOM     20  O   UNL     1      -2.791   0.547  24.415  0.00  0.00    -0.267 OA
ATOM     21  N   UNL     1      -2.811  -0.925  24.528  0.00  0.00    -0.299 N 
ATOM     22  C   UNL     1      -2.995  -1.568  24.534  0.00  0.00    +0.110 C 
ENDROOT
BRANCH   6   5
ATOM      1 CL   UNL     1      -1.195   3.107  24.345  0.00  0.00    -0.082 Cl
ATOM      2  C   UNL     1      -1.570   2.373  24.397  0.00  0.00    +0.058 A 
ATOM      3  C   UNL     1      -1.469   1.907  25.070  0.00  0.00    +0.013 A 
ATOM      4  C   UNL     1      -1.957   1.164  24.918  0.00  0.00    +0.018 A 
ATOM      5  C   UNL     1      -2.319   0.907  24.502  0.00  0.00    +0.075 A 
ATOM     29  C   UNL     1      -2.418   1.374  23.830  0.00  0.00    +0.018 A 
ATOM     30  C   UNL     1      -2.044   2.107  23.777  0.00  0.00    +0.013 A 
ENDBRANCH   6   5
BRANCH  18  23
ATOM     23  C   UNL     1      -1.068   0.347  24.854  0.00  0.00    +0.024 A 
ATOM     24  C   UNL     1      -1.009   0.745  25.574  0.00  0.00    +0.003 A 
ATOM     25  C   UNL     1      -0.534   1.418  25.636  0.00  0.00    +0.021 A 
ATOM     26  C   UNL     1      -0.120   1.692  24.977  0.00  0.00    +0.099 A 
ATOM     27  N   UNL     1      -0.179   1.294  24.257  0.00  0.00    -0.242 NA
ATOM     28  C   UNL     1      -0.653   0.622  24.196  0.00  0.00    +0.099 A 
ENDBRANCH  18  23
TORSDOF 2
ENDMDL
