MODEL 1
REMARK VINA RESULT:     -11.1      0.000      0.000
REMARK  Name = 
REMARK  4 active torsions:
REMARK  status: ('A' for Active; 'I' for Inactive)
REMARK    1  A    between atoms: C_6  and  N_10
REMARK    2  A    between atoms: N_13  and  C_14
REMARK    3  A    between atoms: C_17  and  O_18
REMARK    4  A    between atoms: O_18  and  C_19
REMARK                            x       y       z     vdW  Elec       q    Type
REMARK                         _______ _______ _______ _____ _____    ______ ____
ROOT
ATOM     10  N   UNL     1      -4.546   0.006  24.651  0.00  0.00    -0.184 NA
ATOM     11  C   UNL     1      -4.177   0.735  24.766  0.00  0.00    +0.344 C 
ATOM     12  O   UNL     1      -3.417   0.767  25.085  0.00  0.00    -0.249 OA
ATOM     13  N   UNL     1      -4.569   1.432  24.564  0.00  0.00    -0.161 NA
ENDROOT
BRANCH  10   6
ATOM      1  O   UNL     1      -3.280  -3.333  24.576  0.00  0.00    -0.218 OA
ATOM      2  C   UNL     1      -3.672  -2.635  24.374  0.00  0.00    +0.211 C 
ATOM      3  C   UNL     1      -4.119  -2.511  23.692  0.00  0.00    +0.178 C 
ATOM      4  O   UNL     1      -4.408  -1.739  23.714  0.00  0.00    -0.349 OA
ATOM      5  C   UNL     1      -4.141  -1.386  24.409  0.00  0.00    +0.167 C 
ATOM      6  C   UNL     1      -4.154  -0.691  24.853  0.00  0.00    +0.156 C 
ATOM      7  C   UNL     1      -3.707  -0.815  25.535  0.00  0.00    +0.166 C 
ATOM      8  O   UNL     1      -3.417  -1.587  25.513  0.00  0.00    -0.349 OA
ATOM      9  C   UNL     1      -3.686  -1.940  24.817  0.00  0.00    +0.177 C 
ENDBRANCH  10   6
BRANCH  13  14
ATOM     14  C   UNL     1      -4.200   2.162  24.679  0.00  0.00    +0.075 A 
ATOM     15  C   UNL     1      -3.770   2.508  24.067  0.00  0.00    +0.020 A 
ATOM     16  C   UNL     1      -3.402   3.237  24.183  0.00  0.00    +0.039 A 
ATOM     17  C   UNL     1      -3.464   3.620  24.911  0.00  0.00    +0.145 A 
ATOM     25  C   UNL     1      -3.895   3.273  25.524  0.00  0.00    +0.039 A 
ATOM     26  C   UNL     1      -4.262   2.544  25.407  0.00  0.00    +0.020 A 
BRANCH  17  18
ATOM     18  O   UNL     1      -3.096   4.348  25.027  0.00  0.00    -0.453 OA
BRANCH  18  19
ATOM     19  C   UNL     1      -2.275   4.390  25.098  0.00  0.00    +0.145 A 
ATOM     20  C   UNL     1      -1.883   3.908  25.640  0.00  0.00    +0.037 A 
ATOM     21  C   UNL     1      -1.061   3.951  25.711  0.00  0.00    +0.003 A 
ATOM     22  C   UNL     1      -0.633   4.475  25.239  0.00  0.00    +0.000 A 
ATOM     23  C   UNL     1      -1.027   4.957  24.698  0.00  0.00    +0.003 A 
ATOM     24  C   UNL     1      -1.847   4.914  24.627  0.00  0.00    +0.037 A 
ENDBRANCH  18  19
ENDBRANCH  17  18
ENDBRANCH  13  14
TORSDOF 4
ENDMDL
MODEL 2
REMARK VINA RESULT:     -10.8      2.083      6.041
REMARK  Name = 
REMARK  4 active torsions:
REMARK  status: ('A' for Active; 'I' for Inactive)
REMARK    1  A    between atoms: C_6  and  N_10
REMARK    2  A    between atoms: N_13  and  C_14
REMARK    3  A    between atoms: C_17  and  O_18
REMARK    4  A    between atoms: O_18  and  C_19
REMARK                            x       y       z     vdW  Elec       q    Type
REMARK                         _______ _______ _______ _____ _____    ______ ____
ROOT
ATOM     10  N   UNL     1      -0.720   2.457  25.714  0.00  0.00    -0.184 NA
ATOM     11  C   UNL     1      -1.015   1.725  25.471  0.00  0.00    +0.344 C 
ATOM     12  O   UNL     1      -1.792   1.664  25.200  0.00  0.00    -0.249 OA
ATOM     13  N   UNL     1      -0.535   1.056  25.501  0.00  0.00    -0.161 NA
ENDROOT
BRANCH  10   6
ATOM      1  O   UNL     1      -1.928   5.756  25.070  0.00  0.00    -0.218 OA
ATOM      2  C   UNL     1      -1.447   5.086  25.099  0.00  0.00    +0.211 C 
ATOM      3  C   UNL     1      -0.683   5.024  24.792  0.00  0.00    +0.178 C 
ATOM      4  O   UNL     1      -0.410   4.261  24.944  0.00  0.00    -0.349 OA
ATOM      5  C   UNL     1      -1.003   3.851  25.344  0.00  0.00    +0.167 C 
ATOM      6  C   UNL     1      -1.202   3.127  25.685  0.00  0.00    +0.156 C 
ATOM      7  C   UNL     1      -1.965   3.189  25.991  0.00  0.00    +0.166 C 
ATOM      8  O   UNL     1      -2.238   3.952  25.840  0.00  0.00    -0.349 OA
ATOM      9  C   UNL     1      -1.644   4.361  25.439  0.00  0.00    +0.177 C 
ENDBRANCH  10   6
BRANCH  13  14
ATOM     14  C   UNL     1      -0.830   0.325  25.258  0.00  0.00    +0.075 A 
ATOM     15  C   UNL     1      -1.169  -0.187  25.809  0.00  0.00    +0.020 A 
ATOM     16  C   UNL     1      -1.464  -0.917  25.567  0.00  0.00    +0.039 A 
ATOM     17  C   UNL     1      -1.420  -1.138  24.772  0.00  0.00    +0.145 A 
ATOM     25  C   UNL     1      -1.080  -0.626  24.221  0.00  0.00    +0.039 A 
ATOM     26  C   UNL     1      -0.785   0.105  24.464  0.00  0.00    +0.020 A 
BRANCH  17  18
ATOM     18  O   UNL     1      -1.714  -1.868  24.529  0.00  0.00    -0.453 OA
BRANCH  18  19
ATOM     19  C   UNL     1      -2.529  -1.984  24.464  0.00  0.00    +0.145 A 
ATOM     20  C   UNL     1      -2.971  -1.518  23.948  0.00  0.00    +0.037 A 
ATOM     21  C   UNL     1      -3.786  -1.634  23.882  0.00  0.00    +0.003 A 
ATOM     22  C   UNL     1      -4.157  -2.218  24.333  0.00  0.00    +0.000 A 
ATOM     23  C   UNL     1      -3.712  -2.685  24.848  0.00  0.00    +0.003 A 
ATOM     24  C   UNL     1      -2.898  -2.568  24.914  0.00  0.00    +0.037 A 
ENDBRANCH  18  19
ENDBRANCH  17  18
ENDBRANCH  13  14
TORSDOF 4
ENDMDL
MODEL 3
REMARK VINA RESULT:     -10.5      1.227      5.628
REMARK  Name = 
REMARK  4 active torsions:
REMARK  status: ('A' for Active; 'I' for Inactive)
REMARK    1  A    between atoms: C_6  and  N_10
REMARK    2  A    between atoms: N_13  and  C_14
REMARK    3  A    between atoms: C_17  and  O_18
REMARK    4  A    between atoms: O_18  and  C_19
REMARK                            x       y       z     vdW  Elec       q    Type
REMARK                         _______ _______ _______ _____ _____    ______ ____
ROOT
ATOM     10  N   UNL     1      -2.981   2.999  24.419  0.00  0.00    -0.184 NA
ATOM     11  C   UNL     1      -3.123   2.189  24.477  0.00  0.00    +0.344 C 
ATOM     12  O   UNL     1      -2.495   1.668  24.598  0.00  0.00    -0.249 OA
ATOM     13  N   UNL     1      -3.892   1.899  24.413  0.00  0.00    -0.161 NA
ENDROOT
BRANCH  10   6
ATOM      1  O   UNL     1      -0.187   5.123  25.081  0.00  0.00    -0.218 OA
ATOM      2  C   UNL     1      -0.958   4.833  25.018  0.00  0.00    +0.211 C 
ATOM      3  C   UNL     1      -1.646   5.236  25.228  0.00  0.00    +0.178 C 
ATOM      4  O   UNL     1      -2.287   4.741  25.073  0.00  0.00    -0.349 OA
ATOM      5  C   UNL     1      -1.996   4.033  24.767  0.00  0.00    +0.167 C 
ATOM      6  C   UNL     1      -2.211   3.289  24.482  0.00  0.00    +0.156 C 
ATOM      7  C   UNL     1      -1.523   2.887  24.272  0.00  0.00    +0.166 C 
ATOM      8  O   UNL     1      -0.882   3.381  24.427  0.00  0.00    -0.349 OA
ATOM      9  C   UNL     1      -1.174   4.090  24.733  0.00  0.00    +0.177 C 
ENDBRANCH  10   6
BRANCH  13  14
ATOM     14  C   UNL     1      -4.034   1.088  24.471  0.00  0.00    +0.075 A 
ATOM     15  C   UNL     1      -4.273   0.761  25.189  0.00  0.00    +0.020 A 
ATOM     16  C   UNL     1      -4.415  -0.049  25.247  0.00  0.00    +0.039 A 
ATOM     17  C   UNL     1      -4.318  -0.534  24.586  0.00  0.00    +0.145 A 
ATOM     25  C   UNL     1      -4.079  -0.207  23.867  0.00  0.00    +0.039 A 
ATOM     26  C   UNL     1      -3.937   0.604  23.810  0.00  0.00    +0.020 A 
BRANCH  17  18
ATOM     18  O   UNL     1      -4.459  -1.343  24.643  0.00  0.00    -0.453 OA
BRANCH  18  19
ATOM     19  C   UNL     1      -3.827  -1.872  24.679  0.00  0.00    +0.145 A 
ATOM     20  C   UNL     1      -3.363  -1.915  25.359  0.00  0.00    +0.037 A 
ATOM     21  C   UNL     1      -2.731  -2.444  25.395  0.00  0.00    +0.003 A 
ATOM     22  C   UNL     1      -2.562  -2.930  24.750  0.00  0.00    +0.000 A 
ATOM     23  C   UNL     1      -3.027  -2.886  24.069  0.00  0.00    +0.003 A 
ATOM     24  C   UNL     1      -3.659  -2.358  24.034  0.00  0.00    +0.037 A 
ENDBRANCH  18  19
ENDBRANCH  17  18
ENDBRANCH  13  14
TORSDOF 4
ENDMDL
MODEL 4
REMARK VINA RESULT:     -10.2      1.816      2.334
REMARK  Name = 
REMARK  4 active torsions:
REMARK  status: ('A' for Active; 'I' for Inactive)
REMARK    1  A    between atoms: C_6  and  N_10
REMARK    2  A    between atoms: N_13  and  C_14
REMARK    3  A    between atoms: C_17  and  O_18
REMARK    4  A    between atoms: O_18  and  C_19
REMARK                            x       y       z     vdW  Elec       q    Type
REMARK                         _______ _______ _______ _____ _____    ______ ____
ROOT
ATOM     10  N   UNL     1      -1.820  -0.791  24.606  0.00  0.00    -0.184 NA
ATOM     11  C   UNL     1      -1.646   0.002  24.750  0.00  0.00    +0.344 C 
ATOM     12  O   UNL     1      -2.240   0.571  24.694  0.00  0.00    -0.249 OA
ATOM     13  N   UNL     1      -0.878   0.226  24.951  0.00  0.00    -0.161 NA
ENDROOT
BRANCH  10   6
ATOM      1  O   UNL     1      -4.725  -2.753  23.919  0.00  0.00    -0.218 OA
ATOM      2  C   UNL     1      -3.956  -2.529  24.120  0.00  0.00    +0.211 C 
ATOM      3  C   UNL     1      -3.341  -3.038  24.325  0.00  0.00    +0.178 C 
ATOM      4  O   UNL     1      -2.673  -2.580  24.483  0.00  0.00    -0.349 OA
ATOM      5  C   UNL     1      -2.875  -1.789  24.375  0.00  0.00    +0.167 C 
ATOM      6  C   UNL     1      -2.589  -1.015  24.405  0.00  0.00    +0.156 C 
ATOM      7  C   UNL     1      -3.204  -0.506  24.200  0.00  0.00    +0.166 C 
ATOM      8  O   UNL     1      -3.871  -0.964  24.042  0.00  0.00    -0.349 OA
ATOM      9  C   UNL     1      -3.669  -1.757  24.150  0.00  0.00    +0.177 C 
ENDBRANCH  10   6
BRANCH  13  14
ATOM     14  C   UNL     1      -0.704   1.019  25.096  0.00  0.00    +0.075 A 
ATOM     15  C   UNL     1      -0.461   1.508  24.478  0.00  0.00    +0.020 A 
ATOM     16  C   UNL     1      -0.287   2.301  24.622  0.00  0.00    +0.039 A 
ATOM     17  C   UNL     1      -0.355   2.606  25.386  0.00  0.00    +0.145 A 
ATOM     25  C   UNL     1      -0.598   2.117  26.005  0.00  0.00    +0.039 A 
ATOM     26  C   UNL     1      -0.772   1.324  25.859  0.00  0.00    +0.020 A 
BRANCH  17  18
ATOM     18  O   UNL     1      -0.181   3.398  25.531  0.00  0.00    -0.453 OA
BRANCH  18  19
ATOM     19  C   UNL     1      -0.751   3.979  25.391  0.00  0.00    +0.145 A 
ATOM     20  C   UNL     1      -1.478   3.945  25.779  0.00  0.00    +0.037 A 
ATOM     21  C   UNL     1      -2.047   4.526  25.639  0.00  0.00    +0.003 A 
ATOM     22  C   UNL     1      -1.888   5.141  25.111  0.00  0.00    +0.000 A 
ATOM     23  C   UNL     1      -1.161   5.174  24.724  0.00  0.00    +0.003 A 
ATOM     24  C   UNL     1      -0.592   4.593  24.864  0.00  0.00    +0.037 A 
ENDBRANCH  18  19
ENDBRANCH  17  18
ENDBRANCH  13  14
TORSDOF 4
ENDMDL
MODEL 5
REMARK VINA RESULT:     -10.2      4.083      5.971
REMARK  Name = 
REMARK  4 active torsions:
REMARK  status: ('A' for Active; 'I' for Inactive)
REMARK    1  A    between atoms: C_6  and  N_10
REMARK    2  A    between atoms: N_13  and  C_14
REMARK    3  A    between atoms: C_17  and  O_18
REMARK    4  A    between atoms: O_18  and  C_19
REMARK                            x       y       z     vdW  Elec       q    Type
REMARK                         _______ _______ _______ _____ _____    ______ ____
ROOT
ATOM     10  N   UNL     1       0.794   0.870  23.798  0.00  0.00    -0.184 NA
ATOM     11  C   UNL     1       0.088   0.497  24.005  0.00  0.00    +0.344 C 
ATOM     12  O   UNL     1      -0.116  -0.222  23.657  0.00  0.00    -0.249 OA
ATOM     13  N   UNL     1      -0.415   0.844  24.558  0.00  0.00    -0.161 NA
ENDROOT
BRANCH  10   6
ATOM      1  O   UNL     1       3.669   0.092  21.827  0.00  0.00    -0.218 OA
ATOM      2  C   UNL     1       3.166   0.439  22.381  0.00  0.00    +0.211 C 
ATOM      3  C   UNL     1       3.364   1.048  22.901  0.00  0.00    +0.178 C 
ATOM      4  O   UNL     1       2.697   1.223  23.354  0.00  0.00    -0.349 OA
ATOM      5  C   UNL     1       2.087   0.724  23.114  0.00  0.00    +0.167 C 
ATOM      6  C   UNL     1       1.298   0.523  23.244  0.00  0.00    +0.156 C 
ATOM      7  C   UNL     1       1.099  -0.086  22.724  0.00  0.00    +0.166 C 
ATOM      8  O   UNL     1       1.766  -0.261  22.272  0.00  0.00    -0.349 OA
ATOM      9  C   UNL     1       2.377   0.239  22.512  0.00  0.00    +0.177 C 
ENDBRANCH  10   6
BRANCH  13  14
ATOM     14  C   UNL     1      -1.122   0.472  24.765  0.00  0.00    +0.075 A 
ATOM     15  C   UNL     1      -1.125  -0.116  25.343  0.00  0.00    +0.020 A 
ATOM     16  C   UNL     1      -1.831  -0.488  25.550  0.00  0.00    +0.039 A 
ATOM     17  C   UNL     1      -2.536  -0.272  25.177  0.00  0.00    +0.145 A 
ATOM     25  C   UNL     1      -2.533   0.316  24.598  0.00  0.00    +0.039 A 
ATOM     26  C   UNL     1      -1.826   0.688  24.392  0.00  0.00    +0.020 A 
BRANCH  17  18
ATOM     18  O   UNL     1      -3.242  -0.644  25.383  0.00  0.00    -0.453 OA
BRANCH  18  19
ATOM     19  C   UNL     1      -3.512  -1.291  24.947  0.00  0.00    +0.145 A 
ATOM     20  C   UNL     1      -3.277  -2.054  25.153  0.00  0.00    +0.037 A 
ATOM     21  C   UNL     1      -3.547  -2.700  24.717  0.00  0.00    +0.003 A 
ATOM     22  C   UNL     1      -4.051  -2.583  24.074  0.00  0.00    +0.000 A 
ATOM     23  C   UNL     1      -4.285  -1.819  23.868  0.00  0.00    +0.003 A 
ATOM     24  C   UNL     1      -4.015  -1.173  24.305  0.00  0.00    +0.037 A 
ENDBRANCH  18  19
ENDBRANCH  17  18
ENDBRANCH  13  14
TORSDOF 4
ENDMDL
MODEL 6
REMARK VINA RESULT:      -9.7      3.112      4.333
REMARK  Name = 
REMARK  4 active torsions:
REMARK  status: ('A' for Active; 'I' for Inactive)
REMARK    1  A    between atoms: C_6  and  N_10
REMARK    2  A    between atoms: N_13  and  C_14
REMARK    3  A    between atoms: C_17  and  O_18
REMARK    4  A    between atoms: O_18  and  C_19
REMARK                            x       y       z     vdW  Elec       q    Type
REMARK                         _______ _______ _______ _____ _____    ______ ____
ROOT
ATOM     10  N   UNL     1      -0.900  -0.327  24.220  0.00  0.00    -0.184 NA
ATOM     11  C   UNL     1      -1.643   0.021  24.309  0.00  0.00    +0.344 C 
ATOM     12  O   UNL     1      -1.722   0.841  24.262  0.00  0.00    -0.249 OA
ATOM     13  N   UNL     1      -2.306  -0.450  24.444  0.00  0.00    -0.161 NA
ENDROOT
BRANCH  10   6
ATOM      1  O   UNL     1       2.207   0.893  22.952  0.00  0.00    -0.218 OA
ATOM      2  C   UNL     1       1.544   0.421  23.087  0.00  0.00    +0.211 C 
ATOM      3  C   UNL     1       1.383  -0.303  22.728  0.00  0.00    +0.178 C 
ATOM      4  O   UNL     1       0.665  -0.580  23.024  0.00  0.00    -0.349 OA
ATOM      5  C   UNL     1       0.382  -0.027  23.566  0.00  0.00    +0.167 C 
ATOM      6  C   UNL     1      -0.237   0.144  24.085  0.00  0.00    +0.156 C 
ATOM      7  C   UNL     1      -0.076   0.869  24.444  0.00  0.00    +0.166 C 
ATOM      8  O   UNL     1       0.642   1.146  24.148  0.00  0.00    -0.349 OA
ATOM      9  C   UNL     1       0.925   0.592  23.605  0.00  0.00    +0.177 C 
ENDBRANCH  10   6
BRANCH  13  14
ATOM     14  C   UNL     1      -3.049  -0.102  24.533  0.00  0.00    +0.075 A 
ATOM     15  C   UNL     1      -3.428   0.233  23.882  0.00  0.00    +0.020 A 
ATOM     16  C   UNL     1      -4.170   0.581  23.971  0.00  0.00    +0.039 A 
ATOM     17  C   UNL     1      -4.534   0.594  24.711  0.00  0.00    +0.145 A 
ATOM     25  C   UNL     1      -4.155   0.258  25.363  0.00  0.00    +0.039 A 
ATOM     26  C   UNL     1      -3.412  -0.090  25.273  0.00  0.00    +0.020 A 
BRANCH  17  18
ATOM     18  O   UNL     1      -5.276   0.941  24.801  0.00  0.00    -0.453 OA
BRANCH  18  19
ATOM     19  C   UNL     1      -5.339   1.719  25.072  0.00  0.00    +0.145 A 
ATOM     20  C   UNL     1      -5.056   2.340  24.611  0.00  0.00    +0.037 A 
ATOM     21  C   UNL     1      -5.119   3.117  24.882  0.00  0.00    +0.003 A 
ATOM     22  C   UNL     1      -5.465   3.271  25.615  0.00  0.00    +0.000 A 
ATOM     23  C   UNL     1      -5.748   2.648  26.076  0.00  0.00    +0.003 A 
ATOM     24  C   UNL     1      -5.685   1.872  25.804  0.00  0.00    +0.037 A 
ENDBRANCH  18  19
ENDBRANCH  17  18
ENDBRANCH  13  14
TORSDOF 4
ENDMDL
MODEL 7
REMARK VINA RESULT:      -8.4     17.774     19.261
REMARK  Name = 
REMARK  4 active torsions:
REMARK  status: ('A' for Active; 'I' for Inactive)
REMARK    1  A    between atoms: C_6  and  N_10
REMARK    2  A    between atoms: N_13  and  C_14
REMARK    3  A    between atoms: C_17  and  O_18
REMARK    4  A    between atoms: O_18  and  C_19
REMARK                            x       y       z     vdW  Elec       q    Type
REMARK                         _______ _______ _______ _____ _____    ______ ____
ROOT
ATOM     10  N   UNL     1      11.844   7.949  18.598  0.00  0.00    -0.184 NA
ATOM     11  C   UNL     1      12.506   7.888  19.087  0.00  0.00    +0.344 C 
ATOM     12  O   UNL     1      13.249   8.111  18.805  0.00  0.00    -0.249 OA
ATOM     13  N   UNL     1      12.426   7.606  19.857  0.00  0.00    -0.161 NA
ENDROOT
BRANCH  10   6
ATOM      1  O   UNL     1      11.104   9.090  15.296  0.00  0.00    -0.218 OA
ATOM      2  C   UNL     1      11.023   8.807  16.067  0.00  0.00    +0.211 C 
ATOM      3  C   UNL     1      10.313   8.625  16.445  0.00  0.00    +0.178 C 
ATOM      4  O   UNL     1      10.490   8.363  17.206  0.00  0.00    -0.349 OA
ATOM      5  C   UNL     1      11.309   8.382  17.299  0.00  0.00    +0.167 C 
ATOM      6  C   UNL     1      11.925   8.232  17.827  0.00  0.00    +0.156 C 
ATOM      7  C   UNL     1      12.635   8.414  17.449  0.00  0.00    +0.166 C 
ATOM      8  O   UNL     1      12.458   8.676  16.688  0.00  0.00    -0.349 OA
ATOM      9  C   UNL     1      11.639   8.657  16.595  0.00  0.00    +0.177 C 
ENDBRANCH  10   6
BRANCH  13  14
ATOM     14  C   UNL     1      13.088   7.545  20.346  0.00  0.00    +0.075 A 
ATOM     15  C   UNL     1      13.308   8.181  20.823  0.00  0.00    +0.020 A 
ATOM     16  C   UNL     1      13.969   8.121  21.312  0.00  0.00    +0.039 A 
ATOM     17  C   UNL     1      14.412   7.424  21.324  0.00  0.00    +0.145 A 
ATOM     25  C   UNL     1      14.191   6.787  20.847  0.00  0.00    +0.039 A 
ATOM     26  C   UNL     1      13.529   6.849  20.358  0.00  0.00    +0.020 A 
BRANCH  17  18
ATOM     18  O   UNL     1      15.073   7.362  21.812  0.00  0.00    -0.453 OA
BRANCH  18  19
ATOM     19  C   UNL     1      15.830   7.449  21.495  0.00  0.00    +0.145 A 
ATOM     20  C   UNL     1      16.242   6.787  21.227  0.00  0.00    +0.037 A 
ATOM     21  C   UNL     1      17.000   6.873  20.910  0.00  0.00    +0.003 A 
ATOM     22  C   UNL     1      17.344   7.622  20.862  0.00  0.00    +0.000 A 
ATOM     23  C   UNL     1      16.930   8.283  21.131  0.00  0.00    +0.003 A 
ATOM     24  C   UNL     1      16.174   8.197  21.448  0.00  0.00    +0.037 A 
ENDBRANCH  18  19
ENDBRANCH  17  18
ENDBRANCH  13  14
TORSDOF 4
ENDMDL
MODEL 8
REMARK VINA RESULT:      -8.2     15.363     17.590
REMARK  Name = 
REMARK  4 active torsions:
REMARK  status: ('A' for Active; 'I' for Inactive)
REMARK    1  A    between atoms: C_6  and  N_10
REMARK    2  A    between atoms: N_13  and  C_14
REMARK    3  A    between atoms: C_17  and  O_18
REMARK    4  A    between atoms: O_18  and  C_19
REMARK                            x       y       z     vdW  Elec       q    Type
REMARK                         _______ _______ _______ _____ _____    ______ ____
ROOT
ATOM     10  N   UNL     1      -2.079 -10.777  13.179  0.00  0.00    -0.184 NA
ATOM     11  C   UNL     1      -2.524 -10.519  12.534  0.00  0.00    +0.344 C 
ATOM     12  O   UNL     1      -3.298 -10.256  12.647  0.00  0.00    -0.249 OA
ATOM     13  N   UNL     1      -2.196 -10.524  11.778  0.00  0.00    -0.161 NA
ENDROOT
BRANCH  10   6
ATOM      1  O   UNL     1      -2.442 -10.747  16.732  0.00  0.00    -0.218 OA
ATOM      2  C   UNL     1      -2.114 -10.752  15.975  0.00  0.00    +0.211 C 
ATOM      3  C   UNL     1      -1.309 -10.748  15.796  0.00  0.00    +0.178 C 
ATOM      4  O   UNL     1      -1.231 -10.755  14.975  0.00  0.00    -0.349 OA
ATOM      5  C   UNL     1      -1.987 -10.763  14.646  0.00  0.00    +0.167 C 
ATOM      6  C   UNL     1      -2.407 -10.772  13.937  0.00  0.00    +0.156 C 
ATOM      7  C   UNL     1      -3.212 -10.776  14.116  0.00  0.00    +0.166 C 
ATOM      8  O   UNL     1      -3.290 -10.769  14.936  0.00  0.00    -0.349 OA
ATOM      9  C   UNL     1      -2.533 -10.761  15.265  0.00  0.00    +0.177 C 
ENDBRANCH  10   6
BRANCH  13  14
ATOM     14  C   UNL     1      -2.641 -10.265  11.133  0.00  0.00    +0.075 A 
ATOM     15  C   UNL     1      -3.166 -10.781  10.761  0.00  0.00    +0.020 A 
ATOM     16  C   UNL     1      -3.611 -10.523  10.117  0.00  0.00    +0.039 A 
ATOM     17  C   UNL     1      -3.532  -9.748   9.844  0.00  0.00    +0.145 A 
ATOM     25  C   UNL     1      -3.006  -9.232  10.216  0.00  0.00    +0.039 A 
ATOM     26  C   UNL     1      -2.561  -9.491  10.861  0.00  0.00    +0.020 A 
BRANCH  17  18
ATOM     18  O   UNL     1      -3.976  -9.490   9.200  0.00  0.00    -0.453 OA
BRANCH  18  19
ATOM     19  C   UNL     1      -4.746  -9.214   9.312  0.00  0.00    +0.145 A 
ATOM     20  C   UNL     1      -4.873  -8.439   9.564  0.00  0.00    +0.037 A 
ATOM     21  C   UNL     1      -5.643  -8.163   9.676  0.00  0.00    +0.003 A 
ATOM     22  C   UNL     1      -6.285  -8.663   9.537  0.00  0.00    +0.000 A 
ATOM     23  C   UNL     1      -6.156  -9.438   9.286  0.00  0.00    +0.003 A 
ATOM     24  C   UNL     1      -5.386  -9.714   9.174  0.00  0.00    +0.037 A 
ENDBRANCH  18  19
ENDBRANCH  17  18
ENDBRANCH  13  14
TORSDOF 4
ENDMDL
MODEL 9
REMARK VINA RESULT:      -8.0     16.198     18.804
REMARK  Name = 
REMARK  4 active torsions:
REMARK  status: ('A' for Active; 'I' for Inactive)
REMARK    1  A    between atoms: C_6  and  N_10
REMARK    2  A    between atoms: N_13  and  C_14
REMARK    3  A    between atoms: C_17  and  O_18
REMARK    4  A    between atoms: O_18  and  C_19
REMARK                            x       y       z     vdW  Elec       q    Type
REMARK                         _______ _______ _______ _____ _____    ______ ____
ROOT
ATOM     10  N   UNL     1      11.609   7.599  20.142  0.00  0.00    -0.184 NA
ATOM     11  C   UNL     1      12.430   7.541  20.081  0.00  0.00    +0.344 C 
ATOM     12  O   UNL     1      12.884   7.391  20.753  0.00  0.00    -0.249 OA
ATOM     13  N   UNL     1      12.797   7.632  19.348  0.00  0.00    -0.161 NA
ENDROOT
BRANCH  10   6
ATOM      1  O   UNL     1       9.931   8.290  23.218  0.00  0.00    -0.218 OA
ATOM      2  C   UNL     1      10.297   8.381  22.484  0.00  0.00    +0.211 C 
ATOM      3  C   UNL     1      10.410   9.093  22.083  0.00  0.00    +0.178 C 
ATOM      4  O   UNL     1      10.798   8.928  21.375  0.00  0.00    -0.349 OA
ATOM      5  C   UNL     1      10.925   8.115  21.337  0.00  0.00    +0.167 C 
ATOM      6  C   UNL     1      11.243   7.508  20.876  0.00  0.00    +0.156 C 
ATOM      7  C   UNL     1      11.130   6.796  21.276  0.00  0.00    +0.166 C 
ATOM      8  O   UNL     1      10.742   6.962  21.985  0.00  0.00    -0.349 OA
ATOM      9  C   UNL     1      10.615   7.777  22.023  0.00  0.00    +0.177 C 
ENDBRANCH  10   6
BRANCH  13  14
ATOM     14  C   UNL     1      13.618   7.573  19.286  0.00  0.00    +0.075 A 
ATOM     15  C   UNL     1      14.089   8.239  19.401  0.00  0.00    +0.020 A 
ATOM     16  C   UNL     1      14.909   8.181  19.340  0.00  0.00    +0.039 A 
ATOM     17  C   UNL     1      15.259   7.455  19.163  0.00  0.00    +0.145 A 
ATOM     25  C   UNL     1      14.787   6.787  19.048  0.00  0.00    +0.039 A 
ATOM     26  C   UNL     1      13.967   6.847  19.109  0.00  0.00    +0.020 A 
BRANCH  17  18
ATOM     18  O   UNL     1      16.078   7.395  19.102  0.00  0.00    -0.453 OA
BRANCH  18  19
ATOM     19  C   UNL     1      16.521   7.106  19.735  0.00  0.00    +0.145 A 
ATOM     20  C   UNL     1      16.739   6.311  19.757  0.00  0.00    +0.037 A 
ATOM     21  C   UNL     1      17.181   6.022  20.391  0.00  0.00    +0.003 A 
ATOM     22  C   UNL     1      17.405   6.528  21.003  0.00  0.00    +0.000 A 
ATOM     23  C   UNL     1      17.187   7.323  20.980  0.00  0.00    +0.003 A 
ATOM     24  C   UNL     1      16.744   7.612  20.346  0.00  0.00    +0.037 A 
ENDBRANCH  18  19
ENDBRANCH  17  18
ENDBRANCH  13  14
TORSDOF 4
ENDMDL
