MODEL 1
REMARK VINA RESULT:      -8.7      0.000      0.000
REMARK  Name = 
REMARK  5 active torsions:
REMARK  status: ('A' for Active; 'I' for Inactive)
REMARK    1  A    between atoms: N_2  and  C_4
REMARK    2  A    between atoms: C_7  and  C_10
REMARK    3  A    between atoms: N_12  and  C_13
REMARK    4  A    between atoms: C_17  and  N_21
REMARK    5  A    between atoms: C_24  and  C_28
REMARK                            x       y       z     vdW  Elec       q    Type
REMARK                         _______ _______ _______ _____ _____    ______ ____
ROOT
ATOM     13  C   UNL     1      -0.724   0.671  23.957  0.00  0.00    +0.155 C 
ATOM     14  C   UNL     1      -0.960   0.115  24.519  0.00  0.00    +0.166 C 
ATOM     15  O   UNL     1      -1.771   0.204  24.640  0.00  0.00    -0.350 OA
ATOM     16  C   UNL     1      -2.036   0.815  24.154  0.00  0.00    +0.166 C 
ATOM     17  C   UNL     1      -2.701   1.248  23.928  0.00  0.00    +0.154 C 
ATOM     18  C   UNL     1      -2.465   1.804  23.366  0.00  0.00    +0.166 C 
ATOM     19  O   UNL     1      -1.654   1.715  23.245  0.00  0.00    -0.350 OA
ATOM     20  C   UNL     1      -1.389   1.104  23.732  0.00  0.00    +0.166 C 
ENDROOT
BRANCH  17  21
ATOM     21  N   UNL     1      -3.468   1.143  24.213  0.00  0.00    -0.200 NA
ATOM     22  C   UNL     1      -3.885   1.785  24.522  0.00  0.00    +0.236 A 
ATOM     23  N   UNL     1      -4.651   1.680  24.808  0.00  0.00    -0.217 NA
ATOM     24  C   UNL     1      -5.068   2.321  25.117  0.00  0.00    +0.063 A 
ATOM     25  C   UNL     1      -4.718   3.068  25.139  0.00  0.00    +0.035 A 
ATOM     26  C   UNL     1      -3.951   3.173  24.853  0.00  0.00    +0.103 A 
ATOM     27  N   UNL     1      -3.535   2.531  24.545  0.00  0.00    -0.211 NA
BRANCH  24  28
ATOM     28  C   UNL     1      -5.835   2.217  25.402  0.00  0.00    +0.036 C 
ATOM     29  C   UNL     1      -6.602   2.112  25.688  0.00  0.00    +0.006 C 
ATOM     30  C   UNL     1      -6.063   1.904  24.675  0.00  0.00    +0.006 C 
ATOM     31  C   UNL     1      -5.606   2.530  26.131  0.00  0.00    +0.006 C 
ENDBRANCH  24  28
ENDBRANCH  17  21
BRANCH  13  12
ATOM     10  C   UNL     1       0.521   0.121  23.521  0.00  0.00    +0.265 C 
ATOM     11  O   UNL     1       0.231  -0.640  23.656  0.00  0.00    -0.268 OA
ATOM     12  N   UNL     1       0.043   0.776  23.671  0.00  0.00    -0.198 NA
BRANCH  10   7
ATOM      4  C   UNL     1       2.821   0.435  22.664  0.00  0.00    +0.048 A 
ATOM      5  C   UNL     1       2.531   0.928  23.258  0.00  0.00    +0.015 A 
ATOM      6  C   UNL     1       1.765   0.824  23.543  0.00  0.00    +0.006 A 
ATOM      7  C   UNL     1       1.287   0.225  23.235  0.00  0.00    +0.055 A 
ATOM      8  C   UNL     1       1.577  -0.268  22.641  0.00  0.00    +0.006 A 
ATOM      9  C   UNL     1       2.344  -0.164  22.355  0.00  0.00    +0.015 A 
BRANCH   4   2
ATOM      1  C   UNL     1       4.206   0.694  22.901  0.00  0.00    +0.112 C 
ATOM      2  N   UNL     1       3.588   0.539  22.377  0.00  0.00    -0.304 N 
ATOM      3  C   UNL     1       3.737   0.490  21.567  0.00  0.00    +0.112 C 
ENDBRANCH   4   2
ENDBRANCH  10   7
ENDBRANCH  13  12
TORSDOF 5
ENDMDL
MODEL 2
REMARK VINA RESULT:      -8.5      1.176      6.966
REMARK  Name = 
REMARK  5 active torsions:
REMARK  status: ('A' for Active; 'I' for Inactive)
REMARK    1  A    between atoms: N_2  and  C_4
REMARK    2  A    between atoms: C_7  and  C_10
REMARK    3  A    between atoms: N_12  and  C_13
REMARK    4  A    between atoms: C_17  and  N_21
REMARK    5  A    between atoms: C_24  and  C_28
REMARK                            x       y       z     vdW  Elec       q    Type
REMARK                         _______ _______ _______ _____ _____    ______ ____
ROOT
ATOM     13  C   UNL     1      -1.278   2.217  24.339  0.00  0.00    +0.155 C 
ATOM     14  C   UNL     1      -0.838   2.909  24.426  0.00  0.00    +0.166 C 
ATOM     15  O   UNL     1      -0.041   2.717  24.332  0.00  0.00    -0.350 OA
ATOM     16  C   UNL     1       0.011   1.907  24.186  0.00  0.00    +0.166 C 
ATOM     17  C   UNL     1       0.534   1.287  24.037  0.00  0.00    +0.154 C 
ATOM     18  C   UNL     1       0.094   0.596  23.949  0.00  0.00    +0.166 C 
ATOM     19  O   UNL     1      -0.702   0.788  24.044  0.00  0.00    -0.350 OA
ATOM     20  C   UNL     1      -0.754   1.598  24.190  0.00  0.00    +0.166 C 
ENDROOT
BRANCH  17  21
ATOM     21  N   UNL     1       1.356   1.349  23.984  0.00  0.00    -0.200 NA
ATOM     22  C   UNL     1       1.771   0.886  23.441  0.00  0.00    +0.236 A 
ATOM     23  N   UNL     1       2.591   0.948  23.389  0.00  0.00    -0.217 NA
ATOM     24  C   UNL     1       3.006   0.485  22.846  0.00  0.00    +0.063 A 
ATOM     25  C   UNL     1       2.600  -0.039  22.356  0.00  0.00    +0.035 A 
ATOM     26  C   UNL     1       1.779  -0.101  22.408  0.00  0.00    +0.103 A 
ATOM     27  N   UNL     1       1.365   0.362  22.951  0.00  0.00    -0.211 NA
BRANCH  24  28
ATOM     28  C   UNL     1       3.827   0.547  22.794  0.00  0.00    +0.036 C 
ATOM     29  C   UNL     1       4.648   0.608  22.741  0.00  0.00    +0.006 C 
ATOM     30  C   UNL     1       3.748   1.269  22.403  0.00  0.00    +0.006 C 
ATOM     31  C   UNL     1       3.906  -0.176  23.184  0.00  0.00    +0.006 C 
ENDBRANCH  24  28
ENDBRANCH  17  21
BRANCH  13  12
ATOM     10  C   UNL     1      -2.507   2.560  24.984  0.00  0.00    +0.265 C 
ATOM     11  O   UNL     1      -2.092   3.026  25.524  0.00  0.00    -0.268 OA
ATOM     12  N   UNL     1      -2.099   2.155  24.391  0.00  0.00    -0.198 NA
BRANCH  10   7
ATOM      4  C   UNL     1      -4.969   2.375  25.142  0.00  0.00    +0.048 A 
ATOM      5  C   UNL     1      -4.610   3.118  25.144  0.00  0.00    +0.015 A 
ATOM      6  C   UNL     1      -3.790   3.180  25.091  0.00  0.00    +0.006 A 
ATOM      7  C   UNL     1      -3.327   2.499  25.037  0.00  0.00    +0.055 A 
ATOM      8  C   UNL     1      -3.686   1.756  25.034  0.00  0.00    +0.006 A 
ATOM      9  C   UNL     1      -4.508   1.694  25.087  0.00  0.00    +0.015 A 
BRANCH   4   2
ATOM      1  C   UNL     1      -6.201   2.743  25.767  0.00  0.00    +0.112 C 
ATOM      2  N   UNL     1      -5.791   2.314  25.194  0.00  0.00    -0.304 N 
ATOM      3  C   UNL     1      -6.202   1.822  24.674  0.00  0.00    +0.112 C 
ENDBRANCH   4   2
ENDBRANCH  10   7
ENDBRANCH  13  12
TORSDOF 5
ENDMDL
MODEL 3
REMARK VINA RESULT:      -7.9      1.229      1.878
REMARK  Name = 
REMARK  5 active torsions:
REMARK  status: ('A' for Active; 'I' for Inactive)
REMARK    1  A    between atoms: N_2  and  C_4
REMARK    2  A    between atoms: C_7  and  C_10
REMARK    3  A    between atoms: N_12  and  C_13
REMARK    4  A    between atoms: C_17  and  N_21
REMARK    5  A    between atoms: C_24  and  C_28
REMARK                            x       y       z     vdW  Elec       q    Type
REMARK                         _______ _______ _______ _____ _____    ______ ____
ROOT
ATOM     13  C   UNL     1       0.802   0.466  23.476  0.00  0.00    +0.155 C 
ATOM     14  C   UNL     1       0.343  -0.106  23.098  0.00  0.00    +0.166 C 
ATOM     15  O   UNL     1      -0.446   0.130  23.145  0.00  0.00    -0.350 OA
ATOM     16  C   UNL     1      -0.475   0.846  23.551  0.00  0.00    +0.166 C 
ATOM     17  C   UNL     1      -0.980   1.436  23.831  0.00  0.00    +0.154 C 
ATOM     18  C   UNL     1      -0.521   2.007  24.209  0.00  0.00    +0.166 C 
ATOM     19  O   UNL     1       0.268   1.772  24.162  0.00  0.00    -0.350 OA
ATOM     20  C   UNL     1       0.296   1.054  23.755  0.00  0.00    +0.166 C 
ENDROOT
BRANCH  17  21
ATOM     21  N   UNL     1      -1.801   1.450  23.748  0.00  0.00    -0.200 NA
ATOM     22  C   UNL     1      -2.262   1.883  24.278  0.00  0.00    +0.236 A 
ATOM     23  N   UNL     1      -3.082   1.897  24.196  0.00  0.00    -0.217 NA
ATOM     24  C   UNL     1      -3.543   2.330  24.726  0.00  0.00    +0.063 A 
ATOM     25  C   UNL     1      -3.183   2.748  25.339  0.00  0.00    +0.035 A 
ATOM     26  C   UNL     1      -2.362   2.734  25.422  0.00  0.00    +0.103 A 
ATOM     27  N   UNL     1      -1.902   2.301  24.892  0.00  0.00    -0.211 NA
BRANCH  24  28
ATOM     28  C   UNL     1      -4.363   2.345  24.643  0.00  0.00    +0.036 C 
ATOM     29  C   UNL     1      -5.185   2.360  24.560  0.00  0.00    +0.006 C 
ATOM     30  C   UNL     1      -4.414   1.610  25.014  0.00  0.00    +0.006 C 
ATOM     31  C   UNL     1      -4.313   3.080  24.272  0.00  0.00    +0.006 C 
ENDBRANCH  24  28
ENDBRANCH  17  21
BRANCH  13  12
ATOM     10  C   UNL     1       2.096   0.197  22.933  0.00  0.00    +0.265 C 
ATOM     11  O   UNL     1       1.748  -0.042  22.223  0.00  0.00    -0.268 OA
ATOM     12  N   UNL     1       1.623   0.451  23.559  0.00  0.00    -0.198 NA
BRANCH  10   7
ATOM      4  C   UNL     1       4.558   0.153  23.181  0.00  0.00    +0.048 A 
ATOM      5  C   UNL     1       4.186   0.826  22.882  0.00  0.00    +0.015 A 
ATOM      6  C   UNL     1       3.365   0.841  22.799  0.00  0.00    +0.006 A 
ATOM      7  C   UNL     1       2.917   0.183  23.015  0.00  0.00    +0.055 A 
ATOM      8  C   UNL     1       3.289  -0.490  23.314  0.00  0.00    +0.006 A 
ATOM      9  C   UNL     1       4.110  -0.505  23.397  0.00  0.00    +0.015 A 
BRANCH   4   2
ATOM      1  C   UNL     1       5.845  -0.220  22.685  0.00  0.00    +0.112 C 
ATOM      2  N   UNL     1       5.379   0.138  23.264  0.00  0.00    -0.304 N 
ATOM      3  C   UNL     1       5.734   0.482  23.925  0.00  0.00    +0.112 C 
ENDBRANCH   4   2
ENDBRANCH  10   7
ENDBRANCH  13  12
TORSDOF 5
ENDMDL
MODEL 4
REMARK VINA RESULT:      -6.9     15.056     15.816
REMARK  Name = 
REMARK  5 active torsions:
REMARK  status: ('A' for Active; 'I' for Inactive)
REMARK    1  A    between atoms: N_2  and  C_4
REMARK    2  A    between atoms: C_7  and  C_10
REMARK    3  A    between atoms: N_12  and  C_13
REMARK    4  A    between atoms: C_17  and  N_21
REMARK    5  A    between atoms: C_24  and  C_28
REMARK                            x       y       z     vdW  Elec       q    Type
REMARK                         _______ _______ _______ _____ _____    ______ ____
ROOT
ATOM     13  C   UNL     1      -4.559 -10.398  13.628  0.00  0.00    +0.155 C 
ATOM     14  C   UNL     1      -3.859 -10.590  14.019  0.00  0.00    +0.166 C 
ATOM     15  O   UNL     1      -4.038 -10.717  14.814  0.00  0.00    -0.350 OA
ATOM     16  C   UNL     1      -4.848 -10.603  14.914  0.00  0.00    +0.166 C 
ATOM     17  C   UNL     1      -5.460 -10.611  15.467  0.00  0.00    +0.154 C 
ATOM     18  C   UNL     1      -6.161 -10.419  15.076  0.00  0.00    +0.166 C 
ATOM     19  O   UNL     1      -5.981 -10.292  14.281  0.00  0.00    -0.350 OA
ATOM     20  C   UNL     1      -5.170 -10.406  14.181  0.00  0.00    +0.166 C 
ENDROOT
BRANCH  17  21
ATOM     21  N   UNL     1      -5.385 -10.781  16.271  0.00  0.00    -0.200 NA
ATOM     22  C   UNL     1      -5.937 -10.488  16.809  0.00  0.00    +0.236 A 
ATOM     23  N   UNL     1      -5.862 -10.658  17.612  0.00  0.00    -0.217 NA
ATOM     24  C   UNL     1      -6.415 -10.364  18.150  0.00  0.00    +0.063 A 
ATOM     25  C   UNL     1      -7.043  -9.900  17.884  0.00  0.00    +0.035 A 
ATOM     26  C   UNL     1      -7.118  -9.730  17.080  0.00  0.00    +0.103 A 
ATOM     27  N   UNL     1      -6.565 -10.024  16.543  0.00  0.00    -0.211 NA
BRANCH  24  28
ATOM     28  C   UNL     1      -6.340 -10.534  18.954  0.00  0.00    +0.036 C 
ATOM     29  C   UNL     1      -6.264 -10.704  19.758  0.00  0.00    +0.006 C 
ATOM     30  C   UNL     1      -7.153 -10.662  19.003  0.00  0.00    +0.006 C 
ATOM     31  C   UNL     1      -5.526 -10.406  18.904  0.00  0.00    +0.006 C 
ENDBRANCH  24  28
ENDBRANCH  17  21
BRANCH  13  12
ATOM     10  C   UNL     1      -3.972 -10.254  12.332  0.00  0.00    +0.265 C 
ATOM     11  O   UNL     1      -3.234 -10.450  12.645  0.00  0.00    -0.268 OA
ATOM     12  N   UNL     1      -4.635 -10.228  12.824  0.00  0.00    -0.198 NA
BRANCH  10   7
ATOM      4  C   UNL     1      -4.198  -9.743   9.922  0.00  0.00    +0.048 A 
ATOM      5  C   UNL     1      -4.611  -9.296  10.478  0.00  0.00    +0.015 A 
ATOM      6  C   UNL     1      -4.536  -9.466  11.281  0.00  0.00    +0.006 A 
ATOM      7  C   UNL     1      -4.047 -10.084  11.529  0.00  0.00    +0.055 A 
ATOM      8  C   UNL     1      -3.634 -10.531  10.972  0.00  0.00    +0.006 A 
ATOM      9  C   UNL     1      -3.709 -10.361  10.168  0.00  0.00    +0.015 A 
BRANCH   4   2
ATOM      1  C   UNL     1      -4.435 -10.179   8.581  0.00  0.00    +0.112 C 
ATOM      2  N   UNL     1      -4.273  -9.573   9.117  0.00  0.00    -0.304 N 
ATOM      3  C   UNL     1      -4.186  -8.798   8.849  0.00  0.00    +0.112 C 
ENDBRANCH   4   2
ENDBRANCH  10   7
ENDBRANCH  13  12
TORSDOF 5
ENDMDL
MODEL 5
REMARK VINA RESULT:      -6.8     14.930     16.287
REMARK  Name = 
REMARK  5 active torsions:
REMARK  status: ('A' for Active; 'I' for Inactive)
REMARK    1  A    between atoms: N_2  and  C_4
REMARK    2  A    between atoms: C_7  and  C_10
REMARK    3  A    between atoms: N_12  and  C_13
REMARK    4  A    between atoms: C_17  and  N_21
REMARK    5  A    between atoms: C_24  and  C_28
REMARK                            x       y       z     vdW  Elec       q    Type
REMARK                         _______ _______ _______ _____ _____    ______ ____
ROOT
ATOM     13  C   UNL     1      -4.876 -10.595  15.007  0.00  0.00    +0.155 C 
ATOM     14  C   UNL     1      -4.061 -10.606  14.880  0.00  0.00    +0.166 C 
ATOM     15  O   UNL     1      -3.929 -10.549  14.068  0.00  0.00    -0.350 OA
ATOM     16  C   UNL     1      -4.662 -10.504  13.693  0.00  0.00    +0.166 C 
ATOM     17  C   UNL     1      -5.035 -10.441  12.960  0.00  0.00    +0.154 C 
ATOM     18  C   UNL     1      -5.850 -10.431  13.087  0.00  0.00    +0.166 C 
ATOM     19  O   UNL     1      -5.981 -10.487  13.899  0.00  0.00    -0.350 OA
ATOM     20  C   UNL     1      -5.247 -10.532  14.274  0.00  0.00    +0.166 C 
ENDROOT
BRANCH  17  21
ATOM     21  N   UNL     1      -4.658 -10.397  12.227  0.00  0.00    -0.200 NA
ATOM     22  C   UNL     1      -4.855  -9.796  11.697  0.00  0.00    +0.236 A 
ATOM     23  N   UNL     1      -4.479  -9.751  10.965  0.00  0.00    -0.217 NA
ATOM     24  C   UNL     1      -4.676  -9.150  10.435  0.00  0.00    +0.063 A 
ATOM     25  C   UNL     1      -5.251  -8.594  10.638  0.00  0.00    +0.035 A 
ATOM     26  C   UNL     1      -5.628  -8.639  11.371  0.00  0.00    +0.103 A 
ATOM     27  N   UNL     1      -5.430  -9.240  11.900  0.00  0.00    -0.211 NA
BRANCH  24  28
ATOM     28  C   UNL     1      -4.300  -9.106   9.703  0.00  0.00    +0.036 C 
ATOM     29  C   UNL     1      -3.923  -9.061   8.970  0.00  0.00    +0.006 C 
ATOM     30  C   UNL     1      -3.641  -8.765  10.062  0.00  0.00    +0.006 C 
ATOM     31  C   UNL     1      -4.960  -9.446   9.343  0.00  0.00    +0.006 C 
ENDBRANCH  24  28
ENDBRANCH  17  21
BRANCH  13  12
ATOM     10  C   UNL     1      -4.854 -10.408  16.425  0.00  0.00    +0.265 C 
ATOM     11  O   UNL     1      -4.077 -10.132  16.375  0.00  0.00    -0.268 OA
ATOM     12  N   UNL     1      -5.253 -10.640  15.740  0.00  0.00    -0.198 NA
BRANCH  10   7
ATOM      4  C   UNL     1      -5.984 -10.541  18.622  0.00  0.00    +0.048 A 
ATOM      5  C   UNL     1      -5.188 -10.750  18.554  0.00  0.00    +0.015 A 
ATOM      6  C   UNL     1      -4.812 -10.705  17.822  0.00  0.00    +0.006 A 
ATOM      7  C   UNL     1      -5.230 -10.453  17.157  0.00  0.00    +0.055 A 
ATOM      8  C   UNL     1      -6.025 -10.244  17.225  0.00  0.00    +0.006 A 
ATOM      9  C   UNL     1      -6.402 -10.289  17.958  0.00  0.00    +0.015 A 
BRANCH   4   2
ATOM      1  C   UNL     1      -7.161 -10.781  19.396  0.00  0.00    +0.112 C 
ATOM      2  N   UNL     1      -6.361 -10.586  19.355  0.00  0.00    -0.304 N 
ATOM      3  C   UNL     1      -5.937 -10.434  20.047  0.00  0.00    +0.112 C 
ENDBRANCH   4   2
ENDBRANCH  10   7
ENDBRANCH  13  12
TORSDOF 5
ENDMDL
MODEL 6
REMARK VINA RESULT:      -6.7     15.082     16.688
REMARK  Name = 
REMARK  5 active torsions:
REMARK  status: ('A' for Active; 'I' for Inactive)
REMARK    1  A    between atoms: N_2  and  C_4
REMARK    2  A    between atoms: C_7  and  C_10
REMARK    3  A    between atoms: N_12  and  C_13
REMARK    4  A    between atoms: C_17  and  N_21
REMARK    5  A    between atoms: C_24  and  C_28
REMARK                            x       y       z     vdW  Elec       q    Type
REMARK                         _______ _______ _______ _____ _____    ______ ____
ROOT
ATOM     13  C   UNL     1      -6.452 -10.161  15.024  0.00  0.00    +0.155 C 
ATOM     14  C   UNL     1      -5.664 -10.085  15.252  0.00  0.00    +0.166 C 
ATOM     15  O   UNL     1      -5.198 -10.106  14.572  0.00  0.00    -0.350 OA
ATOM     16  C   UNL     1      -5.699 -10.195  13.923  0.00  0.00    +0.166 C 
ATOM     17  C   UNL     1      -5.722 -10.263  13.101  0.00  0.00    +0.154 C 
ATOM     18  C   UNL     1      -6.510 -10.338  12.872  0.00  0.00    +0.166 C 
ATOM     19  O   UNL     1      -6.976 -10.317  13.553  0.00  0.00    -0.350 OA
ATOM     20  C   UNL     1      -6.474 -10.228  14.202  0.00  0.00    +0.166 C 
ENDROOT
BRANCH  17  21
ATOM     21  N   UNL     1      -5.069 -10.256  12.596  0.00  0.00    -0.200 NA
ATOM     22  C   UNL     1      -5.043  -9.729  11.962  0.00  0.00    +0.236 A 
ATOM     23  N   UNL     1      -4.391  -9.722  11.457  0.00  0.00    -0.217 NA
ATOM     24  C   UNL     1      -4.365  -9.195  10.823  0.00  0.00    +0.063 A 
ATOM     25  C   UNL     1      -4.991  -8.674  10.694  0.00  0.00    +0.035 A 
ATOM     26  C   UNL     1      -5.644  -8.681  11.199  0.00  0.00    +0.103 A 
ATOM     27  N   UNL     1      -5.669  -9.208  11.832  0.00  0.00    -0.211 NA
BRANCH  24  28
ATOM     28  C   UNL     1      -3.713  -9.188  10.318  0.00  0.00    +0.036 C 
ATOM     29  C   UNL     1      -3.060  -9.181   9.814  0.00  0.00    +0.006 C 
ATOM     30  C   UNL     1      -4.208  -9.019   9.681  0.00  0.00    +0.006 C 
ATOM     31  C   UNL     1      -3.217  -9.357  10.957  0.00  0.00    +0.006 C 
ENDBRANCH  24  28
ENDBRANCH  17  21
BRANCH  13  12
ATOM     10  C   UNL     1      -7.079  -9.756  16.243  0.00  0.00    +0.265 C 
ATOM     11  O   UNL     1      -6.398  -9.337  16.453  0.00  0.00    -0.268 OA
ATOM     12  N   UNL     1      -7.105 -10.167  15.529  0.00  0.00    -0.198 NA
BRANCH  10   7
ATOM      4  C   UNL     1      -9.035  -9.775  17.758  0.00  0.00    +0.048 A 
ATOM      5  C   UNL     1      -8.979  -9.205  17.165  0.00  0.00    +0.015 A 
ATOM      6  C   UNL     1      -8.327  -9.198  16.660  0.00  0.00    +0.006 A 
ATOM      7  C   UNL     1      -7.731  -9.762  16.748  0.00  0.00    +0.055 A 
ATOM      8  C   UNL     1      -7.787 -10.333  17.341  0.00  0.00    +0.006 A 
ATOM      9  C   UNL     1      -8.440 -10.339  17.846  0.00  0.00    +0.015 A 
BRANCH   4   2
ATOM      1  C   UNL     1      -9.749 -10.358  18.850  0.00  0.00    +0.112 C 
ATOM      2  N   UNL     1      -9.688  -9.782  18.263  0.00  0.00    -0.304 N 
ATOM      3  C   UNL     1     -10.279  -9.213  18.181  0.00  0.00    +0.112 C 
ENDBRANCH   4   2
ENDBRANCH  10   7
ENDBRANCH  13  12
TORSDOF 5
ENDMDL
MODEL 7
REMARK VINA RESULT:      -6.4     15.384     15.946
REMARK  Name = 
REMARK  5 active torsions:
REMARK  status: ('A' for Active; 'I' for Inactive)
REMARK    1  A    between atoms: N_2  and  C_4
REMARK    2  A    between atoms: C_7  and  C_10
REMARK    3  A    between atoms: N_12  and  C_13
REMARK    4  A    between atoms: C_17  and  N_21
REMARK    5  A    between atoms: C_24  and  C_28
REMARK                            x       y       z     vdW  Elec       q    Type
REMARK                         _______ _______ _______ _____ _____    ______ ____
ROOT
ATOM     13  C   UNL     1      -7.102  -9.778  13.081  0.00  0.00    +0.155 C 
ATOM     14  C   UNL     1      -7.881  -9.659  12.836  0.00  0.00    +0.166 C 
ATOM     15  O   UNL     1      -8.371  -9.760  13.492  0.00  0.00    -0.350 OA
ATOM     16  C   UNL     1      -7.897  -9.941  14.141  0.00  0.00    +0.166 C 
ATOM     17  C   UNL     1      -7.905 -10.114  14.947  0.00  0.00    +0.154 C 
ATOM     18  C   UNL     1      -7.126 -10.233  15.192  0.00  0.00    +0.166 C 
ATOM     19  O   UNL     1      -6.636 -10.133  14.536  0.00  0.00    -0.350 OA
ATOM     20  C   UNL     1      -7.112  -9.952  13.887  0.00  0.00    +0.166 C 
ENDROOT
BRANCH  17  21
ATOM     21  N   UNL     1      -8.576 -10.161  15.426  0.00  0.00    -0.200 NA
ATOM     22  C   UNL     1      -8.592  -9.773  16.154  0.00  0.00    +0.236 A 
ATOM     23  N   UNL     1      -9.262  -9.819  16.632  0.00  0.00    -0.217 NA
ATOM     24  C   UNL     1      -9.278  -9.431  17.360  0.00  0.00    +0.063 A 
ATOM     25  C   UNL     1      -8.623  -8.997  17.609  0.00  0.00    +0.035 A 
ATOM     26  C   UNL     1      -7.952  -8.950  17.131  0.00  0.00    +0.103 A 
ATOM     27  N   UNL     1      -7.937  -9.338  16.403  0.00  0.00    -0.211 NA
BRANCH  24  28
ATOM     28  C   UNL     1      -9.948  -9.478  17.838  0.00  0.00    +0.036 C 
ATOM     29  C   UNL     1     -10.618  -9.525  18.317  0.00  0.00    +0.006 C 
ATOM     30  C   UNL     1     -10.251  -8.801  17.478  0.00  0.00    +0.006 C 
ATOM     31  C   UNL     1      -9.644 -10.155  18.198  0.00  0.00    +0.006 C 
ENDBRANCH  24  28
ENDBRANCH  17  21
BRANCH  13  12
ATOM     10  C   UNL     1      -6.461  -9.319  11.888  0.00  0.00    +0.265 C 
ATOM     11  O   UNL     1      -7.163  -8.953  11.653  0.00  0.00    -0.268 OA
ATOM     12  N   UNL     1      -6.431  -9.732  12.602  0.00  0.00    -0.198 NA
BRANCH  10   7
ATOM      4  C   UNL     1      -4.450  -9.179  10.454  0.00  0.00    +0.048 A 
ATOM      5  C   UNL     1      -4.867  -8.494  10.647  0.00  0.00    +0.015 A 
ATOM      6  C   UNL     1      -5.537  -8.541  11.126  0.00  0.00    +0.006 A 
ATOM      7  C   UNL     1      -5.791  -9.272  11.410  0.00  0.00    +0.055 A 
ATOM      8  C   UNL     1      -5.374  -9.957  11.217  0.00  0.00    +0.006 A 
ATOM      9  C   UNL     1      -4.703  -9.911  10.738  0.00  0.00    +0.015 A 
BRANCH   4   2
ATOM      1  C   UNL     1      -3.034  -9.287  10.293  0.00  0.00    +0.112 C 
ATOM      2  N   UNL     1      -3.779  -9.132   9.975  0.00  0.00    -0.304 N 
ATOM      3  C   UNL     1      -3.854  -8.931   9.178  0.00  0.00    +0.112 C 
ENDBRANCH   4   2
ENDBRANCH  10   7
ENDBRANCH  13  12
TORSDOF 5
ENDMDL
