MODEL 1
REMARK VINA RESULT:     -10.5      0.000      0.000
REMARK  Name = 
REMARK  8 active torsions:
REMARK  status: ('A' for Active; 'I' for Inactive)
REMARK    1  A    between atoms: N_6  and  C_7
REMARK    2  A    between atoms: C_7  and  C_8
REMARK    3  A    between atoms: C_11  and  C_14
REMARK    4  A    between atoms: C_18  and  N_19
REMARK    5  A    between atoms: C_20  and  C_22
REMARK    6  A    between atoms: C_25  and  O_26
REMARK    7  A    between atoms: O_26  and  C_27
REMARK    8  A    between atoms: C_27  and  C_28
REMARK                            x       y       z     vdW  Elec       q    Type
REMARK                         _______ _______ _______ _____ _____    ______ ____
ROOT
ATOM      1  O   UNL     1      -1.424  -1.161  25.841  0.00  0.00    -0.221 OA
ATOM      2  C   UNL     1      -2.137  -0.838  25.578  0.00  0.00    +0.173 C 
ATOM      3  C   UNL     1      -2.819  -1.162  25.909  0.00  0.00    +0.036 C 
ATOM      4  C   UNL     1      -3.606  -0.961  25.762  0.00  0.00    +0.020 C 
ATOM      5  C   UNL     1      -3.905  -0.388  25.249  0.00  0.00    +0.073 C 
ATOM      6  N   UNL     1      -3.489   0.126  24.754  0.00  0.00    -0.267 NA
ATOM     17  C   UNL     1      -2.673   0.194  24.653  0.00  0.00    +0.097 C 
ATOM     18  C   UNL     1      -2.071  -0.236  25.019  0.00  0.00    +0.142 C 
ENDROOT
BRANCH  18  19
ATOM     19  N   UNL     1      -1.303  -0.035  24.797  0.00  0.00    -0.199 NA
ATOM     20  C   UNL     1      -1.069  -0.104  24.009  0.00  0.00    +0.265 C 
ATOM     21  O   UNL     1      -1.604  -0.375  23.443  0.00  0.00    -0.268 OA
BRANCH  20  22
ATOM     22  C   UNL     1      -0.300   0.097  23.787  0.00  0.00    +0.055 A 
ATOM     23  C   UNL     1       0.022   0.819  24.025  0.00  0.00    +0.008 A 
ATOM     24  C   UNL     1       0.790   1.021  23.803  0.00  0.00    +0.037 A 
ATOM     25  C   UNL     1       1.237   0.500  23.344  0.00  0.00    +0.139 A 
ATOM     34  C   UNL     1       0.916  -0.221  23.106  0.00  0.00    +0.037 A 
ATOM     35  C   UNL     1       0.146  -0.423  23.328  0.00  0.00    +0.008 A 
BRANCH  25  26
ATOM     26  O   UNL     1       2.006   0.702  23.123  0.00  0.00    -0.471 OA
BRANCH  26  27
ATOM     27  C   UNL     1       2.536   0.116  22.888  0.00  0.00    +0.232 C 
BRANCH  27  28
ATOM     28  C   UNL     1       3.348   0.241  22.961  0.00  0.00    +0.021 A 
ATOM     29  C   UNL     1       3.685   0.940  22.680  0.00  0.00    -0.001 A 
ATOM     30  C   UNL     1       4.497   1.065  22.753  0.00  0.00    -0.000 A 
ATOM     31  C   UNL     1       4.973   0.491  23.107  0.00  0.00    -0.000 A 
ATOM     32  C   UNL     1       4.636  -0.207  23.388  0.00  0.00    -0.000 A 
ATOM     33  C   UNL     1       3.824  -0.332  23.315  0.00  0.00    -0.001 A 
ENDBRANCH  27  28
ENDBRANCH  26  27
ENDBRANCH  25  26
ENDBRANCH  20  22
ENDBRANCH  18  19
BRANCH   6   7
ATOM      7  C   UNL     1      -3.950   0.639  24.303  0.00  0.00    +0.099 C 
BRANCH   7   8
ATOM      8  C   UNL     1      -4.316   1.287  24.661  0.00  0.00    -0.006 A 
ATOM      9  C   UNL     1      -5.086   1.220  24.948  0.00  0.00    -0.003 A 
ATOM     10  C   UNL     1      -5.452   1.867  25.305  0.00  0.00    +0.006 A 
ATOM     11  C   UNL     1      -5.047   2.582  25.375  0.00  0.00    +0.080 A 
ATOM     12  C   UNL     1      -4.277   2.650  25.089  0.00  0.00    +0.006 A 
ATOM     13  C   UNL     1      -3.911   2.003  24.731  0.00  0.00    -0.003 A 
BRANCH  11  14
ATOM     14  C   UNL     1      -5.413   3.229  25.733  0.00  0.00    +0.388 C 
ATOM     15  O   UNL     1      -5.410   3.965  25.357  0.00  0.00    -0.241 OA
ATOM     16  O   UNL     1      -5.783   3.142  26.465  0.00  0.00    -0.241 OA
ENDBRANCH  11  14
ENDBRANCH   7   8
ENDBRANCH   6   7
TORSDOF 8
ENDMDL
MODEL 2
REMARK VINA RESULT:     -10.2      1.508      3.082
REMARK  Name = 
REMARK  8 active torsions:
REMARK  status: ('A' for Active; 'I' for Inactive)
REMARK    1  A    between atoms: N_6  and  C_7
REMARK    2  A    between atoms: C_7  and  C_8
REMARK    3  A    between atoms: C_11  and  C_14
REMARK    4  A    between atoms: C_18  and  N_19
REMARK    5  A    between atoms: C_20  and  C_22
REMARK    6  A    between atoms: C_25  and  O_26
REMARK    7  A    between atoms: O_26  and  C_27
REMARK    8  A    between atoms: C_27  and  C_28
REMARK                            x       y       z     vdW  Elec       q    Type
REMARK                         _______ _______ _______ _____ _____    ______ ____
ROOT
ATOM      1  O   UNL     1      -2.750   2.847  23.305  0.00  0.00    -0.221 OA
ATOM      2  C   UNL     1      -3.237   2.372  23.772  0.00  0.00    +0.173 C 
ATOM      3  C   UNL     1      -4.018   2.627  23.847  0.00  0.00    +0.036 C 
ATOM      4  C   UNL     1      -4.634   2.277  24.271  0.00  0.00    +0.020 C 
ATOM      5  C   UNL     1      -4.621   1.588  24.724  0.00  0.00    +0.073 C 
ATOM      6  N   UNL     1      -3.988   1.077  24.865  0.00  0.00    -0.267 NA
ATOM     17  C   UNL     1      -3.213   1.130  24.588  0.00  0.00    +0.097 C 
ATOM     18  C   UNL     1      -2.879   1.707  24.101  0.00  0.00    +0.142 C 
ENDROOT
BRANCH  18  19
ATOM     19  N   UNL     1      -2.081   1.603  23.921  0.00  0.00    -0.199 NA
ATOM     20  C   UNL     1      -1.509   1.696  24.507  0.00  0.00    +0.265 C 
ATOM     21  O   UNL     1      -1.735   1.893  25.276  0.00  0.00    -0.268 OA
BRANCH  20  22
ATOM     22  C   UNL     1      -0.711   1.592  24.326  0.00  0.00    +0.055 A 
ATOM     23  C   UNL     1      -0.172   2.200  24.471  0.00  0.00    +0.008 A 
ATOM     24  C   UNL     1       0.626   2.096  24.290  0.00  0.00    +0.037 A 
ATOM     25  C   UNL     1       0.885   1.383  23.963  0.00  0.00    +0.139 A 
ATOM     34  C   UNL     1       0.347   0.775  23.818  0.00  0.00    +0.037 A 
ATOM     35  C   UNL     1      -0.451   0.880  24.000  0.00  0.00    +0.008 A 
BRANCH  25  26
ATOM     26  O   UNL     1       1.683   1.280  23.782  0.00  0.00    -0.471 OA
BRANCH  26  27
ATOM     27  C   UNL     1       1.905   0.802  23.148  0.00  0.00    +0.232 C 
BRANCH  27  28
ATOM     28  C   UNL     1       2.702   0.639  23.012  0.00  0.00    +0.021 A 
ATOM     29  C   UNL     1       3.224   1.254  22.833  0.00  0.00    -0.001 A 
ATOM     30  C   UNL     1       4.021   1.091  22.697  0.00  0.00    -0.000 A 
ATOM     31  C   UNL     1       4.297   0.314  22.741  0.00  0.00    -0.000 A 
ATOM     32  C   UNL     1       3.776  -0.299  22.920  0.00  0.00    -0.000 A 
ATOM     33  C   UNL     1       2.979  -0.137  23.056  0.00  0.00    -0.001 A 
ENDBRANCH  27  28
ENDBRANCH  26  27
ENDBRANCH  25  26
ENDBRANCH  20  22
ENDBRANCH  18  19
BRANCH   6   7
ATOM      7  C   UNL     1      -4.153   0.428  25.347  0.00  0.00    +0.099 C 
BRANCH   7   8
ATOM      8  C   UNL     1      -4.035  -0.337  25.061  0.00  0.00    -0.006 A 
ATOM      9  C   UNL     1      -4.420  -0.586  24.376  0.00  0.00    -0.003 A 
ATOM     10  C   UNL     1      -4.302  -1.351  24.091  0.00  0.00    +0.006 A 
ATOM     11  C   UNL     1      -3.799  -1.867  24.491  0.00  0.00    +0.080 A 
ATOM     12  C   UNL     1      -3.413  -1.619  25.177  0.00  0.00    +0.006 A 
ATOM     13  C   UNL     1      -3.531  -0.854  25.462  0.00  0.00    -0.003 A 
BRANCH  11  14
ATOM     14  C   UNL     1      -3.681  -2.633  24.206  0.00  0.00    +0.388 C 
ATOM     15  O   UNL     1      -4.300  -3.036  23.838  0.00  0.00    -0.241 OA
ATOM     16  O   UNL     1      -2.945  -2.995  24.289  0.00  0.00    -0.241 OA
ENDBRANCH  11  14
ENDBRANCH   7   8
ENDBRANCH   6   7
TORSDOF 8
ENDMDL
