MODEL 1
REMARK VINA RESULT:     -10.9      0.000      0.000
REMARK  Name = 
REMARK  6 active torsions:
REMARK  status: ('A' for Active; 'I' for Inactive)
REMARK    1  A    between atoms: C_2  and  N_3
REMARK    2  A    between atoms: N_6  and  C_7
REMARK    3  A    between atoms: C_9  and  C_10
REMARK    4  A    between atoms: C_10  and  C_11
REMARK    5  A    between atoms: C_14  and  C_15
REMARK    6  A    between atoms: C_15  and  C_16
REMARK                            x       y       z     vdW  Elec       q    Type
REMARK                         _______ _______ _______ _____ _____    ______ ____
ROOT
ATOM      7  C   UNL     1      -3.989   2.704  25.050  0.00  0.00    +0.097 C 
ATOM      8  C   UNL     1      -3.715   1.946  24.873  0.00  0.00    +0.022 C 
ATOM      9  C   UNL     1      -4.482   1.651  24.951  0.00  0.00    +0.009 C 
ATOM     20  C   UNL     1      -4.756   2.408  25.127  0.00  0.00    +0.019 C 
ATOM     21  C   UNL     1      -5.565   2.299  25.244  0.00  0.00    +0.002 C 
ATOM     22  C   UNL     1      -5.201   3.076  25.318  0.00  0.00    +0.002 C 
ENDROOT
BRANCH   7   6
ATOM      3  N   UNL     1      -2.469   4.265  25.168  0.00  0.00    -0.187 NA
ATOM      4  C   UNL     1      -2.818   3.521  25.098  0.00  0.00    +0.339 C 
ATOM      5  O   UNL     1      -2.346   2.850  25.006  0.00  0.00    -0.249 OA
ATOM      6  N   UNL     1      -3.640   3.448  25.120  0.00  0.00    -0.189 NA
BRANCH   3   2
ATOM      1  C   UNL     1      -1.301   5.086  25.105  0.00  0.00    +0.025 C 
ATOM      2  C   UNL     1      -1.647   4.338  25.146  0.00  0.00    +0.117 C 
ENDBRANCH   3   2
ENDBRANCH   7   6
BRANCH   9  10
ATOM     10  C   UNL     1      -4.831   0.906  24.880  0.00  0.00    +0.049 C 
BRANCH  10  11
ATOM     11  C   UNL     1      -4.361   0.243  24.736  0.00  0.00    +0.100 A 
ATOM     12  N   UNL     1      -3.983   0.062  24.026  0.00  0.00    -0.082 NA
ATOM     13  O   UNL     1      -3.576  -0.648  24.127  0.00  0.00    -0.358 OA
ATOM     14  C   UNL     1      -3.703  -0.906  24.900  0.00  0.00    +0.154 A 
ATOM     19  C   UNL     1      -4.189  -0.355  25.276  0.00  0.00    +0.054 A 
BRANCH  14  15
ATOM     15  C   UNL     1      -3.398  -1.595  25.238  0.00  0.00    +0.067 C 
BRANCH  15  16
ATOM     16  C   UNL     1      -3.135  -2.209  24.754  0.00  0.00    +0.008 C 
ATOM     17  C   UNL     1      -3.675  -2.759  24.457  0.00  0.00    +0.000 C 
ATOM     18  C   UNL     1      -2.335  -2.274  24.566  0.00  0.00    +0.000 C 
ENDBRANCH  15  16
ENDBRANCH  14  15
ENDBRANCH  10  11
ENDBRANCH   9  10
TORSDOF 6
ENDMDL
MODEL 2
REMARK VINA RESULT:     -10.7      0.840      4.538
REMARK  Name = 
REMARK  6 active torsions:
REMARK  status: ('A' for Active; 'I' for Inactive)
REMARK    1  A    between atoms: C_2  and  N_3
REMARK    2  A    between atoms: N_6  and  C_7
REMARK    3  A    between atoms: C_9  and  C_10
REMARK    4  A    between atoms: C_10  and  C_11
REMARK    5  A    between atoms: C_14  and  C_15
REMARK    6  A    between atoms: C_15  and  C_16
REMARK                            x       y       z     vdW  Elec       q    Type
REMARK                         _______ _______ _______ _____ _____    ______ ____
ROOT
ATOM      7  C   UNL     1      -4.790   1.270  24.934  0.00  0.00    +0.097 C 
ATOM      8  C   UNL     1      -4.155   1.797  24.913  0.00  0.00    +0.022 C 
ATOM      9  C   UNL     1      -4.659   2.412  25.133  0.00  0.00    +0.009 C 
ATOM     20  C   UNL     1      -5.293   1.886  25.154  0.00  0.00    +0.019 C 
ATOM     21  C   UNL     1      -5.932   2.361  25.373  0.00  0.00    +0.002 C 
ATOM     22  C   UNL     1      -6.028   1.517  25.226  0.00  0.00    +0.002 C 
ENDROOT
BRANCH   7   6
ATOM      3  N   UNL     1      -4.320  -0.804  24.443  0.00  0.00    -0.187 NA
ATOM      4  C   UNL     1      -4.228   0.004  24.584  0.00  0.00    +0.339 C 
ATOM      5  O   UNL     1      -3.483   0.353  24.515  0.00  0.00    -0.249 OA
ATOM      6  N   UNL     1      -4.882   0.463  24.793  0.00  0.00    -0.189 NA
BRANCH   3   2
ATOM      1  C   UNL     1      -3.738  -2.083  24.180  0.00  0.00    +0.025 C 
ATOM      2  C   UNL     1      -3.666  -1.263  24.233  0.00  0.00    +0.117 C 
ENDBRANCH   3   2
ENDBRANCH   7   6
BRANCH   9  10
ATOM     10  C   UNL     1      -4.566   3.220  25.274  0.00  0.00    +0.049 C 
BRANCH  10  11
ATOM     11  C   UNL     1      -3.842   3.585  25.120  0.00  0.00    +0.100 A 
ATOM     12  N   UNL     1      -3.565   3.818  24.379  0.00  0.00    -0.082 NA
ATOM     13  O   UNL     1      -2.820   4.159  24.481  0.00  0.00    -0.358 OA
ATOM     14  C   UNL     1      -2.638   4.136  25.285  0.00  0.00    +0.154 A 
ATOM     19  C   UNL     1      -3.270   3.781  25.680  0.00  0.00    +0.054 A 
BRANCH  14  15
ATOM     15  C   UNL     1      -1.945   4.418  25.633  0.00  0.00    +0.067 C 
BRANCH  15  16
ATOM     16  C   UNL     1      -1.222   4.320  25.249  0.00  0.00    +0.008 C 
ATOM     17  C   UNL     1      -0.830   3.594  25.288  0.00  0.00    +0.000 C 
ATOM     18  C   UNL     1      -0.891   4.946  24.827  0.00  0.00    +0.000 C 
ENDBRANCH  15  16
ENDBRANCH  14  15
ENDBRANCH  10  11
ENDBRANCH   9  10
TORSDOF 6
ENDMDL
MODEL 3
REMARK VINA RESULT:      -9.5      2.290      4.002
REMARK  Name = 
REMARK  6 active torsions:
REMARK  status: ('A' for Active; 'I' for Inactive)
REMARK    1  A    between atoms: C_2  and  N_3
REMARK    2  A    between atoms: N_6  and  C_7
REMARK    3  A    between atoms: C_9  and  C_10
REMARK    4  A    between atoms: C_10  and  C_11
REMARK    5  A    between atoms: C_14  and  C_15
REMARK    6  A    between atoms: C_15  and  C_16
REMARK                            x       y       z     vdW  Elec       q    Type
REMARK                         _______ _______ _______ _____ _____    ______ ____
ROOT
ATOM      7  C   UNL     1      -1.224   3.133  24.770  0.00  0.00    +0.097 C 
ATOM      8  C   UNL     1      -2.015   2.920  24.874  0.00  0.00    +0.022 C 
ATOM      9  C   UNL     1      -2.190   3.691  25.112  0.00  0.00    +0.009 C 
ATOM     20  C   UNL     1      -1.400   3.903  25.008  0.00  0.00    +0.019 C 
ATOM     21  C   UNL     1      -1.385   4.702  25.215  0.00  0.00    +0.002 C 
ATOM     22  C   UNL     1      -0.672   4.289  24.963  0.00  0.00    +0.002 C 
ENDROOT
BRANCH   7   6
ATOM      3  N   UNL     1       0.103   1.545  24.077  0.00  0.00    -0.187 NA
ATOM      4  C   UNL     1      -0.580   1.940  24.319  0.00  0.00    +0.339 C 
ATOM      5  O   UNL     1      -1.300   1.539  24.351  0.00  0.00    -0.249 OA
ATOM      6  N   UNL     1      -0.542   2.738  24.528  0.00  0.00    -0.189 NA
BRANCH   3   2
ATOM      1  C   UNL     1       0.696   0.395  23.471  0.00  0.00    +0.025 C 
ATOM      2  C   UNL     1       0.064   0.747  23.867  0.00  0.00    +0.117 C 
ENDBRANCH   3   2
ENDBRANCH   7   6
BRANCH   9  10
ATOM     10  C   UNL     1      -2.873   4.086  25.353  0.00  0.00    +0.049 C 
BRANCH  10  11
ATOM     11  C   UNL     1      -3.615   3.753  25.209  0.00  0.00    +0.100 A 
ATOM     12  N   UNL     1      -4.025   3.776  24.494  0.00  0.00    -0.082 NA
ATOM     13  O   UNL     1      -4.740   3.376  24.598  0.00  0.00    -0.358 OA
ATOM     14  C   UNL     1      -4.770   3.108  25.377  0.00  0.00    +0.154 A 
ATOM     19  C   UNL     1      -4.075   3.341  25.755  0.00  0.00    +0.054 A 
BRANCH  14  15
ATOM     15  C   UNL     1      -5.389   2.681  25.719  0.00  0.00    +0.067 C 
BRANCH  15  16
ATOM     16  C   UNL     1      -5.660   1.990  25.359  0.00  0.00    +0.008 C 
ATOM     17  C   UNL     1      -6.361   2.000  24.923  0.00  0.00    +0.000 C 
ATOM     18  C   UNL     1      -5.231   1.289  25.434  0.00  0.00    +0.000 C 
ENDBRANCH  15  16
ENDBRANCH  14  15
ENDBRANCH  10  11
ENDBRANCH   9  10
TORSDOF 6
ENDMDL
MODEL 4
REMARK VINA RESULT:      -9.2      1.561      4.469
REMARK  Name = 
REMARK  6 active torsions:
REMARK  status: ('A' for Active; 'I' for Inactive)
REMARK    1  A    between atoms: C_2  and  N_3
REMARK    2  A    between atoms: N_6  and  C_7
REMARK    3  A    between atoms: C_9  and  C_10
REMARK    4  A    between atoms: C_10  and  C_11
REMARK    5  A    between atoms: C_14  and  C_15
REMARK    6  A    between atoms: C_15  and  C_16
REMARK                            x       y       z     vdW  Elec       q    Type
REMARK                         _______ _______ _______ _____ _____    ______ ____
ROOT
ATOM      7  C   UNL     1      -3.201  -1.028  24.639  0.00  0.00    +0.097 C 
ATOM      8  C   UNL     1      -3.316  -0.233  24.828  0.00  0.00    +0.022 C 
ATOM      9  C   UNL     1      -4.068  -0.263  24.490  0.00  0.00    +0.009 C 
ATOM     20  C   UNL     1      -3.953  -1.057  24.301  0.00  0.00    +0.019 C 
ATOM     21  C   UNL     1      -4.657  -1.271  23.927  0.00  0.00    +0.002 C 
ATOM     22  C   UNL     1      -4.016  -1.836  24.037  0.00  0.00    +0.002 C 
ENDROOT
BRANCH   7   6
ATOM      3  N   UNL     1      -1.221  -1.843  25.062  0.00  0.00    -0.187 NA
ATOM      4  C   UNL     1      -1.835  -1.302  24.957  0.00  0.00    +0.339 C 
ATOM      5  O   UNL     1      -1.698  -0.496  25.064  0.00  0.00    -0.249 OA
ATOM      6  N   UNL     1      -2.587  -1.569  24.744  0.00  0.00    -0.189 NA
BRANCH   3   2
ATOM      1  C   UNL     1       0.159  -2.110  25.323  0.00  0.00    +0.025 C 
ATOM      2  C   UNL     1      -0.469  -1.576  25.275  0.00  0.00    +0.117 C 
ENDBRANCH   3   2
ENDBRANCH   7   6
BRANCH   9  10
ATOM     10  C   UNL     1      -4.682   0.279  24.385  0.00  0.00    +0.049 C 
BRANCH  10  11
ATOM     11  C   UNL     1      -4.618   1.041  24.695  0.00  0.00    +0.100 A 
ATOM     12  N   UNL     1      -4.825   1.272  25.459  0.00  0.00    -0.082 NA
ATOM     13  O   UNL     1      -4.670   2.080  25.532  0.00  0.00    -0.358 OA
ATOM     14  C   UNL     1      -4.367   2.346  24.813  0.00  0.00    +0.154 A 
ATOM     19  C   UNL     1      -4.335   1.704  24.295  0.00  0.00    +0.054 A 
BRANCH  14  15
ATOM     15  C   UNL     1      -4.137   3.120  24.641  0.00  0.00    +0.067 C 
BRANCH  15  16
ATOM     16  C   UNL     1      -3.525   3.472  25.068  0.00  0.00    +0.008 C 
ATOM     17  C   UNL     1      -2.752   3.446  24.779  0.00  0.00    +0.000 C 
ATOM     18  C   UNL     1      -3.685   3.849  25.784  0.00  0.00    +0.000 C 
ENDBRANCH  15  16
ENDBRANCH  14  15
ENDBRANCH  10  11
ENDBRANCH   9  10
TORSDOF 6
ENDMDL
MODEL 5
REMARK VINA RESULT:      -9.1      2.242      2.970
REMARK  Name = 
REMARK  6 active torsions:
REMARK  status: ('A' for Active; 'I' for Inactive)
REMARK    1  A    between atoms: C_2  and  N_3
REMARK    2  A    between atoms: N_6  and  C_7
REMARK    3  A    between atoms: C_9  and  C_10
REMARK    4  A    between atoms: C_10  and  C_11
REMARK    5  A    between atoms: C_14  and  C_15
REMARK    6  A    between atoms: C_15  and  C_16
REMARK                            x       y       z     vdW  Elec       q    Type
REMARK                         _______ _______ _______ _____ _____    ______ ____
ROOT
ATOM      7  C   UNL     1      -0.660   1.740  24.602  0.00  0.00    +0.097 C 
ATOM      8  C   UNL     1      -1.222   1.253  24.960  0.00  0.00    +0.022 C 
ATOM      9  C   UNL     1      -0.850   0.590  24.640  0.00  0.00    +0.009 C 
ATOM     20  C   UNL     1      -0.289   1.076  24.281  0.00  0.00    +0.019 C 
ATOM     21  C   UNL     1       0.204   0.545  23.886  0.00  0.00    +0.002 C 
ATOM     22  C   UNL     1       0.344   1.394  23.858  0.00  0.00    +0.002 C 
ENDROOT
BRANCH   7   6
ATOM      3  N   UNL     1      -0.940   3.886  24.884  0.00  0.00    -0.187 NA
ATOM      4  C   UNL     1      -1.074   3.072  24.910  0.00  0.00    +0.339 C 
ATOM      5  O   UNL     1      -1.755   2.777  25.271  0.00  0.00    -0.249 OA
ATOM      6  N   UNL     1      -0.526   2.553  24.575  0.00  0.00    -0.189 NA
BRANCH   3   2
ATOM      1  C   UNL     1      -1.388   5.219  25.135  0.00  0.00    +0.025 C 
ATOM      2  C   UNL     1      -1.489   4.405  25.218  0.00  0.00    +0.117 C 
ENDBRANCH   3   2
ENDBRANCH   7   6
BRANCH   9  10
ATOM     10  C   UNL     1      -0.984  -0.224  24.666  0.00  0.00    +0.049 C 
BRANCH  10  11
ATOM     11  C   UNL     1      -1.655  -0.520  25.047  0.00  0.00    +0.100 A 
ATOM     12  N   UNL     1      -1.738  -0.640  25.858  0.00  0.00    -0.082 NA
ATOM     13  O   UNL     1      -2.494  -0.941  25.996  0.00  0.00    -0.358 OA
ATOM     14  C   UNL     1      -2.877  -1.006  25.268  0.00  0.00    +0.154 A 
ATOM     19  C   UNL     1      -2.358  -0.746  24.682  0.00  0.00    +0.054 A 
BRANCH  14  15
ATOM     15  C   UNL     1      -3.645  -1.284  25.148  0.00  0.00    +0.067 C 
BRANCH  15  16
ATOM     16  C   UNL     1      -3.783  -1.894  24.610  0.00  0.00    +0.008 C 
ATOM     17  C   UNL     1      -3.571  -2.668  24.801  0.00  0.00    +0.000 C 
ATOM     18  C   UNL     1      -4.133  -1.730  23.881  0.00  0.00    +0.000 C 
ENDBRANCH  15  16
ENDBRANCH  14  15
ENDBRANCH  10  11
ENDBRANCH   9  10
TORSDOF 6
ENDMDL
MODEL 6
REMARK VINA RESULT:      -9.0      2.291      5.403
REMARK  Name = 
REMARK  6 active torsions:
REMARK  status: ('A' for Active; 'I' for Inactive)
REMARK    1  A    between atoms: C_2  and  N_3
REMARK    2  A    between atoms: N_6  and  C_7
REMARK    3  A    between atoms: C_9  and  C_10
REMARK    4  A    between atoms: C_10  and  C_11
REMARK    5  A    between atoms: C_14  and  C_15
REMARK    6  A    between atoms: C_15  and  C_16
REMARK                            x       y       z     vdW  Elec       q    Type
REMARK                         _______ _______ _______ _____ _____    ______ ____
ROOT
ATOM      7  C   UNL     1      -0.952  -0.063  24.570  0.00  0.00    +0.097 C 
ATOM      8  C   UNL     1      -1.116   0.594  25.041  0.00  0.00    +0.022 C 
ATOM      9  C   UNL     1      -0.472   0.990  24.711  0.00  0.00    +0.009 C 
ATOM     20  C   UNL     1      -0.308   0.333  24.241  0.00  0.00    +0.019 C 
ATOM     21  C   UNL     1       0.357   0.565  23.810  0.00  0.00    +0.002 C 
ATOM     22  C   UNL     1       0.003  -0.213  23.706  0.00  0.00    +0.002 C 
ENDROOT
BRANCH   7   6
ATOM      3  N   UNL     1      -2.369  -1.718  24.706  0.00  0.00    -0.187 NA
ATOM      4  C   UNL     1      -2.029  -0.973  24.805  0.00  0.00    +0.339 C 
ATOM      5  O   UNL     1      -2.424  -0.393  25.238  0.00  0.00    -0.249 OA
ATOM      6  N   UNL     1      -1.292  -0.808  24.470  0.00  0.00    -0.189 NA
BRANCH   3   2
ATOM      1  C   UNL     1      -3.489  -2.591  24.863  0.00  0.00    +0.025 C 
ATOM      2  C   UNL     1      -3.105  -1.883  25.040  0.00  0.00    +0.117 C 
ENDBRANCH   3   2
ENDBRANCH   7   6
BRANCH   9  10
ATOM     10  C   UNL     1      -0.132   1.736  24.811  0.00  0.00    +0.049 C 
BRANCH  10  11
ATOM     11  C   UNL     1      -0.535   2.320  25.233  0.00  0.00    +0.100 A 
ATOM     12  N   UNL     1      -0.593   2.371  26.054  0.00  0.00    -0.082 NA
ATOM     13  O   UNL     1      -1.044   3.037  26.237  0.00  0.00    -0.358 OA
ATOM     14  C   UNL     1      -1.264   3.397  25.528  0.00  0.00    +0.154 A 
ATOM     19  C   UNL     1      -0.950   2.954  24.908  0.00  0.00    +0.054 A 
BRANCH  14  15
ATOM     15  C   UNL     1      -1.720   4.081  25.453  0.00  0.00    +0.067 C 
BRANCH  15  16
ATOM     16  C   UNL     1      -2.540   4.040  25.531  0.00  0.00    +0.008 C 
ATOM     17  C   UNL     1      -3.010   3.896  24.867  0.00  0.00    +0.000 C 
ATOM     18  C   UNL     1      -2.891   4.143  26.270  0.00  0.00    +0.000 C 
ENDBRANCH  15  16
ENDBRANCH  14  15
ENDBRANCH  10  11
ENDBRANCH   9  10
TORSDOF 6
ENDMDL
