MODEL 1
REMARK VINA RESULT:     -13.5      0.000      0.000
REMARK  Name = 
REMARK  4 active torsions:
REMARK  status: ('A' for Active; 'I' for Inactive)
REMARK    1  A    between atoms: C_4  and  C_8
REMARK    2  A    between atoms: C_11  and  C_13
REMARK    3  A    between atoms: N_18  and  C_19
REMARK    4  A    between atoms: C_19  and  C_20
REMARK                            x       y       z     vdW  Elec       q    Type
REMARK                         _______ _______ _______ _____ _____    ______ ____
ROOT
ATOM     13  C   UNL     1      -4.146   2.170  24.923  0.00  0.00    +0.140 C 
ATOM     14  C   UNL     1      -4.900   2.455  25.104  0.00  0.00    +0.060 C 
ATOM     15  C   UNL     1      -4.817   3.213  25.418  0.00  0.00    +0.170 C 
ATOM     16  O   UNL     1      -5.431   3.702  25.674  0.00  0.00    -0.222 OA
ATOM     17  C   UNL     1      -4.013   3.398  25.431  0.00  0.00    +0.106 C 
ATOM     18  N   UNL     1      -3.598   2.753  25.125  0.00  0.00    -0.260 NA
ENDROOT
BRANCH  13  11
ATOM      8  C   UNL     1      -3.766   0.120  24.466  0.00  0.00    +0.203 A 
ATOM      9  N   UNL     1      -3.642   0.473  23.730  0.00  0.00    -0.056 NA
ATOM     10  O   UNL     1      -3.770   1.285  23.812  0.00  0.00    -0.336 OA
ATOM     11  C   UNL     1      -3.972   1.433  24.598  0.00  0.00    +0.251 A 
ATOM     12  N   UNL     1      -3.970   0.713  25.002  0.00  0.00    -0.190 NA
BRANCH   8   4
ATOM      1  C   UNL     1      -4.231  -2.607  23.750  0.00  0.00    +0.031 C 
ATOM      2  C   UNL     1      -3.930  -2.048  24.277  0.00  0.00    -0.022 A 
ATOM      3  C   UNL     1      -3.998  -1.243  24.108  0.00  0.00    -0.001 A 
ATOM      4  C   UNL     1      -3.698  -0.684  24.635  0.00  0.00    +0.039 A 
ATOM      5  C   UNL     1      -3.330  -0.929  25.331  0.00  0.00    +0.003 A 
ATOM      6  C   UNL     1      -3.262  -1.734  25.500  0.00  0.00    -0.000 A 
ATOM      7  C   UNL     1      -3.562  -2.294  24.973  0.00  0.00    -0.004 A 
ENDBRANCH   8   4
ENDBRANCH  13  11
BRANCH  18  19
ATOM     19  C   UNL     1      -2.780   2.701  25.037  0.00  0.00    +0.103 C 
BRANCH  19  20
ATOM     20  C   UNL     1      -2.313   3.376  25.115  0.00  0.00    +0.033 A 
ATOM     21  C   UNL     1      -1.604   3.340  25.536  0.00  0.00    +0.193 A 
ATOM     22  O   UNL     1      -1.362   2.629  25.878  0.00  0.00    -0.287 OA
ATOM     23  C   UNL     1      -1.136   4.015  25.614  0.00  0.00    +0.042 A 
ATOM     24  C   UNL     1      -1.378   4.726  25.272  0.00  0.00    +0.003 A 
ATOM     25  C   UNL     1      -2.086   4.762  24.852  0.00  0.00    -0.000 A 
ATOM     26  C   UNL     1      -2.554   4.087  24.773  0.00  0.00    +0.000 A 
ENDBRANCH  19  20
ENDBRANCH  18  19
TORSDOF 4
ENDMDL
MODEL 2
REMARK VINA RESULT:     -13.1      1.091      4.639
REMARK  Name = 
REMARK  4 active torsions:
REMARK  status: ('A' for Active; 'I' for Inactive)
REMARK    1  A    between atoms: C_4  and  C_8
REMARK    2  A    between atoms: C_11  and  C_13
REMARK    3  A    between atoms: N_18  and  C_19
REMARK    4  A    between atoms: C_19  and  C_20
REMARK                            x       y       z     vdW  Elec       q    Type
REMARK                         _______ _______ _______ _____ _____    ______ ____
ROOT
ATOM     13  C   UNL     1      -4.121   1.537  24.667  0.00  0.00    +0.140 C 
ATOM     14  C   UNL     1      -4.879   1.844  24.774  0.00  0.00    +0.060 C 
ATOM     15  C   UNL     1      -5.378   1.224  24.991  0.00  0.00    +0.170 C 
ATOM     16  O   UNL     1      -6.184   1.284  25.152  0.00  0.00    -0.222 OA
ATOM     17  C   UNL     1      -4.927   0.533  25.019  0.00  0.00    +0.106 C 
ATOM     18  N   UNL     1      -4.150   0.727  24.818  0.00  0.00    -0.260 NA
ENDROOT
BRANCH  13  11
ATOM      8  C   UNL     1      -2.360   2.733  24.504  0.00  0.00    +0.203 A 
ATOM      9  N   UNL     1      -2.479   2.517  23.717  0.00  0.00    -0.056 NA
ATOM     10  O   UNL     1      -3.154   2.042  23.682  0.00  0.00    -0.336 OA
ATOM     11  C   UNL     1      -3.451   1.965  24.447  0.00  0.00    +0.251 A 
ATOM     12  N   UNL     1      -2.960   2.392  24.956  0.00  0.00    -0.190 NA
BRANCH   8   4
ATOM      1  C   UNL     1      -1.291   5.322  25.069  0.00  0.00    +0.031 C 
ATOM      2  C   UNL     1      -1.213   4.500  25.072  0.00  0.00    -0.022 A 
ATOM      3  C   UNL     1      -1.826   4.027  24.787  0.00  0.00    -0.001 A 
ATOM      4  C   UNL     1      -1.747   3.206  24.790  0.00  0.00    +0.039 A 
ATOM      5  C   UNL     1      -1.057   2.858  25.078  0.00  0.00    +0.003 A 
ATOM      6  C   UNL     1      -0.445   3.331  25.363  0.00  0.00    -0.000 A 
ATOM      7  C   UNL     1      -0.523   4.153  25.360  0.00  0.00    -0.004 A 
ENDBRANCH   8   4
ENDBRANCH  13  11
BRANCH  18  19
ATOM     19  C   UNL     1      -3.516   0.202  24.777  0.00  0.00    +0.103 C 
BRANCH  19  20
ATOM     20  C   UNL     1      -3.652  -0.604  24.667  0.00  0.00    +0.033 A 
ATOM     21  C   UNL     1      -3.341  -1.152  25.199  0.00  0.00    +0.193 A 
ATOM     22  O   UNL     1      -2.892  -0.894  25.841  0.00  0.00    -0.287 OA
ATOM     23  C   UNL     1      -3.478  -1.958  25.089  0.00  0.00    +0.042 A 
ATOM     24  C   UNL     1      -3.927  -2.216  24.446  0.00  0.00    +0.003 A 
ATOM     25  C   UNL     1      -4.239  -1.668  23.915  0.00  0.00    -0.000 A 
ATOM     26  C   UNL     1      -4.102  -0.862  24.024  0.00  0.00    +0.000 A 
ENDBRANCH  19  20
ENDBRANCH  18  19
TORSDOF 4
ENDMDL
MODEL 3
REMARK VINA RESULT:     -12.7      2.023      5.327
REMARK  Name = 
REMARK  4 active torsions:
REMARK  status: ('A' for Active; 'I' for Inactive)
REMARK    1  A    between atoms: C_4  and  C_8
REMARK    2  A    between atoms: C_11  and  C_13
REMARK    3  A    between atoms: N_18  and  C_19
REMARK    4  A    between atoms: C_19  and  C_20
REMARK                            x       y       z     vdW  Elec       q    Type
REMARK                         _______ _______ _______ _____ _____    ______ ____
ROOT
ATOM     13  C   UNL     1      -0.815   0.647  24.869  0.00  0.00    +0.140 C 
ATOM     14  C   UNL     1      -0.196   0.411  24.376  0.00  0.00    +0.060 C 
ATOM     15  C   UNL     1      -0.365  -0.347  24.099  0.00  0.00    +0.170 C 
ATOM     16  O   UNL     1       0.107  -0.794  23.591  0.00  0.00    -0.222 OA
ATOM     17  C   UNL     1      -1.089  -0.580  24.420  0.00  0.00    +0.106 C 
ATOM     18  N   UNL     1      -1.367   0.034  24.895  0.00  0.00    -0.260 NA
ENDROOT
BRANCH  13  11
ATOM      8  C   UNL     1      -1.144   2.646  25.542  0.00  0.00    +0.203 A 
ATOM      9  N   UNL     1      -0.775   2.314  26.202  0.00  0.00    -0.056 NA
ATOM     10  O   UNL     1      -0.606   1.524  26.029  0.00  0.00    -0.336 OA
ATOM     11  C   UNL     1      -0.872   1.368  25.264  0.00  0.00    +0.251 A 
ATOM     12  N   UNL     1      -1.204   2.061  24.963  0.00  0.00    -0.190 NA
BRANCH   8   4
ATOM      1  C   UNL     1      -0.702   5.344  24.713  0.00  0.00    +0.031 C 
ATOM      2  C   UNL     1      -1.186   4.773  25.060  0.00  0.00    -0.022 A 
ATOM      3  C   UNL     1      -0.923   3.994  25.128  0.00  0.00    -0.001 A 
ATOM      4  C   UNL     1      -1.407   3.425  25.475  0.00  0.00    +0.039 A 
ATOM      5  C   UNL     1      -2.155   3.632  25.755  0.00  0.00    +0.003 A 
ATOM      6  C   UNL     1      -2.418   4.411  25.687  0.00  0.00    -0.000 A 
ATOM      7  C   UNL     1      -1.934   4.982  25.340  0.00  0.00    -0.004 A 
ENDBRANCH   8   4
ENDBRANCH  13  11
BRANCH  18  19
ATOM     19  C   UNL     1      -2.072   0.035  25.322  0.00  0.00    +0.103 C 
BRANCH  19  20
ATOM     20  C   UNL     1      -2.700  -0.443  25.083  0.00  0.00    +0.033 A 
ATOM     21  C   UNL     1      -3.007  -1.009  25.598  0.00  0.00    +0.193 A 
ATOM     22  O   UNL     1      -2.685  -1.099  26.352  0.00  0.00    -0.287 OA
ATOM     23  C   UNL     1      -3.635  -1.488  25.358  0.00  0.00    +0.042 A 
ATOM     24  C   UNL     1      -3.956  -1.399  24.604  0.00  0.00    +0.003 A 
ATOM     25  C   UNL     1      -3.650  -0.832  24.089  0.00  0.00    -0.000 A 
ATOM     26  C   UNL     1      -3.022  -0.354  24.328  0.00  0.00    +0.000 A 
ENDBRANCH  19  20
ENDBRANCH  18  19
TORSDOF 4
ENDMDL
MODEL 4
REMARK VINA RESULT:     -12.7      1.640      2.661
REMARK  Name = 
REMARK  4 active torsions:
REMARK  status: ('A' for Active; 'I' for Inactive)
REMARK    1  A    between atoms: C_4  and  C_8
REMARK    2  A    between atoms: C_11  and  C_13
REMARK    3  A    between atoms: N_18  and  C_19
REMARK    4  A    between atoms: C_19  and  C_20
REMARK                            x       y       z     vdW  Elec       q    Type
REMARK                         _______ _______ _______ _____ _____    ______ ____
ROOT
ATOM     13  C   UNL     1      -1.072   0.981  24.750  0.00  0.00    +0.140 C 
ATOM     14  C   UNL     1      -0.299   0.874  24.482  0.00  0.00    +0.060 C 
ATOM     15  C   UNL     1       0.025   1.617  24.331  0.00  0.00    +0.170 C 
ATOM     16  O   UNL     1       0.787   1.767  24.054  0.00  0.00    -0.222 OA
ATOM     17  C   UNL     1      -0.548   2.185  24.507  0.00  0.00    +0.106 C 
ATOM     18  N   UNL     1      -1.226   1.792  24.766  0.00  0.00    -0.260 NA
ENDROOT
BRANCH  13  11
ATOM      8  C   UNL     1      -2.531  -0.569  24.902  0.00  0.00    +0.203 A 
ATOM      9  N   UNL     1      -2.286  -0.503  25.688  0.00  0.00    -0.056 NA
ATOM     10  O   UNL     1      -1.710   0.086  25.726  0.00  0.00    -0.336 OA
ATOM     11  C   UNL     1      -1.598   0.384  24.965  0.00  0.00    +0.251 A 
ATOM     12  N   UNL     1      -2.106  -0.021  24.456  0.00  0.00    -0.190 NA
BRANCH   8   4
ATOM      1  C   UNL     1      -3.455  -3.242  24.490  0.00  0.00    +0.031 C 
ATOM      2  C   UNL     1      -3.563  -2.428  24.409  0.00  0.00    -0.022 A 
ATOM      3  C   UNL     1      -2.993  -1.905  24.696  0.00  0.00    -0.001 A 
ATOM      4  C   UNL     1      -3.101  -1.092  24.614  0.00  0.00    +0.039 A 
ATOM      5  C   UNL     1      -3.779  -0.800  24.245  0.00  0.00    +0.003 A 
ATOM      6  C   UNL     1      -4.348  -1.322  23.957  0.00  0.00    -0.000 A 
ATOM      7  C   UNL     1      -4.241  -2.137  24.039  0.00  0.00    -0.004 A 
ENDBRANCH   8   4
ENDBRANCH  13  11
BRANCH  18  19
ATOM     19  C   UNL     1      -1.932   2.147  24.999  0.00  0.00    +0.103 C 
BRANCH  19  20
ATOM     20  C   UNL     1      -1.963   2.961  25.125  0.00  0.00    +0.033 A 
ATOM     21  C   UNL     1      -2.554   3.412  24.768  0.00  0.00    +0.193 A 
ATOM     22  O   UNL     1      -3.116   3.049  24.285  0.00  0.00    -0.287 OA
ATOM     23  C   UNL     1      -2.585   4.228  24.894  0.00  0.00    +0.042 A 
ATOM     24  C   UNL     1      -2.024   4.591  25.377  0.00  0.00    +0.003 A 
ATOM     25  C   UNL     1      -1.433   4.140  25.734  0.00  0.00    -0.000 A 
ATOM     26  C   UNL     1      -1.402   3.326  25.608  0.00  0.00    +0.000 A 
ENDBRANCH  19  20
ENDBRANCH  18  19
TORSDOF 4
ENDMDL
MODEL 5
REMARK VINA RESULT:     -12.4      1.666      4.904
REMARK  Name = 
REMARK  4 active torsions:
REMARK  status: ('A' for Active; 'I' for Inactive)
REMARK    1  A    between atoms: C_4  and  C_8
REMARK    2  A    between atoms: C_11  and  C_13
REMARK    3  A    between atoms: N_18  and  C_19
REMARK    4  A    between atoms: C_19  and  C_20
REMARK                            x       y       z     vdW  Elec       q    Type
REMARK                         _______ _______ _______ _____ _____    ______ ____
ROOT
ATOM     13  C   UNL     1      -2.264   0.512  24.360  0.00  0.00    +0.140 C 
ATOM     14  C   UNL     1      -1.444   0.574  24.427  0.00  0.00    +0.060 C 
ATOM     15  C   UNL     1      -1.139  -0.184  24.537  0.00  0.00    +0.170 C 
ATOM     16  O   UNL     1      -0.342  -0.377  24.630  0.00  0.00    -0.222 OA
ATOM     17  C   UNL     1      -1.770  -0.715  24.538  0.00  0.00    +0.106 C 
ATOM     18  N   UNL     1      -2.466  -0.285  24.429  0.00  0.00    -0.260 NA
ENDROOT
BRANCH  13  11
ATOM      8  C   UNL     1      -3.678   2.107  24.473  0.00  0.00    +0.203 A 
ATOM      9  N   UNL     1      -3.521   2.091  23.663  0.00  0.00    -0.056 NA
ATOM     10  O   UNL     1      -2.972   1.491  23.522  0.00  0.00    -0.336 OA
ATOM     11  C   UNL     1      -2.790   1.137  24.245  0.00  0.00    +0.251 A 
ATOM     12  N   UNL     1      -3.227   1.518  24.832  0.00  0.00    -0.190 NA
BRANCH   8   4
ATOM      1  C   UNL     1      -6.133   2.571  25.860  0.00  0.00    +0.031 C 
ATOM      2  C   UNL     1      -5.423   2.855  25.549  0.00  0.00    -0.022 A 
ATOM      3  C   UNL     1      -4.905   2.339  25.166  0.00  0.00    -0.001 A 
ATOM      4  C   UNL     1      -4.196   2.623  24.856  0.00  0.00    +0.039 A 
ATOM      5  C   UNL     1      -4.004   3.422  24.928  0.00  0.00    +0.003 A 
ATOM      6  C   UNL     1      -4.522   3.938  25.311  0.00  0.00    -0.000 A 
ATOM      7  C   UNL     1      -5.232   3.654  25.622  0.00  0.00    -0.004 A 
ENDBRANCH   8   4
ENDBRANCH  13  11
BRANCH  18  19
ATOM     19  C   UNL     1      -3.228  -0.597  24.394  0.00  0.00    +0.103 C 
BRANCH  19  20
ATOM     20  C   UNL     1      -3.356  -1.394  24.564  0.00  0.00    +0.033 A 
ATOM     21  C   UNL     1      -3.785  -1.864  24.040  0.00  0.00    +0.193 A 
ATOM     22  O   UNL     1      -4.087  -1.539  23.345  0.00  0.00    -0.287 OA
ATOM     23  C   UNL     1      -3.914  -2.662  24.211  0.00  0.00    +0.042 A 
ATOM     24  C   UNL     1      -3.612  -2.988  24.907  0.00  0.00    +0.003 A 
ATOM     25  C   UNL     1      -3.183  -2.517  25.431  0.00  0.00    -0.000 A 
ATOM     26  C   UNL     1      -3.055  -1.720  25.260  0.00  0.00    +0.000 A 
ENDBRANCH  19  20
ENDBRANCH  18  19
TORSDOF 4
ENDMDL
