REMARK  Name = 
REMARK  5 active torsions:
REMARK  status: ('A' for Active; 'I' for Inactive)
REMARK    1  A    between atoms: C_2  and  C_4
REMARK    2  A    between atoms: C_4  and  C_5
REMARK    3  A    between atoms: C_5  and  C_6
REMARK    4  A    between atoms: C_13  and  C_14
REMARK    5  A    between atoms: N_16  and  C_17
REMARK                            x       y       z     vdW  Elec       q    Type
REMARK                         _______ _______ _______ _____ _____    ______ ____
ROOT
ATOM      6  C   UNL     1       1.429  -2.475   0.000  0.00  0.00    +0.227 C 
ATOM      7  O   UNL     1       1.429  -3.300   0.000  0.00  0.00    -0.275 OA
ATOM      8  N   UNL     1       2.143  -2.062   0.000  0.00  0.00    -0.267 N 
ATOM      9  C   UNL     1       2.143  -1.238   0.000  0.00  0.00    +0.141 C 
ATOM     10  C   UNL     1       2.858  -0.825   0.000  0.00  0.00    +0.094 A 
ATOM     11  C   UNL     1       3.572  -1.238   0.000  0.00  0.00    +0.078 A 
ATOM     12  C   UNL     1       3.572  -2.062   0.000  0.00  0.00    +0.076 C 
ATOM     13  C   UNL     1       2.858  -2.475   0.000  0.00  0.00    +0.160 C 
ATOM     23  N   UNL     1       4.185  -0.685   0.000  0.00  0.00    -0.227 NA
ATOM     24  C   UNL     1       3.850   0.068   0.000  0.00  0.00    +0.198 A 
ATOM     25  N   UNL     1       3.029  -0.018   0.000  0.00  0.00    -0.225 NA
ENDROOT
BRANCH  13  14
ATOM     14  C   UNL     1       2.858  -3.300   0.000  0.00  0.00    +0.260 C 
ATOM     15  O   UNL     1       2.143  -3.712   0.000  0.00  0.00    -0.272 OA
ATOM     16  N   UNL     1       3.572  -3.712   0.000  0.00  0.00    -0.206 NA
BRANCH  16  17
ATOM     17  C   UNL     1       4.287  -3.300   0.000  0.00  0.00    +0.095 C 
ATOM     18  C   UNL     1       4.287  -2.475   0.000  0.00  0.00    +0.022 C 
ATOM     19  C   UNL     1       5.001  -2.062   0.000  0.00  0.00    +0.002 C 
ATOM     20  C   UNL     1       5.716  -2.475   0.000  0.00  0.00    +0.000 C 
ATOM     21  C   UNL     1       5.716  -3.300   0.000  0.00  0.00    +0.002 C 
ATOM     22  C   UNL     1       5.001  -3.712   0.000  0.00  0.00    +0.022 C 
ENDBRANCH  16  17
ENDBRANCH  13  14
BRANCH   6   5
ATOM      5  C   UNL     1       0.715  -2.062   0.000  0.00  0.00    +0.097 C 
BRANCH   5   4
ATOM      4  C   UNL     1       0.000  -2.475   0.000  0.00  0.00    +0.124 C 
BRANCH   4   2
ATOM      1  O   UNL     1      -1.429  -2.475   0.000  0.00  0.00    -0.246 OA
ATOM      2  C   UNL     1      -0.715  -2.062   0.000  0.00  0.00    +0.365 C 
ATOM      3  O   UNL     1      -0.715  -1.238   0.000  0.00  0.00    -0.246 OA
ENDBRANCH   4   2
ENDBRANCH   5   4
ENDBRANCH   6   5
TORSDOF 5
