REMARK  Name = 
REMARK  7 active torsions:
REMARK  status: ('A' for Active; 'I' for Inactive)
REMARK    1  A    between atoms: O_2  and  C_3
REMARK    2  A    between atoms: C_3  and  C_4
REMARK    3  A    between atoms: C_10  and  C_13
REMARK    4  A    between atoms: C_16  and  C_18
REMARK    5  A    between atoms: N_22  and  C_23
REMARK    6  A    between atoms: C_23  and  C_24
REMARK    7  A    between atoms: C_27  and  C_28
REMARK                            x       y       z     vdW  Elec       q    Type
REMARK                         _______ _______ _______ _____ _____    ______ ____
ROOT
ATOM     13  C   UNL     1       0.715   3.466   0.000  0.00  0.00    +0.205 A 
ATOM     14  N   UNL     1       1.382   2.981   0.000  0.00  0.00    -0.056 NA
ATOM     15  O   UNL     1       1.127   2.196   0.000  0.00  0.00    -0.336 OA
ATOM     16  C   UNL     1       0.302   2.196   0.000  0.00  0.00    +0.251 A 
ATOM     17  N   UNL     1       0.047   2.981   0.000  0.00  0.00    -0.190 NA
ENDROOT
BRANCH  13  10
ATOM      4  C   UNL     1       1.429   7.179   0.000  0.00  0.00    +0.277 C 
ATOM      5  O   UNL     1       1.429   8.004   0.000  0.00  0.00    -0.270 OA
ATOM      6  N   UNL     1       0.715   6.766   0.000  0.00  0.00    -0.158 NA
ATOM      7  C   UNL     1       0.715   5.941   0.000  0.00  0.00    +0.155 A 
ATOM      8  N   UNL     1       1.429   5.529   0.000  0.00  0.00    -0.227 NA
ATOM      9  C   UNL     1       1.429   4.704   0.000  0.00  0.00    +0.103 A 
ATOM     10  C   UNL     1       0.715   4.291   0.000  0.00  0.00    +0.058 A 
ATOM     11  C   UNL     1       0.000   4.704   0.000  0.00  0.00    +0.008 A 
ATOM     12  C   UNL     1       0.000   5.529   0.000  0.00  0.00    +0.036 A 
BRANCH   4   3
ATOM      3  C   UNL     1       2.143   6.766   0.000  0.00  0.00    +0.229 C 
BRANCH   3   2
ATOM      1  C   UNL     1       3.572   6.766   0.000  0.00  0.00    +0.175 C 
ATOM      2  O   UNL     1       2.858   7.179   0.000  0.00  0.00    -0.342 OA
ENDBRANCH   3   2
ENDBRANCH   4   3
ENDBRANCH  13  10
BRANCH  16  18
ATOM     18  C   UNL     1      -0.183   1.529   0.000  0.00  0.00    +0.138 C 
ATOM     19  C   UNL     1       0.072   0.745   0.000  0.00  0.00    +0.027 C 
ATOM     20  C   UNL     1      -0.596   0.260   0.000  0.00  0.00    +0.019 C 
ATOM     21  C   UNL     1      -1.263   0.745   0.000  0.00  0.00    +0.073 C 
ATOM     22  N   UNL     1      -1.008   1.529   0.000  0.00  0.00    -0.260 NA
BRANCH  22  23
ATOM     23  C   UNL     1      -1.493   2.196   0.000  0.00  0.00    +0.138 C 
BRANCH  23  24
ATOM     24  C   UNL     1      -2.313   2.110   0.000  0.00  0.00    +0.139 A 
ATOM     25  C   UNL     1      -2.726   1.396   0.000  0.00  0.00    +0.037 A 
ATOM     26  C   UNL     1      -3.533   1.567   0.000  0.00  0.00    +0.038 A 
ATOM     27  C   UNL     1      -3.619   2.388   0.000  0.00  0.00    +0.156 A 
ATOM     30  O   UNL     1      -2.865   2.723   0.000  0.00  0.00    -0.458 OA
BRANCH  27  28
ATOM     28  C   UNL     1      -4.333   2.800   0.000  0.00  0.00    +0.246 C 
ATOM     29  O   UNL     1      -5.048   2.388   0.000  0.00  0.00    -0.212 OA
ENDBRANCH  27  28
ENDBRANCH  23  24
ENDBRANCH  22  23
ENDBRANCH  16  18
TORSDOF 7
