REMARK  Name = 
REMARK  7 active torsions:
REMARK  status: ('A' for Active; 'I' for Inactive)
REMARK    1  A    between atoms: N_7  and  C_8
REMARK    2  A    between atoms: C_8  and  C_9
REMARK    3  A    between atoms: C_9  and  C_10
REMARK    4  A    between atoms: C_15  and  C_16
REMARK    5  A    between atoms: C_16  and  C_17
REMARK    6  A    between atoms: C_20  and  C_22
REMARK    7  A    between atoms: C_22  and  C_23
REMARK                            x       y       z     vdW  Elec       q    Type
REMARK                         _______ _______ _______ _____ _____    ______ ____
ROOT
ATOM     10  C   UNL     1      -0.715  -8.662   0.000  0.00  0.00    +0.022 C 
ATOM     11  C   UNL     1       0.000  -9.075   0.000  0.00  0.00    +0.093 C 
ATOM     12  N   UNL     1       0.000  -9.900   0.000  0.00  0.00    -0.279 N 
ATOM     13  C   UNL     1      -0.715 -10.312   0.000  0.00  0.00    +0.093 C 
ATOM     14  C   UNL     1      -1.429  -9.900   0.000  0.00  0.00    +0.022 C 
ATOM     15  C   UNL     1      -1.429  -9.075   0.000  0.00  0.00    +0.015 C 
ATOM     20  C   UNL     1       0.715 -10.312   0.000  0.00  0.00    +0.230 C 
ATOM     21  O   UNL     1       0.715 -11.137   0.000  0.00  0.00    -0.275 OA
ENDROOT
BRANCH  10   9
ATOM      9  C   UNL     1      -0.715  -7.838   0.000  0.00  0.00    +0.019 C 
BRANCH   9   8
ATOM      8  C   UNL     1      -1.429  -7.425   0.000  0.00  0.00    +0.072 C 
BRANCH   8   7
ATOM      1  C   UNL     1      -2.143  -3.712   0.000  0.00  0.00    +0.095 C 
ATOM      2  C   UNL     1      -1.429  -4.125   0.000  0.00  0.00    +0.226 C 
ATOM      3  O   UNL     1      -0.715  -3.712   0.000  0.00  0.00    -0.275 OA
ATOM      4  N   UNL     1      -1.429  -4.950   0.000  0.00  0.00    -0.277 N 
ATOM      5  C   UNL     1      -0.715  -5.362   0.000  0.00  0.00    +0.111 C 
ATOM      6  C   UNL     1      -0.715  -6.188   0.000  0.00  0.00    +0.094 C 
ATOM      7  N   UNL     1      -1.429  -6.600   0.000  0.00  0.00    -0.270 NA
ATOM     29  C   UNL     1      -2.143  -6.188   0.000  0.00  0.00    +0.094 C 
ATOM     30  C   UNL     1      -2.143  -5.362   0.000  0.00  0.00    +0.111 C 
ENDBRANCH   8   7
ENDBRANCH   9   8
ENDBRANCH  10   9
BRANCH  15  16
ATOM     16  C   UNL     1      -2.143  -8.662   0.000  0.00  0.00    +0.114 C 
BRANCH  16  17
ATOM     17  C   UNL     1      -2.858  -9.075   0.000  0.00  0.00    +0.365 C 
ATOM     18  O   UNL     1      -2.858  -9.900   0.000  0.00  0.00    -0.246 OA
ATOM     19  O   UNL     1      -3.572  -8.662   0.000  0.00  0.00    -0.246 OA
ENDBRANCH  16  17
ENDBRANCH  15  16
BRANCH  20  22
ATOM     22  C   UNL     1       1.429  -9.900   0.000  0.00  0.00    +0.112 C 
BRANCH  22  23
ATOM     23  C   UNL     1       2.143 -10.312   0.000  0.00  0.00    -0.013 A 
ATOM     24  C   UNL     1       2.858  -9.900   0.000  0.00  0.00    -0.004 A 
ATOM     25  C   UNL     1       3.572 -10.312   0.000  0.00  0.00    -0.000 A 
ATOM     26  C   UNL     1       3.572 -11.137   0.000  0.00  0.00    -0.000 A 
ATOM     27  C   UNL     1       2.858 -11.550   0.000  0.00  0.00    -0.000 A 
ATOM     28  C   UNL     1       2.143 -11.137   0.000  0.00  0.00    -0.004 A 
ENDBRANCH  22  23
ENDBRANCH  20  22
TORSDOF 7
