REMARK  Name = 
REMARK  6 active torsions:
REMARK  status: ('A' for Active; 'I' for Inactive)
REMARK    1  A    between atoms: O_2  and  C_3
REMARK    2  A    between atoms: C_6  and  C_7
REMARK    3  A    between atoms: C_7  and  N_8
REMARK    4  A    between atoms: C_12  and  C_13
REMARK    5  A    between atoms: C_15  and  C_18
REMARK    6  A    between atoms: N_21  and  S_22
REMARK                            x       y       z     vdW  Elec       q    Type
REMARK                         _______ _______ _______ _____ _____    ______ ____
ROOT
ATOM     13  C   UNL     1      -2.047  -3.270   0.000  0.00  0.00    +0.251 A 
ATOM     14  N   UNL     1      -2.715  -3.755   0.000  0.00  0.00    -0.190 NA
ATOM     15  C   UNL     1      -3.382  -3.270   0.000  0.00  0.00    +0.203 A 
ATOM     16  N   UNL     1      -3.127  -2.486   0.000  0.00  0.00    -0.056 NA
ATOM     17  O   UNL     1      -2.303  -2.486   0.000  0.00  0.00    -0.336 OA
ENDROOT
BRANCH  15  18
ATOM     18  C   UNL     1      -4.167  -3.525   0.000  0.00  0.00    +0.044 A 
ATOM     19  C   UNL     1      -4.338  -4.332   0.000  0.00  0.00    +0.041 A 
ATOM     20  C   UNL     1      -5.123  -4.587   0.000  0.00  0.00    +0.171 A 
ATOM     21  N   UNL     1      -5.295  -5.394   0.000  0.00  0.00    -0.081 NA
ATOM     26  N   UNL     1      -5.736  -4.035   0.000  0.00  0.00    -0.226 NA
ATOM     27  C   UNL     1      -5.565  -3.228   0.000  0.00  0.00    +0.101 A 
ATOM     28  C   UNL     1      -4.780  -2.973   0.000  0.00  0.00    +0.024 A 
BRANCH  21  22
ATOM     22  S   UNL     1      -4.682  -5.946   0.000  0.00  0.00    +0.076 S 
ATOM     23  C   UNL     1      -4.069  -6.498   0.000  0.00  0.00    +0.202 C 
ATOM     24  O   UNL     1      -5.234  -6.559   0.000  0.00  0.00    -0.153 OA
ATOM     25  O   UNL     1      -4.130  -5.333   0.000  0.00  0.00    -0.153 OA
ENDBRANCH  21  22
ENDBRANCH  15  18
BRANCH  13  12
ATOM      8  N   UNL     1      -0.596  -3.041   0.000  0.00  0.00    -0.263 NA
ATOM      9  C   UNL     1       0.072  -3.525   0.000  0.00  0.00    +0.073 C 
ATOM     10  C   UNL     1      -0.183  -4.310   0.000  0.00  0.00    +0.019 C 
ATOM     11  C   UNL     1      -1.008  -4.310   0.000  0.00  0.00    +0.027 C 
ATOM     12  C   UNL     1      -1.263  -3.525   0.000  0.00  0.00    +0.138 C 
BRANCH   8   7
ATOM      7  C   UNL     1      -0.596  -2.216   0.000  0.00  0.00    +0.099 C 
BRANCH   7   6
ATOM      3  C   UNL     1       1.548  -0.978   0.000  0.00  0.00    +0.139 A 
ATOM      4  C   UNL     1       1.548  -1.803   0.000  0.00  0.00    +0.037 A 
ATOM      5  C   UNL     1       0.834  -2.216   0.000  0.00  0.00    +0.000 A 
ATOM      6  C   UNL     1       0.119  -1.803   0.000  0.00  0.00    -0.006 A 
ATOM     29  C   UNL     1       0.119  -0.978   0.000  0.00  0.00    +0.000 A 
ATOM     30  C   UNL     1       0.834  -0.566   0.000  0.00  0.00    +0.037 A 
BRANCH   3   2
ATOM      1  C   UNL     1       2.262   0.260   0.000  0.00  0.00    +0.252 C 
ATOM      2  O   UNL     1       2.262  -0.566   0.000  0.00  0.00    -0.471 OA
ENDBRANCH   3   2
ENDBRANCH   7   6
ENDBRANCH   8   7
ENDBRANCH  13  12
TORSDOF 6
