REMARK  Name = 
REMARK  8 active torsions:
REMARK  status: ('A' for Active; 'I' for Inactive)
REMARK    1  A    between atoms: N_2  and  C_3
REMARK    2  A    between atoms: N_2  and  C_11
REMARK    3  A    between atoms: C_3  and  C_4
REMARK    4  A    between atoms: C_4  and  C_5
REMARK    5  A    between atoms: C_12  and  C_13
REMARK    6  A    between atoms: C_13  and  N_14
REMARK    7  A    between atoms: N_17  and  C_18
REMARK    8  A    between atoms: C_26  and  C_27
REMARK                            x       y       z     vdW  Elec       q    Type
REMARK                         _______ _______ _______ _____ _____    ______ ____
ROOT
ATOM     11  C   UNL     1       0.675  -2.139   0.000  0.00  0.00    +0.120 C 
ATOM     12  C   UNL     1       1.429  -2.475   0.000  0.00  0.00    +0.154 C 
ATOM     25  O   UNL     1       1.343  -3.296   0.000  0.00  0.00    -0.350 OA
ATOM     26  C   UNL     1       0.536  -3.467   0.000  0.00  0.00    +0.180 C 
ATOM     29  C   UNL     1       0.123  -2.752   0.000  0.00  0.00    +0.198 C 
ATOM     30  O   UNL     1      -0.697  -2.666   0.000  0.00  0.00    -0.219 OA
ENDROOT
BRANCH  11   2
ATOM      1  C   UNL     1       1.117  -0.780   0.000  0.00  0.00    +0.090 C 
ATOM      2  N   UNL     1       0.504  -1.333   0.000  0.00  0.00    -0.268 NA
BRANCH   2   3
ATOM      3  C   UNL     1      -0.281  -1.077   0.000  0.00  0.00    +0.079 C 
BRANCH   3   4
ATOM      4  C   UNL     1      -0.452  -0.271   0.000  0.00  0.00    +0.063 C 
BRANCH   4   5
ATOM      5  C   UNL     1      -1.237  -0.016   0.000  0.00  0.00    +0.060 A 
ATOM      6  N   UNL     1      -1.850  -0.568   0.000  0.00  0.00    -0.248 NA
ATOM      7  C   UNL     1      -2.635  -0.313   0.000  0.00  0.00    +0.098 A 
ATOM      8  C   UNL     1      -2.806   0.494   0.000  0.00  0.00    +0.021 A 
ATOM      9  C   UNL     1      -2.193   1.046   0.000  0.00  0.00    +0.003 A 
ATOM     10  C   UNL     1      -1.409   0.791   0.000  0.00  0.00    +0.015 A 
ENDBRANCH   4   5
ENDBRANCH   3   4
ENDBRANCH   2   3
ENDBRANCH  11   2
BRANCH  26  27
ATOM     27  C   UNL     1       0.200  -4.221   0.000  0.00  0.00    +0.214 C 
ATOM     28  O   UNL     1      -0.620  -4.307   0.000  0.00  0.00    -0.218 OA
ENDBRANCH  26  27
BRANCH  12  13
ATOM     13  C   UNL     1       2.143  -2.062   0.000  0.00  0.00    +0.148 C 
BRANCH  13  14
ATOM     14  N   UNL     1       2.143  -1.238   0.000  0.00  0.00    -0.184 NA
ATOM     15  C   UNL     1       2.858  -0.825   0.000  0.00  0.00    +0.344 C 
ATOM     16  O   UNL     1       2.858   0.000   0.000  0.00  0.00    -0.249 OA
ATOM     17  N   UNL     1       3.572  -1.238   0.000  0.00  0.00    -0.161 NA
BRANCH  17  18
ATOM     18  C   UNL     1       3.572  -2.062   0.000  0.00  0.00    +0.076 A 
ATOM     19  C   UNL     1       4.287  -2.475   0.000  0.00  0.00    +0.028 A 
ATOM     20  C   UNL     1       4.287  -3.300   0.000  0.00  0.00    +0.059 A 
ATOM     21 CL   UNL     1       5.001  -3.712   0.000  0.00  0.00    -0.082 Cl
ATOM     22  C   UNL     1       3.572  -3.712   0.000  0.00  0.00    +0.011 A 
ATOM     23  C   UNL     1       2.858  -3.300   0.000  0.00  0.00    +0.002 A 
ATOM     24  C   UNL     1       2.858  -2.475   0.000  0.00  0.00    +0.017 A 
ENDBRANCH  17  18
ENDBRANCH  13  14
ENDBRANCH  12  13
TORSDOF 8
