REMARK  Name = 
REMARK  7 active torsions:
REMARK  status: ('A' for Active; 'I' for Inactive)
REMARK    1  A    between atoms: C_2  and  C_5
REMARK    2  A    between atoms: C_8  and  C_11
REMARK    3  A    between atoms: C_20  and  C_22
REMARK    4  A    between atoms: C_30  and  C_31
REMARK    5  A    between atoms: C_31  and  C_32
REMARK    6  A    between atoms: N_34  and  C_35
REMARK    7  A    between atoms: C_35  and  C_36
REMARK                            x       y       z     vdW  Elec       q    Type
REMARK                         _______ _______ _______ _____ _____    ______ ____
ROOT
ATOM     11  C   UNL     1       5.365  -0.302   0.000  0.00  0.00    +0.271 C 
ATOM     12  O   UNL     1       4.952  -1.016   0.000  0.00  0.00    -0.268 OA
ATOM     13  N   UNL     1       4.952   0.412   0.000  0.00  0.00    -0.151 NA
ATOM     14  C   UNL     1       4.127   0.412   0.000  0.00  0.00    +0.185 A 
ATOM     15  N   UNL     1       3.643   1.080   0.000  0.00  0.00    -0.227 NA
ATOM     16  C   UNL     1       2.858   0.825   0.000  0.00  0.00    +0.063 A 
ATOM     17  C   UNL     1       2.858   0.000   0.000  0.00  0.00    +0.023 A 
ATOM     18  C   UNL     1       2.143  -0.412   0.000  0.00  0.00    +0.034 C 
ATOM     19  C   UNL     1       1.429   0.000   0.000  0.00  0.00    +0.010 C 
ATOM     20  C   UNL     1       0.715  -0.412   0.000  0.00  0.00    +0.059 C 
ATOM     21  C   UNL     1       1.245  -1.044   0.000  0.00  0.00    +0.005 C 
ATOM     24  C   UNL     1       0.000   0.000   0.000  0.00  0.00    +0.154 C 
ATOM     25  O   UNL     1      -0.715  -0.412   0.000  0.00  0.00    -0.223 OA
ATOM     26  C   UNL     1       0.000   0.825   0.000  0.00  0.00    +0.033 C 
ATOM     27  C   UNL     1       0.715   1.238   0.000  0.00  0.00    +0.003 C 
ATOM     28  C   UNL     1       1.429   0.825   0.000  0.00  0.00    +0.006 C 
ATOM     29  C   UNL     1       1.429   1.650   0.000  0.00  0.00    +0.000 C 
ATOM     30  C   UNL     1       2.143   1.238   0.000  0.00  0.00    +0.050 C 
ATOM     41  S   UNL     1       3.643  -0.255   0.000  0.00  0.00    -0.054 S 
ENDROOT
BRANCH  11   8
ATOM      5  C   UNL     1       7.840  -0.302   0.000  0.00  0.00    -0.023 A 
ATOM      6  C   UNL     1       7.427  -1.016   0.000  0.00  0.00    -0.004 A 
ATOM      7  C   UNL     1       6.602  -1.016   0.000  0.00  0.00    +0.004 A 
ATOM      8  C   UNL     1       6.190  -0.302   0.000  0.00  0.00    +0.055 A 
ATOM      9  C   UNL     1       6.602   0.412   0.000  0.00  0.00    +0.004 A 
ATOM     10  C   UNL     1       7.427   0.412   0.000  0.00  0.00    -0.004 A 
BRANCH   5   2
ATOM      1  C   UNL     1       9.490  -0.302   0.000  0.00  0.00    +0.004 C 
ATOM      2  C   UNL     1       8.665  -0.302   0.000  0.00  0.00    +0.019 C 
ATOM      3  C   UNL     1       8.665   0.523   0.000  0.00  0.00    +0.004 C 
ATOM      4  C   UNL     1       8.665  -1.127   0.000  0.00  0.00    +0.004 C 
ENDBRANCH   5   2
ENDBRANCH  11   8
BRANCH  20  22
ATOM     22  C   UNL     1       0.184  -1.044   0.000  0.00  0.00    +0.184 C 
ATOM     23  O   UNL     1      -0.628  -0.901   0.000  0.00  0.00    -0.220 OA
ENDBRANCH  20  22
BRANCH  30  31
ATOM     31  C   UNL     1       2.143   2.062   0.000  0.00  0.00    +0.093 C 
BRANCH  31  32
ATOM     32  C   UNL     1       1.429   2.475   0.000  0.00  0.00    +0.242 C 
ATOM     33  O   UNL     1       0.715   2.062   0.000  0.00  0.00    -0.273 OA
ATOM     34  N   UNL     1       1.429   3.300   0.000  0.00  0.00    -0.197 NA
BRANCH  34  35
ATOM     35  C   UNL     1       0.715   3.712   0.000  0.00  0.00    +0.179 C 
BRANCH  35  36
ATOM     36  C   UNL     1       0.715   4.537   0.000  0.00  0.00    +0.145 A 
ATOM     37  C   UNL     1       0.047   5.022   0.000  0.00  0.00    +0.038 A 
ATOM     38  C   UNL     1       0.302   5.807   0.000  0.00  0.00    +0.043 A 
ATOM     39  C   UNL     1       1.127   5.807   0.000  0.00  0.00    +0.179 A 
ATOM     40  O   UNL     1       1.382   5.022   0.000  0.00  0.00    -0.453 OA
ENDBRANCH  35  36
ENDBRANCH  34  35
ENDBRANCH  31  32
ENDBRANCH  30  31
TORSDOF 7
