MODEL 1
REMARK VINA RESULT:     -12.6      0.000      0.000
REMARK  Name = 
REMARK  6 active torsions:
REMARK  status: ('A' for Active; 'I' for Inactive)
REMARK    1  A    between atoms: C_2  and  C_4
REMARK    2  A    between atoms: C_6  and  C_7
REMARK    3  A    between atoms: C_7  and  C_8
REMARK    4  A    between atoms: C_11  and  C_13
REMARK    5  A    between atoms: C_23  and  C_24
REMARK    6  A    between atoms: C_24  and  N_25
REMARK                            x       y       z     vdW  Elec       q    Type
REMARK                         _______ _______ _______ _____ _____    ______ ____
ROOT
ATOM      4  C   UNL     1      -2.240   2.264  24.615  0.00  0.00    +0.006 C 
ATOM      5  C   UNL     1      -2.869   1.757  24.446  0.00  0.00    +0.005 C 
ATOM      6  C   UNL     1      -3.638   2.053  24.403  0.00  0.00    +0.027 C 
ATOM     20  C   UNL     1      -3.778   2.856  24.531  0.00  0.00    -0.048 C 
ATOM     21  C   UNL     1      -4.548   3.152  24.489  0.00  0.00    +0.026 C 
ATOM     22  C   UNL     1      -3.151   3.363  24.700  0.00  0.00    -0.033 C 
ATOM     23  C   UNL     1      -2.382   3.067  24.743  0.00  0.00    +0.043 C 
ENDROOT
BRANCH   4   2
ATOM      1  C   UNL     1      -1.153   1.752  25.386  0.00  0.00    +0.000 C 
ATOM      2  C   UNL     1      -1.472   1.969  24.658  0.00  0.00    +0.000 C 
ATOM      3  C   UNL     1      -1.022   1.890  23.970  0.00  0.00    +0.000 C 
ENDBRANCH   4   2
BRANCH   6   7
ATOM      7  C   UNL     1      -4.266   1.545  24.233  0.00  0.00    +0.091 C 
BRANCH   7   8
ATOM      8  C   UNL     1      -4.290   0.791  24.570  0.00  0.00    +0.227 A 
ATOM      9  N   UNL     1      -4.600   0.601  25.310  0.00  0.00    -0.111 NA
ATOM     10  N   UNL     1      -4.509  -0.212  25.423  0.00  0.00    -0.107 NA
ATOM     11  C   UNL     1      -4.143  -0.523  24.752  0.00  0.00    +0.252 A 
ATOM     12  O   UNL     1      -4.007   0.097  24.225  0.00  0.00    -0.419 OA
BRANCH  11  13
ATOM     13  C   UNL     1      -3.946  -1.315  24.631  0.00  0.00    +0.083 A 
ATOM     14  C   UNL     1      -4.279  -1.730  24.001  0.00  0.00    +0.007 A 
ATOM     15  C   UNL     1      -4.083  -2.523  23.879  0.00  0.00    +0.000 A 
ATOM     16  C   UNL     1      -3.553  -2.899  24.389  0.00  0.00    +0.002 A 
ATOM     17  C   UNL     1      -3.221  -2.483  25.018  0.00  0.00    +0.030 A 
ATOM     18  C   UNL     1      -3.417  -1.691  25.140  0.00  0.00    +0.145 A 
ATOM     19  F   UNL     1      -3.084  -1.276  25.769  0.00  0.00    -0.204 F 
ENDBRANCH  11  13
ENDBRANCH   7   8
ENDBRANCH   6   7
BRANCH  23  24
ATOM     24  C   UNL     1      -1.753   3.573  24.912  0.00  0.00    +0.119 C 
BRANCH  24  25
ATOM     25  N   UNL     1      -1.883   4.387  24.968  0.00  0.00    -0.205 NA
ATOM     26  C   UNL     1      -1.243   4.901  25.051  0.00  0.00    +0.242 C 
ATOM     27  C   UNL     1      -1.373   5.715  25.107  0.00  0.00    +0.096 C 
ATOM     28  O   UNL     1      -0.475   4.603  25.079  0.00  0.00    -0.273 OA
ENDBRANCH  24  25
ENDBRANCH  23  24
TORSDOF 6
ENDMDL
MODEL 2
REMARK VINA RESULT:     -12.0      1.783      5.466
REMARK  Name = 
REMARK  6 active torsions:
REMARK  status: ('A' for Active; 'I' for Inactive)
REMARK    1  A    between atoms: C_2  and  C_4
REMARK    2  A    between atoms: C_6  and  C_7
REMARK    3  A    between atoms: C_7  and  C_8
REMARK    4  A    between atoms: C_11  and  C_13
REMARK    5  A    between atoms: C_23  and  C_24
REMARK    6  A    between atoms: C_24  and  N_25
REMARK                            x       y       z     vdW  Elec       q    Type
REMARK                         _______ _______ _______ _____ _____    ______ ____
ROOT
ATOM      4  C   UNL     1      -2.681   0.212  24.510  0.00  0.00    +0.006 C 
ATOM      5  C   UNL     1      -2.029   0.712  24.594  0.00  0.00    +0.005 C 
ATOM      6  C   UNL     1      -1.279   0.394  24.719  0.00  0.00    +0.027 C 
ATOM     20  C   UNL     1      -1.179  -0.424  24.760  0.00  0.00    -0.048 C 
ATOM     21  C   UNL     1      -0.428  -0.743  24.886  0.00  0.00    +0.026 C 
ATOM     22  C   UNL     1      -1.830  -0.924  24.677  0.00  0.00    -0.033 C 
ATOM     23  C   UNL     1      -2.581  -0.606  24.552  0.00  0.00    +0.043 C 
ENDROOT
BRANCH   4   2
ATOM      1  C   UNL     1      -3.947   0.633  25.021  0.00  0.00    +0.000 C 
ATOM      2  C   UNL     1      -3.431   0.530  24.386  0.00  0.00    +0.000 C 
ATOM      3  C   UNL     1      -3.667   0.746  23.624  0.00  0.00    +0.000 C 
ENDBRANCH   4   2
BRANCH   6   7
ATOM      7  C   UNL     1      -0.628   0.895  24.803  0.00  0.00    +0.091 C 
BRANCH   7   8
ATOM      8  C   UNL     1      -0.711   1.618  25.192  0.00  0.00    +0.227 A 
ATOM      9  N   UNL     1      -0.579   1.755  25.993  0.00  0.00    -0.111 NA
ATOM     10  N   UNL     1      -0.728   2.553  26.144  0.00  0.00    -0.107 NA
ATOM     11  C   UNL     1      -0.953   2.908  25.434  0.00  0.00    +0.252 A 
ATOM     12  O   UNL     1      -0.943   2.330  24.845  0.00  0.00    -0.419 OA
BRANCH  11  13
ATOM     13  C   UNL     1      -1.153   3.703  25.331  0.00  0.00    +0.083 A 
ATOM     14  C   UNL     1      -0.627   4.214  24.954  0.00  0.00    +0.007 A 
ATOM     15  C   UNL     1      -0.827   5.009  24.851  0.00  0.00    +0.000 A 
ATOM     16  C   UNL     1      -1.553   5.290  25.126  0.00  0.00    +0.002 A 
ATOM     17  C   UNL     1      -2.077   4.778  25.504  0.00  0.00    +0.030 A 
ATOM     18  C   UNL     1      -1.877   3.984  25.607  0.00  0.00    +0.145 A 
ATOM     19  F   UNL     1      -2.402   3.472  25.984  0.00  0.00    -0.204 F 
ENDBRANCH  11  13
ENDBRANCH   7   8
ENDBRANCH   6   7
BRANCH  23  24
ATOM     24  C   UNL     1      -3.232  -1.105  24.468  0.00  0.00    +0.119 C 
BRANCH  24  25
ATOM     25  N   UNL     1      -3.160  -1.908  24.643  0.00  0.00    -0.205 NA
ATOM     26  C   UNL     1      -3.718  -2.444  24.356  0.00  0.00    +0.242 C 
ATOM     27  C   UNL     1      -3.646  -3.247  24.531  0.00  0.00    +0.096 C 
ATOM     28  O   UNL     1      -4.346  -2.177  23.894  0.00  0.00    -0.273 OA
ENDBRANCH  24  25
ENDBRANCH  23  24
TORSDOF 6
ENDMDL
MODEL 3
REMARK VINA RESULT:     -11.8      1.706      5.119
REMARK  Name = 
REMARK  6 active torsions:
REMARK  status: ('A' for Active; 'I' for Inactive)
REMARK    1  A    between atoms: C_2  and  C_4
REMARK    2  A    between atoms: C_6  and  C_7
REMARK    3  A    between atoms: C_7  and  C_8
REMARK    4  A    between atoms: C_11  and  C_13
REMARK    5  A    between atoms: C_23  and  C_24
REMARK    6  A    between atoms: C_24  and  N_25
REMARK                            x       y       z     vdW  Elec       q    Type
REMARK                         _______ _______ _______ _____ _____    ______ ____
ROOT
ATOM      4  C   UNL     1      -2.915   0.029  25.018  0.00  0.00    +0.006 C 
ATOM      5  C   UNL     1      -3.097   0.825  25.140  0.00  0.00    +0.005 C 
ATOM      6  C   UNL     1      -3.874   1.088  25.058  0.00  0.00    +0.027 C 
ATOM     20  C   UNL     1      -4.470   0.555  24.853  0.00  0.00    -0.048 C 
ATOM     21  C   UNL     1      -5.249   0.819  24.771  0.00  0.00    +0.026 C 
ATOM     22  C   UNL     1      -4.289  -0.240  24.731  0.00  0.00    -0.033 C 
ATOM     23  C   UNL     1      -3.512  -0.503  24.813  0.00  0.00    +0.043 C 
ENDROOT
BRANCH   4   2
ATOM      1  C   UNL     1      -1.636  -0.247  24.447  0.00  0.00    +0.000 C 
ATOM      2  C   UNL     1      -2.139  -0.234  25.100  0.00  0.00    +0.000 C 
ATOM      3  C   UNL     1      -1.863  -0.485  25.837  0.00  0.00    +0.000 C 
ENDBRANCH   4   2
BRANCH   6   7
ATOM      7  C   UNL     1      -4.055   1.884  25.180  0.00  0.00    +0.091 C 
BRANCH   7   8
ATOM      8  C   UNL     1      -3.588   2.471  24.834  0.00  0.00    +0.227 A 
ATOM      9  N   UNL     1      -3.656   2.750  24.062  0.00  0.00    -0.111 NA
ATOM     10  N   UNL     1      -3.082   3.333  23.951  0.00  0.00    -0.107 NA
ATOM     11  C   UNL     1      -2.660   3.413  24.655  0.00  0.00    +0.252 A 
ATOM     12  O   UNL     1      -2.973   2.879  25.202  0.00  0.00    -0.419 OA
BRANCH  11  13
ATOM     13  C   UNL     1      -2.034   3.934  24.789  0.00  0.00    +0.083 A 
ATOM     14  C   UNL     1      -2.180   4.678  25.113  0.00  0.00    +0.007 A 
ATOM     15  C   UNL     1      -1.555   5.200  25.247  0.00  0.00    +0.000 A 
ATOM     16  C   UNL     1      -0.783   4.975  25.056  0.00  0.00    +0.002 A 
ATOM     17  C   UNL     1      -0.638   4.232  24.733  0.00  0.00    +0.030 A 
ATOM     18  C   UNL     1      -1.264   3.710  24.599  0.00  0.00    +0.145 A 
ATOM     19  F   UNL     1      -1.118   2.966  24.275  0.00  0.00    -0.204 F 
ENDBRANCH  11  13
ENDBRANCH   7   8
ENDBRANCH   6   7
BRANCH  23  24
ATOM     24  C   UNL     1      -3.330  -1.298  24.691  0.00  0.00    +0.119 C 
BRANCH  24  25
ATOM     25  N   UNL     1      -3.843  -1.776  24.255  0.00  0.00    -0.205 NA
ATOM     26  C   UNL     1      -3.751  -2.596  24.266  0.00  0.00    +0.242 C 
ATOM     27  C   UNL     1      -4.265  -3.074  23.830  0.00  0.00    +0.096 C 
ATOM     28  O   UNL     1      -3.148  -2.937  24.711  0.00  0.00    -0.273 OA
ENDBRANCH  24  25
ENDBRANCH  23  24
TORSDOF 6
ENDMDL
MODEL 4
REMARK VINA RESULT:     -11.7      1.148      2.035
REMARK  Name = 
REMARK  6 active torsions:
REMARK  status: ('A' for Active; 'I' for Inactive)
REMARK    1  A    between atoms: C_2  and  C_4
REMARK    2  A    between atoms: C_6  and  C_7
REMARK    3  A    between atoms: C_7  and  C_8
REMARK    4  A    between atoms: C_11  and  C_13
REMARK    5  A    between atoms: C_23  and  C_24
REMARK    6  A    between atoms: C_24  and  N_25
REMARK                            x       y       z     vdW  Elec       q    Type
REMARK                         _______ _______ _______ _____ _____    ______ ____
ROOT
ATOM      4  C   UNL     1      -2.366   2.254  24.749  0.00  0.00    +0.006 C 
ATOM      5  C   UNL     1      -2.144   1.459  24.744  0.00  0.00    +0.005 C 
ATOM      6  C   UNL     1      -1.401   1.236  25.026  0.00  0.00    +0.027 C 
ATOM     20  C   UNL     1      -0.881   1.808  25.314  0.00  0.00    -0.048 C 
ATOM     21  C   UNL     1      -0.138   1.585  25.597  0.00  0.00    +0.026 C 
ATOM     22  C   UNL     1      -1.103   2.602  25.320  0.00  0.00    -0.033 C 
ATOM     23  C   UNL     1      -1.845   2.825  25.037  0.00  0.00    +0.043 C 
ENDROOT
BRANCH   4   2
ATOM      1  C   UNL     1      -3.218   2.614  23.662  0.00  0.00    +0.000 C 
ATOM      2  C   UNL     1      -3.107   2.476  24.467  0.00  0.00    +0.000 C 
ATOM      3  C   UNL     1      -3.740   2.562  24.991  0.00  0.00    +0.000 C 
ENDBRANCH   4   2
BRANCH   6   7
ATOM      7  C   UNL     1      -1.180   0.441  25.020  0.00  0.00    +0.091 C 
BRANCH   7   8
ATOM      8  C   UNL     1      -1.743  -0.145  25.165  0.00  0.00    +0.227 A 
ATOM      9  N   UNL     1      -1.982  -0.415  25.907  0.00  0.00    -0.111 NA
ATOM     10  N   UNL     1      -2.553  -1.000  25.793  0.00  0.00    -0.107 NA
ATOM     11  C   UNL     1      -2.666  -1.092  24.981  0.00  0.00    +0.252 A 
ATOM     12  O   UNL     1      -2.166  -0.563  24.593  0.00  0.00    -0.419 OA
BRANCH  11  13
ATOM     13  C   UNL     1      -3.189  -1.620  24.621  0.00  0.00    +0.083 A 
ATOM     14  C   UNL     1      -3.886  -1.341  24.281  0.00  0.00    +0.007 A 
ATOM     15  C   UNL     1      -4.409  -1.869  23.920  0.00  0.00    +0.000 A 
ATOM     16  C   UNL     1      -4.232  -2.675  23.902  0.00  0.00    +0.002 A 
ATOM     17  C   UNL     1      -3.535  -2.953  24.243  0.00  0.00    +0.030 A 
ATOM     18  C   UNL     1      -3.012  -2.425  24.603  0.00  0.00    +0.145 A 
ATOM     19  F   UNL     1      -2.315  -2.704  24.944  0.00  0.00    -0.204 F 
ENDBRANCH  11  13
ENDBRANCH   7   8
ENDBRANCH   6   7
BRANCH  23  24
ATOM     24  C   UNL     1      -2.068   3.619  25.043  0.00  0.00    +0.119 C 
BRANCH  24  25
ATOM     25  N   UNL     1      -1.510   4.205  24.876  0.00  0.00    -0.205 NA
ATOM     26  C   UNL     1      -1.623   4.972  25.156  0.00  0.00    +0.242 C 
ATOM     27  C   UNL     1      -1.065   5.558  24.989  0.00  0.00    +0.096 C 
ATOM     28  O   UNL     1      -2.291   5.155  25.601  0.00  0.00    -0.273 OA
ENDBRANCH  24  25
ENDBRANCH  23  24
TORSDOF 6
ENDMDL
MODEL 5
REMARK VINA RESULT:     -10.6      2.201      4.016
REMARK  Name = 
REMARK  6 active torsions:
REMARK  status: ('A' for Active; 'I' for Inactive)
REMARK    1  A    between atoms: C_2  and  C_4
REMARK    2  A    between atoms: C_6  and  C_7
REMARK    3  A    between atoms: C_7  and  C_8
REMARK    4  A    between atoms: C_11  and  C_13
REMARK    5  A    between atoms: C_23  and  C_24
REMARK    6  A    between atoms: C_24  and  N_25
REMARK                            x       y       z     vdW  Elec       q    Type
REMARK                         _______ _______ _______ _____ _____    ______ ____
ROOT
ATOM      4  C   UNL     1      -1.293   1.026  24.851  0.00  0.00    +0.006 C 
ATOM      5  C   UNL     1      -1.703   1.677  25.149  0.00  0.00    +0.005 C 
ATOM      6  C   UNL     1      -1.447   2.442  24.975  0.00  0.00    +0.027 C 
ATOM     20  C   UNL     1      -0.779   2.555  24.503  0.00  0.00    -0.048 C 
ATOM     21  C   UNL     1      -0.522   3.320  24.329  0.00  0.00    +0.026 C 
ATOM     22  C   UNL     1      -0.369   1.905  24.205  0.00  0.00    -0.033 C 
ATOM     23  C   UNL     1      -0.626   1.140  24.379  0.00  0.00    +0.043 C 
ENDROOT
BRANCH   4   2
ATOM      1  C   UNL     1      -1.278  -0.120  25.703  0.00  0.00    +0.000 C 
ATOM      2  C   UNL     1      -1.550   0.262  25.024  0.00  0.00    +0.000 C 
ATOM      3  C   UNL     1      -2.079  -0.120  24.519  0.00  0.00    +0.000 C 
ENDBRANCH   4   2
BRANCH   6   7
ATOM      7  C   UNL     1      -1.857   3.092  25.274  0.00  0.00    +0.091 C 
BRANCH   7   8
ATOM      8  C   UNL     1      -2.658   3.192  25.095  0.00  0.00    +0.227 A 
ATOM      9  N   UNL     1      -2.973   3.761  24.589  0.00  0.00    -0.111 NA
ATOM     10  N   UNL     1      -3.792   3.661  24.573  0.00  0.00    -0.107 NA
ATOM     11  C   UNL     1      -3.982   3.030  25.070  0.00  0.00    +0.252 A 
ATOM     12  O   UNL     1      -3.280   2.740  25.393  0.00  0.00    -0.419 OA
BRANCH  11  13
ATOM     13  C   UNL     1      -4.741   2.740  25.217  0.00  0.00    +0.083 A 
ATOM     14  C   UNL     1      -5.155   2.991  25.884  0.00  0.00    +0.007 A 
ATOM     15  C   UNL     1      -5.914   2.701  26.032  0.00  0.00    +0.000 A 
ATOM     16  C   UNL     1      -6.256   2.159  25.511  0.00  0.00    +0.002 A 
ATOM     17  C   UNL     1      -5.841   1.908  24.845  0.00  0.00    +0.030 A 
ATOM     18  C   UNL     1      -5.082   2.198  24.698  0.00  0.00    +0.145 A 
ATOM     19  F   UNL     1      -4.667   1.946  24.031  0.00  0.00    -0.204 F 
ENDBRANCH  11  13
ENDBRANCH   7   8
ENDBRANCH   6   7
BRANCH  23  24
ATOM     24  C   UNL     1      -0.217   0.489  24.081  0.00  0.00    +0.119 C 
BRANCH  24  25
ATOM     25  N   UNL     1       0.405   0.602  23.549  0.00  0.00    -0.205 NA
ATOM     26  C   UNL     1       0.803  -0.050  23.238  0.00  0.00    +0.242 C 
ATOM     27  C   UNL     1       1.424   0.062  22.706  0.00  0.00    +0.096 C 
ATOM     28  O   UNL     1       0.581  -0.813  23.457  0.00  0.00    -0.273 OA
ENDBRANCH  24  25
ENDBRANCH  23  24
TORSDOF 6
ENDMDL
