MODEL 1
REMARK VINA RESULT:     -12.1      0.000      0.000
REMARK  Name = 
REMARK  7 active torsions:
REMARK  status: ('A' for Active; 'I' for Inactive)
REMARK    1  A    between atoms: C_2  and  C_4
REMARK    2  A    between atoms: C_4  and  C_5
REMARK    3  A    between atoms: C_5  and  N_6
REMARK    4  A    between atoms: C_5  and  C_28
REMARK    5  A    between atoms: C_7  and  C_9
REMARK    6  A    between atoms: C_11  and  N_12
REMARK    7  A    between atoms: N_15  and  C_16
REMARK                            x       y       z     vdW  Elec       q    Type
REMARK                         _______ _______ _______ _____ _____    ______ ____
ROOT
ATOM      9  C   UNL     1      -1.096  -0.225  24.792  0.00  0.00    +0.033 C 
ATOM     10  C   UNL     1      -0.938   0.491  25.171  0.00  0.00    -0.002 C 
ATOM     11  C   UNL     1      -0.344   0.986  24.884  0.00  0.00    +0.152 C 
ATOM     23  C   UNL     1       0.091   0.767  24.220  0.00  0.00    +0.206 C 
ATOM     24  O   UNL     1       0.686   1.263  23.933  0.00  0.00    -0.218 OA
ATOM     25  C   UNL     1      -0.066   0.051  23.841  0.00  0.00    +0.189 C 
ATOM     26  O   UNL     1       0.370  -0.168  23.176  0.00  0.00    -0.220 OA
ATOM     27  C   UNL     1      -0.661  -0.445  24.127  0.00  0.00    +0.066 C 
ENDROOT
BRANCH  11  12
ATOM     12  N   UNL     1      -0.186   1.702  25.264  0.00  0.00    -0.181 NA
ATOM     13  C   UNL     1      -0.717   2.330  25.196  0.00  0.00    +0.344 C 
ATOM     14  O   UNL     1      -1.404   2.243  24.750  0.00  0.00    -0.249 OA
ATOM     15  N   UNL     1      -0.558   3.045  25.575  0.00  0.00    -0.161 NA
BRANCH  15  16
ATOM     16  C   UNL     1      -1.089   3.674  25.507  0.00  0.00    +0.077 A 
ATOM     17  C   UNL     1      -0.917   4.308  25.007  0.00  0.00    +0.017 A 
ATOM     18  C   UNL     1      -1.447   4.936  24.940  0.00  0.00    +0.004 A 
ATOM     19  C   UNL     1      -2.149   4.931  25.371  0.00  0.00    +0.030 A 
ATOM     20  C   UNL     1      -2.322   4.298  25.871  0.00  0.00    +0.141 A 
ATOM     21  F   UNL     1      -3.025   4.292  26.303  0.00  0.00    -0.204 F 
ATOM     22  C   UNL     1      -1.791   3.669  25.939  0.00  0.00    +0.046 A 
ENDBRANCH  15  16
ENDBRANCH  11  12
BRANCH   9   7
ATOM      6  N   UNL     1      -2.458  -0.659  24.780  0.00  0.00    -0.194 NA
ATOM      7  C   UNL     1      -1.690  -0.721  25.078  0.00  0.00    +0.261 C 
ATOM      8  O   UNL     1      -1.518  -1.277  25.663  0.00  0.00    -0.269 OA
BRANCH   6   5
ATOM      5  C   UNL     1      -3.052  -1.155  25.067  0.00  0.00    +0.175 C 
BRANCH   5  28
ATOM     28  C   UNL     1      -3.573  -0.883  25.645  0.00  0.00    +0.281 C 
ATOM     29  N   UNL     1      -4.030  -0.212  25.505  0.00  0.00    -0.086 NA
ATOM     30  O   UNL     1      -3.636  -1.283  26.364  0.00  0.00    -0.270 OA
ENDBRANCH   5  28
BRANCH   5   4
ATOM      4  C   UNL     1      -3.124  -1.923  24.774  0.00  0.00    +0.031 C 
BRANCH   4   2
ATOM      1  C   UNL     1      -3.944  -2.875  24.093  0.00  0.00    +0.000 C 
ATOM      2  C   UNL     1      -3.697  -2.095  24.206  0.00  0.00    +0.002 C 
ATOM      3  C   UNL     1      -4.023  -1.489  23.752  0.00  0.00    +0.000 C 
ENDBRANCH   4   2
ENDBRANCH   5   4
ENDBRANCH   6   5
ENDBRANCH   9   7
TORSDOF 7
ENDMDL
MODEL 2
REMARK VINA RESULT:     -12.1      2.151      3.226
REMARK  Name = 
REMARK  7 active torsions:
REMARK  status: ('A' for Active; 'I' for Inactive)
REMARK    1  A    between atoms: C_2  and  C_4
REMARK    2  A    between atoms: C_4  and  C_5
REMARK    3  A    between atoms: C_5  and  N_6
REMARK    4  A    between atoms: C_5  and  C_28
REMARK    5  A    between atoms: C_7  and  C_9
REMARK    6  A    between atoms: C_11  and  N_12
REMARK    7  A    between atoms: N_15  and  C_16
REMARK                            x       y       z     vdW  Elec       q    Type
REMARK                         _______ _______ _______ _____ _____    ______ ____
ROOT
ATOM      9  C   UNL     1      -4.224   1.135  24.732  0.00  0.00    +0.033 C 
ATOM     10  C   UNL     1      -3.828   1.740  25.131  0.00  0.00    -0.002 C 
ATOM     11  C   UNL     1      -4.249   2.391  25.414  0.00  0.00    +0.152 C 
ATOM     23  C   UNL     1      -5.064   2.437  25.299  0.00  0.00    +0.206 C 
ATOM     24  O   UNL     1      -5.485   3.088  25.583  0.00  0.00    -0.218 OA
ATOM     25  C   UNL     1      -5.460   1.832  24.901  0.00  0.00    +0.189 C 
ATOM     26  O   UNL     1      -6.275   1.878  24.787  0.00  0.00    -0.220 OA
ATOM     27  C   UNL     1      -5.039   1.181  24.618  0.00  0.00    +0.066 C 
ENDROOT
BRANCH  11  12
ATOM     12  N   UNL     1      -3.853   2.996  25.812  0.00  0.00    -0.181 NA
ATOM     13  C   UNL     1      -3.165   3.318  25.492  0.00  0.00    +0.344 C 
ATOM     14  O   UNL     1      -2.872   3.036  24.775  0.00  0.00    -0.249 OA
ATOM     15  N   UNL     1      -2.770   3.923  25.890  0.00  0.00    -0.161 NA
BRANCH  15  16
ATOM     16  C   UNL     1      -2.080   4.246  25.569  0.00  0.00    +0.077 A 
ATOM     17  C   UNL     1      -1.399   3.783  25.506  0.00  0.00    +0.017 A 
ATOM     18  C   UNL     1      -0.711   4.106  25.186  0.00  0.00    +0.004 A 
ATOM     19  C   UNL     1      -0.703   4.889  24.930  0.00  0.00    +0.030 A 
ATOM     20  C   UNL     1      -1.383   5.352  24.993  0.00  0.00    +0.141 A 
ATOM     21  F   UNL     1      -1.376   6.136  24.736  0.00  0.00    -0.204 F 
ATOM     22  C   UNL     1      -2.073   5.029  25.313  0.00  0.00    +0.046 A 
ENDBRANCH  15  16
ENDBRANCH  11  12
BRANCH   9   7
ATOM      6  N   UNL     1      -3.480  -0.060  24.980  0.00  0.00    -0.194 NA
ATOM      7  C   UNL     1      -3.804   0.484  24.449  0.00  0.00    +0.261 C 
ATOM      8  O   UNL     1      -3.705   0.377  23.637  0.00  0.00    -0.269 OA
BRANCH   6   5
ATOM      5  C   UNL     1      -3.060  -0.711  24.697  0.00  0.00    +0.175 C 
BRANCH   5  28
ATOM     28  C   UNL     1      -2.235  -0.710  24.717  0.00  0.00    +0.281 C 
ATOM     29  N   UNL     1      -1.841  -0.576  25.429  0.00  0.00    -0.086 NA
ATOM     30  O   UNL     1      -1.805  -0.843  24.025  0.00  0.00    -0.270 OA
ENDBRANCH   5  28
BRANCH   5   4
ATOM      4  C   UNL     1      -3.465  -1.363  24.393  0.00  0.00    +0.031 C 
BRANCH   4   2
ATOM      1  C   UNL     1      -3.561  -2.786  24.474  0.00  0.00    +0.000 C 
ATOM      2  C   UNL     1      -3.539  -2.049  24.845  0.00  0.00    +0.002 C 
ATOM      3  C   UNL     1      -3.590  -1.998  25.667  0.00  0.00    +0.000 C 
ENDBRANCH   4   2
ENDBRANCH   5   4
ENDBRANCH   6   5
ENDBRANCH   9   7
TORSDOF 7
ENDMDL
MODEL 3
REMARK VINA RESULT:     -12.1      2.481      5.625
REMARK  Name = 
REMARK  7 active torsions:
REMARK  status: ('A' for Active; 'I' for Inactive)
REMARK    1  A    between atoms: C_2  and  C_4
REMARK    2  A    between atoms: C_4  and  C_5
REMARK    3  A    between atoms: C_5  and  N_6
REMARK    4  A    between atoms: C_5  and  C_28
REMARK    5  A    between atoms: C_7  and  C_9
REMARK    6  A    between atoms: C_11  and  N_12
REMARK    7  A    between atoms: N_15  and  C_16
REMARK                            x       y       z     vdW  Elec       q    Type
REMARK                         _______ _______ _______ _____ _____    ______ ____
ROOT
ATOM      9  C   UNL     1      -3.926   2.911  24.966  0.00  0.00    +0.033 C 
ATOM     10  C   UNL     1      -4.014   2.159  24.637  0.00  0.00    -0.002 C 
ATOM     11  C   UNL     1      -4.697   1.721  24.789  0.00  0.00    +0.152 C 
ATOM     23  C   UNL     1      -5.290   2.034  25.267  0.00  0.00    +0.206 C 
ATOM     24  O   UNL     1      -5.974   1.596  25.418  0.00  0.00    -0.218 OA
ATOM     25  C   UNL     1      -5.202   2.786  25.595  0.00  0.00    +0.189 C 
ATOM     26  O   UNL     1      -5.796   3.100  26.074  0.00  0.00    -0.220 OA
ATOM     27  C   UNL     1      -4.519   3.224  25.444  0.00  0.00    +0.066 C 
ENDROOT
BRANCH  11  12
ATOM     12  N   UNL     1      -4.786   0.969  24.460  0.00  0.00    -0.181 NA
ATOM     13  C   UNL     1      -4.243   0.374  24.642  0.00  0.00    +0.344 C 
ATOM     14  O   UNL     1      -3.614   0.531  25.150  0.00  0.00    -0.249 OA
ATOM     15  N   UNL     1      -4.332  -0.377  24.313  0.00  0.00    -0.161 NA
BRANCH  15  16
ATOM     16  C   UNL     1      -3.790  -0.973  24.494  0.00  0.00    +0.077 A 
ATOM     17  C   UNL     1      -3.054  -0.989  24.119  0.00  0.00    +0.017 A 
ATOM     18  C   UNL     1      -2.513  -1.584  24.300  0.00  0.00    +0.004 A 
ATOM     19  C   UNL     1      -2.705  -2.162  24.855  0.00  0.00    +0.030 A 
ATOM     20  C   UNL     1      -3.439  -2.146  25.231  0.00  0.00    +0.141 A 
ATOM     21  F   UNL     1      -3.631  -2.724  25.787  0.00  0.00    -0.204 F 
ATOM     22  C   UNL     1      -3.982  -1.551  25.050  0.00  0.00    +0.046 A 
ENDBRANCH  15  16
ENDBRANCH  11  12
BRANCH   9   7
ATOM      6  N   UNL     1      -2.602   3.305  25.333  0.00  0.00    -0.194 NA
ATOM      7  C   UNL     1      -3.243   3.349  24.814  0.00  0.00    +0.261 C 
ATOM      8  O   UNL     1      -3.201   3.830  24.146  0.00  0.00    -0.269 OA
BRANCH   6   5
ATOM      5  C   UNL     1      -1.920   3.742  25.182  0.00  0.00    +0.175 C 
BRANCH   5  28
ATOM     28  C   UNL     1      -1.856   4.517  25.458  0.00  0.00    +0.281 C 
ATOM     29  N   UNL     1      -1.481   5.089  24.997  0.00  0.00    -0.086 NA
ATOM     30  O   UNL     1      -2.167   4.719  26.195  0.00  0.00    -0.270 OA
ENDBRANCH   5  28
BRANCH   5   4
ATOM      4  C   UNL     1      -1.300   3.404  24.754  0.00  0.00    +0.031 C 
BRANCH   4   2
ATOM      1  C   UNL     1      -0.555   2.987  25.900  0.00  0.00    +0.000 C 
ATOM      2  C   UNL     1      -0.793   2.865  25.119  0.00  0.00    +0.002 C 
ATOM      3  C   UNL     1      -0.525   2.204  24.704  0.00  0.00    +0.000 C 
ENDBRANCH   4   2
ENDBRANCH   5   4
ENDBRANCH   6   5
ENDBRANCH   9   7
TORSDOF 7
ENDMDL
MODEL 4
REMARK VINA RESULT:     -11.8      2.083      2.554
REMARK  Name = 
REMARK  7 active torsions:
REMARK  status: ('A' for Active; 'I' for Inactive)
REMARK    1  A    between atoms: C_2  and  C_4
REMARK    2  A    between atoms: C_4  and  C_5
REMARK    3  A    between atoms: C_5  and  N_6
REMARK    4  A    between atoms: C_5  and  C_28
REMARK    5  A    between atoms: C_7  and  C_9
REMARK    6  A    between atoms: C_11  and  N_12
REMARK    7  A    between atoms: N_15  and  C_16
REMARK                            x       y       z     vdW  Elec       q    Type
REMARK                         _______ _______ _______ _____ _____    ______ ____
ROOT
ATOM      9  C   UNL     1      -1.391   0.472  24.744  0.00  0.00    +0.033 C 
ATOM     10  C   UNL     1      -2.001   0.964  24.483  0.00  0.00    -0.002 C 
ATOM     11  C   UNL     1      -1.833   1.733  24.238  0.00  0.00    +0.152 C 
ATOM     23  C   UNL     1      -1.057   2.011  24.252  0.00  0.00    +0.206 C 
ATOM     24  O   UNL     1      -0.889   2.781  24.006  0.00  0.00    -0.218 OA
ATOM     25  C   UNL     1      -0.448   1.519  24.512  0.00  0.00    +0.189 C 
ATOM     26  O   UNL     1       0.329   1.797  24.527  0.00  0.00    -0.220 OA
ATOM     27  C   UNL     1      -0.615   0.749  24.758  0.00  0.00    +0.066 C 
ENDROOT
BRANCH  11  12
ATOM     12  N   UNL     1      -2.443   2.225  23.977  0.00  0.00    -0.181 NA
ATOM     13  C   UNL     1      -3.110   2.338  24.448  0.00  0.00    +0.344 C 
ATOM     14  O   UNL     1      -3.169   1.960  25.178  0.00  0.00    -0.249 OA
ATOM     15  N   UNL     1      -3.719   2.830  24.188  0.00  0.00    -0.161 NA
BRANCH  15  16
ATOM     16  C   UNL     1      -4.388   2.943  24.659  0.00  0.00    +0.077 A 
ATOM     17  C   UNL     1      -4.434   3.598  25.160  0.00  0.00    +0.017 A 
ATOM     18  C   UNL     1      -5.102   3.710  25.630  0.00  0.00    +0.004 A 
ATOM     19  C   UNL     1      -5.723   3.170  25.600  0.00  0.00    +0.030 A 
ATOM     20  C   UNL     1      -5.678   2.515  25.100  0.00  0.00    +0.141 A 
ATOM     21  F   UNL     1      -6.300   1.974  25.070  0.00  0.00    -0.204 F 
ATOM     22  C   UNL     1      -5.009   2.402  24.629  0.00  0.00    +0.046 A 
ENDBRANCH  15  16
ENDBRANCH  11  12
BRANCH   9   7
ATOM      6  N   UNL     1      -1.943  -0.819  24.477  0.00  0.00    -0.194 NA
ATOM      7  C   UNL     1      -1.560  -0.297  24.989  0.00  0.00    +0.261 C 
ATOM      8  O   UNL     1      -1.345  -0.546  25.746  0.00  0.00    -0.269 OA
BRANCH   6   5
ATOM      5  C   UNL     1      -2.111  -1.588  24.723  0.00  0.00    +0.175 C 
BRANCH   5  28
ATOM     28  C   UNL     1      -1.571  -2.195  24.581  0.00  0.00    +0.281 C 
ATOM     29  N   UNL     1      -1.279  -2.642  25.209  0.00  0.00    -0.086 NA
ATOM     30  O   UNL     1      -1.322  -2.353  23.810  0.00  0.00    -0.270 OA
ENDBRANCH   5  28
BRANCH   5   4
ATOM      4  C   UNL     1      -2.822  -1.751  25.111  0.00  0.00    +0.031 C 
BRANCH   4   2
ATOM      1  C   UNL     1      -4.019  -1.432  24.398  0.00  0.00    +0.000 C 
ATOM      2  C   UNL     1      -3.481  -1.993  24.679  0.00  0.00    +0.002 C 
ATOM      3  C   UNL     1      -3.604  -2.794  24.526  0.00  0.00    +0.000 C 
ENDBRANCH   4   2
ENDBRANCH   5   4
ENDBRANCH   6   5
ENDBRANCH   9   7
TORSDOF 7
ENDMDL
MODEL 5
REMARK VINA RESULT:     -11.5      2.388      4.726
REMARK  Name = 
REMARK  7 active torsions:
REMARK  status: ('A' for Active; 'I' for Inactive)
REMARK    1  A    between atoms: C_2  and  C_4
REMARK    2  A    between atoms: C_4  and  C_5
REMARK    3  A    between atoms: C_5  and  N_6
REMARK    4  A    between atoms: C_5  and  C_28
REMARK    5  A    between atoms: C_7  and  C_9
REMARK    6  A    between atoms: C_11  and  N_12
REMARK    7  A    between atoms: N_15  and  C_16
REMARK                            x       y       z     vdW  Elec       q    Type
REMARK                         _______ _______ _______ _____ _____    ______ ____
ROOT
ATOM      9  C   UNL     1      -2.155   2.077  24.892  0.00  0.00    +0.033 C 
ATOM     10  C   UNL     1      -2.137   1.322  24.558  0.00  0.00    -0.002 C 
ATOM     11  C   UNL     1      -1.493   0.826  24.696  0.00  0.00    +0.152 C 
ATOM     23  C   UNL     1      -0.867   1.084  25.166  0.00  0.00    +0.206 C 
ATOM     24  O   UNL     1      -0.222   0.587  25.303  0.00  0.00    -0.218 OA
ATOM     25  C   UNL     1      -0.884   1.838  25.500  0.00  0.00    +0.189 C 
ATOM     26  O   UNL     1      -0.258   2.096  25.970  0.00  0.00    -0.220 OA
ATOM     27  C   UNL     1      -1.529   2.335  25.363  0.00  0.00    +0.066 C 
ENDROOT
BRANCH  11  12
ATOM     12  N   UNL     1      -1.475   0.072  24.362  0.00  0.00    -0.181 NA
ATOM     13  C   UNL     1      -2.082  -0.463  24.520  0.00  0.00    +0.344 C 
ATOM     14  O   UNL     1      -2.707  -0.245  25.012  0.00  0.00    -0.249 OA
ATOM     15  N   UNL     1      -2.064  -1.217  24.186  0.00  0.00    -0.161 NA
BRANCH  15  16
ATOM     16  C   UNL     1      -2.672  -1.753  24.345  0.00  0.00    +0.077 A 
ATOM     17  C   UNL     1      -2.577  -2.322  24.936  0.00  0.00    +0.017 A 
ATOM     18  C   UNL     1      -3.184  -2.857  25.094  0.00  0.00    +0.004 A 
ATOM     19  C   UNL     1      -3.886  -2.824  24.662  0.00  0.00    +0.030 A 
ATOM     20  C   UNL     1      -3.981  -2.256  24.072  0.00  0.00    +0.141 A 
ATOM     21  F   UNL     1      -4.683  -2.223  23.640  0.00  0.00    -0.204 F 
ATOM     22  C   UNL     1      -3.373  -1.720  23.913  0.00  0.00    +0.046 A 
ENDBRANCH  15  16
ENDBRANCH  11  12
BRANCH   9   7
ATOM      6  N   UNL     1      -3.426   2.594  25.293  0.00  0.00    -0.194 NA
ATOM      7  C   UNL     1      -2.800   2.573  24.755  0.00  0.00    +0.261 C 
ATOM      8  O   UNL     1      -2.820   3.048  24.081  0.00  0.00    -0.269 OA
BRANCH   6   5
ATOM      5  C   UNL     1      -4.071   3.089  25.156  0.00  0.00    +0.175 C 
BRANCH   5  28
ATOM     28  C   UNL     1      -4.052   3.873  25.414  0.00  0.00    +0.281 C 
ATOM     29  N   UNL     1      -4.237   4.483  24.892  0.00  0.00    -0.086 NA
ATOM     30  O   UNL     1      -3.848   4.044  26.195  0.00  0.00    -0.270 OA
ENDBRANCH   5  28
BRANCH   5   4
ATOM      4  C   UNL     1      -4.735   2.801  24.759  0.00  0.00    +0.031 C 
BRANCH   4   2
ATOM      1  C   UNL     1      -5.515   1.608  24.864  0.00  0.00    +0.000 C 
ATOM      2  C   UNL     1      -5.290   2.344  25.164  0.00  0.00    +0.002 C 
ATOM      3  C   UNL     1      -5.619   2.621  25.867  0.00  0.00    +0.000 C 
ENDBRANCH   4   2
ENDBRANCH   5   4
ENDBRANCH   6   5
ENDBRANCH   9   7
TORSDOF 7
ENDMDL
