MODEL 1
REMARK VINA RESULT:     -11.9      0.000      0.000
REMARK  Name = 
REMARK  5 active torsions:
REMARK  status: ('A' for Active; 'I' for Inactive)
REMARK    1  A    between atoms: C_5  and  C_6
REMARK    2  A    between atoms: C_6  and  N_7
REMARK    3  A    between atoms: C_8  and  C_10
REMARK    4  A    between atoms: C_10  and  C_11
REMARK    5  A    between atoms: C_24  and  N_32
REMARK                            x       y       z     vdW  Elec       q    Type
REMARK                         _______ _______ _______ _____ _____    ______ ____
ROOT
ATOM     11  C   UNL     1       0.523   0.353  23.506  0.00  0.00    +0.017 C 
ATOM     12  C   UNL     1       0.577  -0.449  23.689  0.00  0.00    +0.022 C 
ATOM     13  C   UNL     1      -0.068  -0.840  24.023  0.00  0.00    +0.093 C 
ATOM     14  N   UNL     1      -0.762  -0.504  24.190  0.00  0.00    -0.278 N 
ATOM     15  C   UNL     1      -0.822   0.374  23.989  0.00  0.00    +0.098 C 
ATOM     16  C   UNL     1      -0.368   0.986  23.669  0.00  0.00    +0.042 C 
ATOM     17  C   UNL     1      -0.831   1.670  23.665  0.00  0.00    -0.026 C 
ATOM     18  C   UNL     1      -1.569   1.479  23.981  0.00  0.00    +0.016 C 
ATOM     19  C   UNL     1      -2.363   1.864  24.173  0.00  0.00    +0.231 C 
ATOM     20  O   UNL     1      -2.732   1.208  24.472  0.00  0.00    -0.471 OA
ATOM     21  C   UNL     1      -2.902   0.641  24.678  0.00  0.00    +0.136 A 
ATOM     22  C   UNL     1      -2.989   1.443  24.507  0.00  0.00    +0.038 A 
ATOM     23  C   UNL     1      -3.702   1.824  24.669  0.00  0.00    +0.018 A 
ATOM     24  C   UNL     1      -4.329   1.403  25.004  0.00  0.00    +0.048 A 
ATOM     25  C   UNL     1      -4.241   0.600  25.175  0.00  0.00    +0.015 A 
ATOM     26  C   UNL     1      -3.528   0.219  25.013  0.00  0.00    +0.030 A 
ATOM     27  C   UNL     1      -3.441  -0.583  25.184  0.00  0.00    +0.119 C 
ATOM     28  N   UNL     1      -2.727  -0.965  25.021  0.00  0.00    -0.204 NA
ATOM     29  C   UNL     1      -2.101  -0.543  24.687  0.00  0.00    +0.174 C 
ATOM     30  C   UNL     1      -1.388  -0.924  24.524  0.00  0.00    +0.243 C 
ATOM     31  O   UNL     1      -1.301  -1.726  24.696  0.00  0.00    -0.273 OA
ENDROOT
BRANCH  24  32
ATOM     32  N   UNL     1      -5.042   1.784  25.166  0.00  0.00    -0.303 N 
ATOM     33  C   UNL     1      -5.742   1.514  24.824  0.00  0.00    +0.123 C 
ATOM     34  C   UNL     1      -6.455   1.896  24.986  0.00  0.00    +0.164 C 
ATOM     35  O   UNL     1      -6.468   2.548  25.492  0.00  0.00    -0.350 OA
ATOM     36  C   UNL     1      -5.768   2.818  25.834  0.00  0.00    +0.164 C 
ATOM     37  C   UNL     1      -5.055   2.436  25.672  0.00  0.00    +0.123 C 
ENDBRANCH  24  32
BRANCH  11  10
ATOM     10  C   UNL     1       1.187   0.713  23.173  0.00  0.00    +0.087 C 
BRANCH  10   8
ATOM      7  N   UNL     1       2.560   0.321  23.105  0.00  0.00    -0.201 NA
ATOM      8  C   UNL     1       1.783   0.249  22.838  0.00  0.00    +0.242 C 
ATOM      9  O   UNL     1       1.600  -0.286  22.237  0.00  0.00    -0.273 OA
BRANCH   7   6
ATOM      6  C   UNL     1       3.156  -0.142  22.771  0.00  0.00    +0.141 C 
BRANCH   6   5
ATOM      1  F   UNL     1       6.229   0.010  23.964  0.00  0.00    -0.204 F 
ATOM      2  C   UNL     1       5.460  -0.028  23.665  0.00  0.00    +0.140 A 
ATOM      3  C   UNL     1       5.006  -0.707  23.782  0.00  0.00    +0.029 A 
ATOM      4  C   UNL     1       4.238  -0.745  23.484  0.00  0.00    -0.000 A 
ATOM      5  C   UNL     1       3.923  -0.105  23.069  0.00  0.00    -0.000 A 
ATOM     38  C   UNL     1       4.379   0.574  22.953  0.00  0.00    -0.000 A 
ATOM     39  C   UNL     1       5.146   0.612  23.251  0.00  0.00    +0.029 A 
ENDBRANCH   6   5
ENDBRANCH   7   6
ENDBRANCH  10   8
ENDBRANCH  11  10
TORSDOF 5
ENDMDL
MODEL 2
REMARK VINA RESULT:     -10.0      2.078      6.469
REMARK  Name = 
REMARK  5 active torsions:
REMARK  status: ('A' for Active; 'I' for Inactive)
REMARK    1  A    between atoms: C_5  and  C_6
REMARK    2  A    between atoms: C_6  and  N_7
REMARK    3  A    between atoms: C_8  and  C_10
REMARK    4  A    between atoms: C_10  and  C_11
REMARK    5  A    between atoms: C_24  and  N_32
REMARK                            x       y       z     vdW  Elec       q    Type
REMARK                         _______ _______ _______ _____ _____    ______ ____
ROOT
ATOM     11  C   UNL     1      -4.206   0.575  24.730  0.00  0.00    +0.017 C 
ATOM     12  C   UNL     1      -4.306  -0.071  25.233  0.00  0.00    +0.022 C 
ATOM     13  C   UNL     1      -3.675  -0.585  25.373  0.00  0.00    +0.093 C 
ATOM     14  N   UNL     1      -2.956  -0.514  25.057  0.00  0.00    -0.278 N 
ATOM     15  C   UNL     1      -2.847   0.193  24.506  0.00  0.00    +0.098 C 
ATOM     16  C   UNL     1      -3.271   0.833  24.201  0.00  0.00    +0.042 C 
ATOM     17  C   UNL     1      -2.766   1.260  23.706  0.00  0.00    -0.026 C 
ATOM     18  C   UNL     1      -2.032   0.884  23.708  0.00  0.00    +0.016 C 
ATOM     19  C   UNL     1      -1.208   0.965  23.346  0.00  0.00    +0.231 C 
ATOM     20  O   UNL     1      -0.873   0.315  23.692  0.00  0.00    -0.471 OA
ATOM     21  C   UNL     1      -0.732  -0.204  24.016  0.00  0.00    +0.136 A 
ATOM     22  C   UNL     1      -0.599   0.432  23.507  0.00  0.00    +0.038 A 
ATOM     23  C   UNL     1       0.142   0.535  23.160  0.00  0.00    +0.018 A 
ATOM     24  C   UNL     1       0.751   0.001  23.322  0.00  0.00    +0.048 A 
ATOM     25  C   UNL     1       0.618  -0.635  23.830  0.00  0.00    +0.015 A 
ATOM     26  C   UNL     1      -0.123  -0.738  24.177  0.00  0.00    +0.030 A 
ATOM     27  C   UNL     1      -0.256  -1.374  24.685  0.00  0.00    +0.119 C 
ATOM     28  N   UNL     1      -0.997  -1.477  25.032  0.00  0.00    -0.204 NA
ATOM     29  C   UNL     1      -1.606  -0.944  24.871  0.00  0.00    +0.174 C 
ATOM     30  C   UNL     1      -2.347  -1.047  25.218  0.00  0.00    +0.243 C 
ATOM     31  O   UNL     1      -2.480  -1.683  25.726  0.00  0.00    -0.273 OA
ENDROOT
BRANCH  24  32
ATOM     32  N   UNL     1       1.492   0.105  22.975  0.00  0.00    -0.303 N 
ATOM     33  C   UNL     1       1.672  -0.275  22.265  0.00  0.00    +0.123 C 
ATOM     34  C   UNL     1       2.413  -0.172  21.918  0.00  0.00    +0.164 C 
ATOM     35  O   UNL     1       2.975   0.311  22.280  0.00  0.00    -0.350 OA
ATOM     36  C   UNL     1       2.794   0.691  22.990  0.00  0.00    +0.164 C 
ATOM     37  C   UNL     1       2.054   0.588  23.337  0.00  0.00    +0.123 C 
ENDBRANCH  24  32
BRANCH  11  10
ATOM     10  C   UNL     1      -4.857   1.069  24.613  0.00  0.00    +0.087 C 
BRANCH  10   8
ATOM      7  N   UNL     1      -4.581   2.418  24.993  0.00  0.00    -0.201 NA
ATOM      8  C   UNL     1      -4.984   1.710  25.118  0.00  0.00    +0.242 C 
ATOM      9  O   UNL     1      -5.515   1.642  25.746  0.00  0.00    -0.273 OA
BRANCH   7   6
ATOM      6  C   UNL     1      -4.708   3.060  25.497  0.00  0.00    +0.141 C 
BRANCH   6   5
ATOM      1  F   UNL     1      -2.345   5.326  25.910  0.00  0.00    -0.204 F 
ATOM      2  C   UNL     1      -2.936   4.759  25.807  0.00  0.00    +0.140 A 
ATOM      3  C   UNL     1      -3.340   4.711  25.089  0.00  0.00    +0.029 A 
ATOM      4  C   UNL     1      -3.931   4.145  24.986  0.00  0.00    -0.000 A 
ATOM      5  C   UNL     1      -4.117   3.626  25.600  0.00  0.00    -0.000 A 
ATOM     38  C   UNL     1      -3.713   3.675  26.318  0.00  0.00    -0.000 A 
ATOM     39  C   UNL     1      -3.122   4.241  26.421  0.00  0.00    +0.029 A 
ENDBRANCH   6   5
ENDBRANCH   7   6
ENDBRANCH  10   8
ENDBRANCH  11  10
TORSDOF 5
ENDMDL
MODEL 3
REMARK VINA RESULT:      -8.4     14.307     15.208
REMARK  Name = 
REMARK  5 active torsions:
REMARK  status: ('A' for Active; 'I' for Inactive)
REMARK    1  A    between atoms: C_5  and  C_6
REMARK    2  A    between atoms: C_6  and  N_7
REMARK    3  A    between atoms: C_8  and  C_10
REMARK    4  A    between atoms: C_10  and  C_11
REMARK    5  A    between atoms: C_24  and  N_32
REMARK                            x       y       z     vdW  Elec       q    Type
REMARK                         _______ _______ _______ _____ _____    ______ ____
ROOT
ATOM     11  C   UNL     1      -3.437 -10.539  12.146  0.00  0.00    +0.017 C 
ATOM     12  C   UNL     1      -4.076 -10.333  11.667  0.00  0.00    +0.022 C 
ATOM     13  C   UNL     1      -4.812 -10.177  12.007  0.00  0.00    +0.093 C 
ATOM     14  N   UNL     1      -4.968 -10.209  12.779  0.00  0.00    -0.278 N 
ATOM     15  C   UNL     1      -4.268 -10.435  13.303  0.00  0.00    +0.098 C 
ATOM     16  C   UNL     1      -3.469 -10.633  13.246  0.00  0.00    +0.042 C 
ATOM     17  C   UNL     1      -3.187 -10.775  14.009  0.00  0.00    -0.026 C 
ATOM     18  C   UNL     1      -3.813 -10.665  14.536  0.00  0.00    +0.016 C 
ATOM     19  C   UNL     1      -3.992 -10.701  15.420  0.00  0.00    +0.231 C 
ATOM     20  O   UNL     1      -4.774 -10.499  15.381  0.00  0.00    -0.471 OA
ATOM     21  C   UNL     1      -5.358 -10.335  15.220  0.00  0.00    +0.136 A 
ATOM     22  C   UNL     1      -4.740 -10.539  15.727  0.00  0.00    +0.038 A 
ATOM     23  C   UNL     1      -4.871 -10.581  16.541  0.00  0.00    +0.018 A 
ATOM     24  C   UNL     1      -5.620 -10.419  16.847  0.00  0.00    +0.048 A 
ATOM     25  C   UNL     1      -6.238 -10.216  16.340  0.00  0.00    +0.015 A 
ATOM     26  C   UNL     1      -6.108 -10.173  15.527  0.00  0.00    +0.030 A 
ATOM     27  C   UNL     1      -6.726  -9.970  15.020  0.00  0.00    +0.119 C 
ATOM     28  N   UNL     1      -6.596  -9.927  14.206  0.00  0.00    -0.204 NA
ATOM     29  C   UNL     1      -5.846 -10.089  13.900  0.00  0.00    +0.174 C 
ATOM     30  C   UNL     1      -5.716 -10.047  13.086  0.00  0.00    +0.243 C 
ATOM     31  O   UNL     1      -6.335  -9.843  12.580  0.00  0.00    -0.273 OA
ENDROOT
BRANCH  24  32
ATOM     32  N   UNL     1      -5.750 -10.462  17.661  0.00  0.00    -0.303 N 
ATOM     33  C   UNL     1      -5.155 -10.739  18.160  0.00  0.00    +0.123 C 
ATOM     34  C   UNL     1      -5.285 -10.781  18.974  0.00  0.00    +0.164 C 
ATOM     35  O   UNL     1      -6.011 -10.546  19.288  0.00  0.00    -0.350 OA
ATOM     36  C   UNL     1      -6.606 -10.269  18.788  0.00  0.00    +0.164 C 
ATOM     37  C   UNL     1      -6.476 -10.226  17.975  0.00  0.00    +0.123 C 
ENDBRANCH  24  32
BRANCH  11  10
ATOM     10  C   UNL     1      -2.715 -10.688  11.773  0.00  0.00    +0.087 C 
BRANCH  10   8
ATOM      7  N   UNL     1      -1.651  -9.783  11.475  0.00  0.00    -0.201 NA
ATOM      8  C   UNL     1      -2.380 -10.116  11.281  0.00  0.00    +0.242 C 
ATOM      9  O   UNL     1      -2.774  -9.878  10.596  0.00  0.00    -0.273 OA
BRANCH   7   6
ATOM      6  C   UNL     1      -1.315  -9.211  10.983  0.00  0.00    +0.141 C 
BRANCH   6   5
ATOM      1  F   UNL     1       1.464  -7.681  11.892  0.00  0.00    -0.204 F 
ATOM      2  C   UNL     1       0.769  -8.064  11.664  0.00  0.00    +0.140 A 
ATOM      3  C   UNL     1       0.095  -8.006  12.135  0.00  0.00    +0.029 A 
ATOM      4  C   UNL     1      -0.600  -8.389  11.909  0.00  0.00    -0.000 A 
ATOM      5  C   UNL     1      -0.621  -8.828  11.211  0.00  0.00    -0.000 A 
ATOM     38  C   UNL     1       0.055  -8.885  10.740  0.00  0.00    -0.000 A 
ATOM     39  C   UNL     1       0.749  -8.503  10.967  0.00  0.00    +0.029 A 
ENDBRANCH   6   5
ENDBRANCH   7   6
ENDBRANCH  10   8
ENDBRANCH  11  10
TORSDOF 5
ENDMDL
MODEL 4
REMARK VINA RESULT:      -8.0      2.932      4.337
REMARK  Name = 
REMARK  5 active torsions:
REMARK  status: ('A' for Active; 'I' for Inactive)
REMARK    1  A    between atoms: C_5  and  C_6
REMARK    2  A    between atoms: C_6  and  N_7
REMARK    3  A    between atoms: C_8  and  C_10
REMARK    4  A    between atoms: C_10  and  C_11
REMARK    5  A    between atoms: C_24  and  N_32
REMARK                            x       y       z     vdW  Elec       q    Type
REMARK                         _______ _______ _______ _____ _____    ______ ____
ROOT
ATOM     11  C   UNL     1      -0.295   0.661  23.962  0.00  0.00    +0.017 C 
ATOM     12  C   UNL     1       0.342   1.067  24.293  0.00  0.00    +0.022 C 
ATOM     13  C   UNL     1       0.211   1.766  24.712  0.00  0.00    +0.093 C 
ATOM     14  N   UNL     1      -0.495   2.096  24.831  0.00  0.00    -0.278 N 
ATOM     15  C   UNL     1      -1.192   1.651  24.468  0.00  0.00    +0.098 C 
ATOM     16  C   UNL     1      -1.353   0.972  24.026  0.00  0.00    +0.042 C 
ATOM     17  C   UNL     1      -2.169   0.936  23.904  0.00  0.00    -0.026 C 
ATOM     18  C   UNL     1      -2.510   1.591  24.270  0.00  0.00    +0.016 C 
ATOM     19  C   UNL     1      -3.319   1.970  24.406  0.00  0.00    +0.231 C 
ATOM     20  O   UNL     1      -3.070   2.609  24.835  0.00  0.00    -0.471 OA
ATOM     21  C   UNL     1      -2.756   3.052  25.149  0.00  0.00    +0.136 A 
ATOM     22  C   UNL     1      -3.414   2.670  24.831  0.00  0.00    +0.038 A 
ATOM     23  C   UNL     1      -4.168   2.989  24.937  0.00  0.00    +0.018 A 
ATOM     24  C   UNL     1      -4.263   3.691  25.362  0.00  0.00    +0.048 A 
ATOM     25  C   UNL     1      -3.604   4.072  25.680  0.00  0.00    +0.015 A 
ATOM     26  C   UNL     1      -2.851   3.754  25.574  0.00  0.00    +0.030 A 
ATOM     27  C   UNL     1      -2.193   4.136  25.893  0.00  0.00    +0.119 C 
ATOM     28  N   UNL     1      -1.439   3.817  25.786  0.00  0.00    -0.204 NA
ATOM     29  C   UNL     1      -1.344   3.115  25.361  0.00  0.00    +0.174 C 
ATOM     30  C   UNL     1      -0.591   2.796  25.255  0.00  0.00    +0.243 C 
ATOM     31  O   UNL     1       0.067   3.179  25.574  0.00  0.00    -0.273 OA
ENDROOT
BRANCH  24  32
ATOM     32  N   UNL     1      -5.016   4.009  25.468  0.00  0.00    -0.303 N 
ATOM     33  C   UNL     1      -5.158   4.801  25.287  0.00  0.00    +0.123 C 
ATOM     34  C   UNL     1      -5.912   5.120  25.393  0.00  0.00    +0.164 C 
ATOM     35  O   UNL     1      -6.523   4.647  25.680  0.00  0.00    -0.350 OA
ATOM     36  C   UNL     1      -6.381   3.854  25.861  0.00  0.00    +0.164 C 
ATOM     37  C   UNL     1      -5.627   3.536  25.755  0.00  0.00    +0.123 C 
ENDBRANCH  24  32
BRANCH  11  10
ATOM     10  C   UNL     1      -0.128  -0.035  23.549  0.00  0.00    +0.087 C 
BRANCH  10   8
ATOM      7  N   UNL     1      -0.876  -1.178  23.969  0.00  0.00    -0.201 NA
ATOM      8  C   UNL     1      -0.164  -0.763  23.937  0.00  0.00    +0.242 C 
ATOM      9  O   UNL     1       0.512  -1.075  24.293  0.00  0.00    -0.273 OA
BRANCH   7   6
ATOM      6  C   UNL     1      -0.912  -1.906  24.357  0.00  0.00    +0.141 C 
BRANCH   6   5
ATOM      1  F   UNL     1      -3.840  -3.264  25.047  0.00  0.00    -0.204 F 
ATOM      2  C   UNL     1      -3.107  -2.924  24.875  0.00  0.00    +0.140 A 
ATOM      3  C   UNL     1      -2.775  -3.019  24.125  0.00  0.00    +0.029 A 
ATOM      4  C   UNL     1      -2.044  -2.680  23.953  0.00  0.00    -0.000 A 
ATOM      5  C   UNL     1      -1.644  -2.245  24.529  0.00  0.00    -0.000 A 
ATOM     38  C   UNL     1      -1.977  -2.151  25.279  0.00  0.00    -0.000 A 
ATOM     39  C   UNL     1      -2.708  -2.490  25.451  0.00  0.00    +0.029 A 
ENDBRANCH   6   5
ENDBRANCH   7   6
ENDBRANCH  10   8
ENDBRANCH  11  10
TORSDOF 5
ENDMDL
