MODEL 1
REMARK VINA RESULT:     -11.1      0.000      0.000
REMARK  Name = 
REMARK  4 active torsions:
REMARK  status: ('A' for Active; 'I' for Inactive)
REMARK    1  A    between atoms: O_2  and  C_3
REMARK    2  A    between atoms: C_4  and  C_9
REMARK    3  A    between atoms: N_17  and  C_18
REMARK    4  A    between atoms: C_18  and  C_19
REMARK                            x       y       z     vdW  Elec       q    Type
REMARK                         _______ _______ _______ _____ _____    ______ ____
ROOT
ATOM      9  C   UNL     1      -3.515  -0.783  25.116  0.00  0.00    +0.252 C 
ATOM     10  O   UNL     1      -3.480  -0.790  25.941  0.00  0.00    -0.270 OA
ATOM     11  N   UNL     1      -3.489  -0.065  24.708  0.00  0.00    -0.272 N 
ATOM     12  C   UNL     1      -3.525  -0.058  23.884  0.00  0.00    +0.115 C 
ATOM     13  C   UNL     1      -3.499   0.658  23.477  0.00  0.00    +0.116 C 
ATOM     14  N   UNL     1      -3.438   1.368  23.893  0.00  0.00    -0.261 N 
ATOM     15  C   UNL     1      -3.402   1.361  24.717  0.00  0.00    +0.116 C 
ATOM     16  C   UNL     1      -3.344   2.141  24.976  0.00  0.00    +0.117 C 
ATOM     17  N   UNL     1      -3.343   2.631  24.313  0.00  0.00    -0.257 N 
ATOM     25  C   UNL     1      -3.401   2.153  23.644  0.00  0.00    +0.308 C 
ATOM     26  O   UNL     1      -3.419   2.414  22.861  0.00  0.00    -0.252 OA
ATOM     27  C   UNL     1      -3.428   0.644  25.125  0.00  0.00    +0.115 C 
ENDROOT
BRANCH   9   4
ATOM      3  C   UNL     1      -2.945  -2.023  24.693  0.00  0.00    +0.143 A 
ATOM      4  C   UNL     1      -3.576  -1.492  24.699  0.00  0.00    +0.087 A 
ATOM      5  C   UNL     1      -4.270  -1.669  24.288  0.00  0.00    +0.008 A 
ATOM      6  C   UNL     1      -4.331  -2.379  23.871  0.00  0.00    +0.000 A 
ATOM      7  C   UNL     1      -3.700  -2.910  23.865  0.00  0.00    +0.003 A 
ATOM      8  C   UNL     1      -3.007  -2.732  24.275  0.00  0.00    +0.037 A 
BRANCH   3   2
ATOM      1  C   UNL     1      -1.595  -2.339  25.037  0.00  0.00    +0.252 C 
ATOM      2  O   UNL     1      -2.253  -1.845  25.103  0.00  0.00    -0.471 OA
ENDBRANCH   3   2
ENDBRANCH   9   4
BRANCH  17  18
ATOM     18  C   UNL     1      -3.293   3.455  24.318  0.00  0.00    +0.141 C 
BRANCH  18  19
ATOM     19  C   UNL     1      -2.706   3.830  24.760  0.00  0.00    +0.079 A 
ATOM     20  N   UNL     1      -1.937   3.882  24.466  0.00  0.00    -0.246 NA
ATOM     21  C   UNL     1      -1.351   4.258  24.909  0.00  0.00    +0.099 A 
ATOM     22  C   UNL     1      -1.534   4.581  25.645  0.00  0.00    +0.021 A 
ATOM     23  C   UNL     1      -2.303   4.529  25.940  0.00  0.00    +0.003 A 
ATOM     24  C   UNL     1      -2.889   4.153  25.498  0.00  0.00    +0.016 A 
ENDBRANCH  18  19
ENDBRANCH  17  18
TORSDOF 4
ENDMDL
MODEL 2
REMARK VINA RESULT:     -10.8      1.432      5.130
REMARK  Name = 
REMARK  4 active torsions:
REMARK  status: ('A' for Active; 'I' for Inactive)
REMARK    1  A    between atoms: O_2  and  C_3
REMARK    2  A    between atoms: C_4  and  C_9
REMARK    3  A    between atoms: N_17  and  C_18
REMARK    4  A    between atoms: C_18  and  C_19
REMARK                            x       y       z     vdW  Elec       q    Type
REMARK                         _______ _______ _______ _____ _____    ______ ____
ROOT
ATOM      9  C   UNL     1      -1.544   2.636  25.378  0.00  0.00    +0.252 C 
ATOM     10  O   UNL     1      -0.905   2.197  25.662  0.00  0.00    -0.270 OA
ATOM     11  N   UNL     1      -2.255   2.258  25.195  0.00  0.00    -0.272 N 
ATOM     12  C   UNL     1      -2.894   2.697  24.911  0.00  0.00    +0.115 C 
ATOM     13  C   UNL     1      -3.604   2.319  24.728  0.00  0.00    +0.116 C 
ATOM     14  N   UNL     1      -3.676   1.504  24.829  0.00  0.00    -0.261 N 
ATOM     15  C   UNL     1      -3.038   1.065  25.113  0.00  0.00    +0.116 C 
ATOM     16  C   UNL     1      -3.270   0.275  25.156  0.00  0.00    +0.117 C 
ATOM     17  N   UNL     1      -4.051   0.225  24.899  0.00  0.00    -0.257 N 
ATOM     25  C   UNL     1      -4.302   0.984  24.697  0.00  0.00    +0.308 C 
ATOM     26  O   UNL     1      -5.049   1.188  24.412  0.00  0.00    -0.252 OA
ATOM     27  C   UNL     1      -2.326   1.443  25.297  0.00  0.00    +0.115 C 
ENDROOT
BRANCH   9   4
ATOM      3  C   UNL     1      -0.908   3.755  24.757  0.00  0.00    +0.143 A 
ATOM      4  C   UNL     1      -1.473   3.451  25.277  0.00  0.00    +0.087 A 
ATOM      5  C   UNL     1      -1.967   3.963  25.696  0.00  0.00    +0.008 A 
ATOM      6  C   UNL     1      -1.896   4.779  25.594  0.00  0.00    +0.000 A 
ATOM      7  C   UNL     1      -1.331   5.083  25.075  0.00  0.00    +0.003 A 
ATOM      8  C   UNL     1      -0.838   4.571  24.657  0.00  0.00    +0.037 A 
BRANCH   3   2
ATOM      1  C   UNL     1       0.166   3.548  23.839  0.00  0.00    +0.252 C 
ATOM      2  O   UNL     1      -0.415   3.244  24.339  0.00  0.00    -0.471 OA
ENDBRANCH   3   2
ENDBRANCH   9   4
BRANCH  17  18
ATOM     18  C   UNL     1      -4.503  -0.464  24.852  0.00  0.00    +0.141 C 
BRANCH  18  19
ATOM     19  C   UNL     1      -4.136  -1.190  24.713  0.00  0.00    +0.079 A 
ATOM     20  N   UNL     1      -3.758  -1.586  25.329  0.00  0.00    -0.246 NA
ATOM     21  C   UNL     1      -3.392  -2.312  25.189  0.00  0.00    +0.099 A 
ATOM     22  C   UNL     1      -3.403  -2.641  24.433  0.00  0.00    +0.021 A 
ATOM     23  C   UNL     1      -3.782  -2.244  23.816  0.00  0.00    +0.003 A 
ATOM     24  C   UNL     1      -4.148  -1.519  23.955  0.00  0.00    +0.016 A 
ENDBRANCH  18  19
ENDBRANCH  17  18
TORSDOF 4
ENDMDL
MODEL 3
REMARK VINA RESULT:     -10.6      1.505      5.429
REMARK  Name = 
REMARK  4 active torsions:
REMARK  status: ('A' for Active; 'I' for Inactive)
REMARK    1  A    between atoms: O_2  and  C_3
REMARK    2  A    between atoms: C_4  and  C_9
REMARK    3  A    between atoms: N_17  and  C_18
REMARK    4  A    between atoms: C_18  and  C_19
REMARK                            x       y       z     vdW  Elec       q    Type
REMARK                         _______ _______ _______ _____ _____    ______ ____
ROOT
ATOM      9  C   UNL     1      -2.224   2.646  24.415  0.00  0.00    +0.252 C 
ATOM     10  O   UNL     1      -2.804   2.654  23.829  0.00  0.00    -0.270 OA
ATOM     11  N   UNL     1      -1.935   1.928  24.702  0.00  0.00    -0.272 N 
ATOM     12  C   UNL     1      -1.355   1.920  25.288  0.00  0.00    +0.115 C 
ATOM     13  C   UNL     1      -1.067   1.203  25.574  0.00  0.00    +0.116 C 
ATOM     14  N   UNL     1      -1.358   0.491  25.274  0.00  0.00    -0.261 N 
ATOM     15  C   UNL     1      -1.939   0.499  24.688  0.00  0.00    +0.116 C 
ATOM     16  C   UNL     1      -2.120  -0.283  24.498  0.00  0.00    +0.117 C 
ATOM     17  N   UNL     1      -1.652  -0.774  24.968  0.00  0.00    -0.257 N 
ATOM     25  C   UNL     1      -1.182  -0.295  25.447  0.00  0.00    +0.308 C 
ATOM     26  O   UNL     1      -0.630  -0.557  26.002  0.00  0.00    -0.252 OA
ATOM     27  C   UNL     1      -2.227   1.217  24.401  0.00  0.00    +0.115 C 
ENDROOT
BRANCH   9   4
ATOM      3  C   UNL     1      -2.417   3.844  25.171  0.00  0.00    +0.143 A 
ATOM      4  C   UNL     1      -1.931   3.356  24.716  0.00  0.00    +0.087 A 
ATOM      5  C   UNL     1      -1.151   3.580  24.561  0.00  0.00    +0.008 A 
ATOM      6  C   UNL     1      -0.859   4.290  24.862  0.00  0.00    +0.000 A 
ATOM      7  C   UNL     1      -1.345   4.777  25.317  0.00  0.00    +0.003 A 
ATOM      8  C   UNL     1      -2.123   4.554  25.471  0.00  0.00    +0.037 A 
BRANCH   3   2
ATOM      1  C   UNL     1      -3.670   4.090  25.810  0.00  0.00    +0.252 C 
ATOM      2  O   UNL     1      -3.196   3.621  25.325  0.00  0.00    -0.471 OA
ENDBRANCH   3   2
ENDBRANCH   9   4
BRANCH  17  18
ATOM     18  C   UNL     1      -1.654  -1.599  24.959  0.00  0.00    +0.141 C 
BRANCH  18  19
ATOM     19  C   UNL     1      -2.354  -2.009  24.810  0.00  0.00    +0.079 A 
ATOM     20  N   UNL     1      -2.514  -2.290  24.051  0.00  0.00    -0.246 NA
ATOM     21  C   UNL     1      -3.215  -2.700  23.902  0.00  0.00    +0.099 A 
ATOM     22  C   UNL     1      -3.755  -2.828  24.511  0.00  0.00    +0.021 A 
ATOM     23  C   UNL     1      -3.595  -2.547  25.270  0.00  0.00    +0.003 A 
ATOM     24  C   UNL     1      -2.895  -2.137  25.420  0.00  0.00    +0.016 A 
ENDBRANCH  18  19
ENDBRANCH  17  18
TORSDOF 4
ENDMDL
MODEL 4
REMARK VINA RESULT:      -9.8      1.719      2.233
REMARK  Name = 
REMARK  4 active torsions:
REMARK  status: ('A' for Active; 'I' for Inactive)
REMARK    1  A    between atoms: O_2  and  C_3
REMARK    2  A    between atoms: C_4  and  C_9
REMARK    3  A    between atoms: N_17  and  C_18
REMARK    4  A    between atoms: C_18  and  C_19
REMARK                            x       y       z     vdW  Elec       q    Type
REMARK                         _______ _______ _______ _____ _____    ______ ____
ROOT
ATOM      9  C   UNL     1      -2.433  -0.768  25.329  0.00  0.00    +0.252 C 
ATOM     10  O   UNL     1      -3.019  -0.617  25.890  0.00  0.00    -0.270 OA
ATOM     11  N   UNL     1      -1.869  -0.190  25.155  0.00  0.00    -0.272 N 
ATOM     12  C   UNL     1      -1.283  -0.340  24.594  0.00  0.00    +0.115 C 
ATOM     13  C   UNL     1      -0.721   0.237  24.420  0.00  0.00    +0.116 C 
ATOM     14  N   UNL     1      -0.743   0.965  24.807  0.00  0.00    -0.261 N 
ATOM     15  C   UNL     1      -1.329   1.116  25.368  0.00  0.00    +0.116 C 
ATOM     16  C   UNL     1      -1.214   1.879  25.658  0.00  0.00    +0.117 C 
ATOM     17  N   UNL     1      -0.557   2.200  25.277  0.00  0.00    -0.257 N 
ATOM     25  C   UNL     1      -0.266   1.635  24.751  0.00  0.00    +0.308 C 
ATOM     26  O   UNL     1       0.388   1.725  24.256  0.00  0.00    -0.252 OA
ATOM     27  C   UNL     1      -1.893   0.538  25.542  0.00  0.00    +0.115 C 
ENDROOT
BRANCH   9   4
ATOM      3  C   UNL     1      -3.058  -1.748  24.498  0.00  0.00    +0.143 A 
ATOM      4  C   UNL     1      -2.410  -1.495  24.941  0.00  0.00    +0.087 A 
ATOM      5  C   UNL     1      -1.737  -1.971  24.998  0.00  0.00    +0.008 A 
ATOM      6  C   UNL     1      -1.714  -2.699  24.610  0.00  0.00    +0.000 A 
ATOM      7  C   UNL     1      -2.362  -2.952  24.167  0.00  0.00    +0.003 A 
ATOM      8  C   UNL     1      -3.033  -2.476  24.111  0.00  0.00    +0.037 A 
BRANCH   3   2
ATOM      1  C   UNL     1      -4.367  -1.514  23.977  0.00  0.00    +0.252 C 
ATOM      2  O   UNL     1      -3.729  -1.273  24.442  0.00  0.00    -0.471 OA
ENDBRANCH   3   2
ENDBRANCH   9   4
BRANCH  17  18
ATOM     18  C   UNL     1      -0.245   2.954  25.400  0.00  0.00    +0.141 C 
BRANCH  18  19
ATOM     19  C   UNL     1      -0.728   3.618  25.326  0.00  0.00    +0.079 A 
ATOM     20  N   UNL     1      -1.402   3.693  25.797  0.00  0.00    -0.246 NA
ATOM     21  C   UNL     1      -1.885   4.358  25.722  0.00  0.00    +0.099 A 
ATOM     22  C   UNL     1      -1.694   4.947  25.178  0.00  0.00    +0.021 A 
ATOM     23  C   UNL     1      -1.021   4.872  24.707  0.00  0.00    +0.003 A 
ATOM     24  C   UNL     1      -0.537   4.208  24.781  0.00  0.00    +0.016 A 
ENDBRANCH  18  19
ENDBRANCH  17  18
TORSDOF 4
ENDMDL
