MODEL 1
REMARK VINA RESULT:     -16.8      0.000      0.000
REMARK  Name = 
REMARK  3 active torsions:
REMARK  status: ('A' for Active; 'I' for Inactive)
REMARK    1  A    between atoms: S_2  and  C_3
REMARK    2  A    between atoms: C_6  and  C_9
REMARK    3  A    between atoms: C_19  and  C_21
REMARK                            x       y       z     vdW  Elec       q    Type
REMARK                         _______ _______ _______ _____ _____    ______ ____
ROOT
ATOM      9  C   UNL     1      -3.866   0.020  24.457  0.00  0.00    +0.056 A 
ATOM     10  C   UNL     1      -4.557  -0.408  24.075  0.00  0.00    +0.006 A 
ATOM     11  C   UNL     1      -4.468  -1.227  24.042  0.00  0.00    +0.013 A 
ATOM     12  C   UNL     1      -3.788  -1.580  24.346  0.00  0.00    +0.041 A 
ATOM     13  C   UNL     1      -3.402  -2.407  24.459  0.00  0.00    +0.058 C 
ATOM     14  C   UNL     1      -3.516  -3.088  24.338  0.00  0.00    +0.011 C 
ATOM     15  C   UNL     1      -2.934  -2.625  24.670  0.00  0.00    +0.043 C 
ATOM     16  C   UNL     1      -2.132  -2.243  25.102  0.00  0.00    +0.096 C 
ATOM     17  N   UNL     1      -2.334  -1.432  25.079  0.00  0.00    -0.276 N 
ATOM     18  C   UNL     1      -2.621  -2.052  24.879  0.00  0.00    +0.099 C 
ATOM     19  C   UNL     1      -2.131  -0.626  25.255  0.00  0.00    +0.249 C 
ATOM     20  O   UNL     1      -1.352  -0.550  25.647  0.00  0.00    -0.270 OA
ATOM     28  C   UNL     1      -3.329  -1.757  24.556  0.00  0.00    +0.110 C 
ATOM     29  N   UNL     1      -3.196  -1.114  24.682  0.00  0.00    -0.299 N 
ATOM     30  C   UNL     1      -3.285  -0.294  24.715  0.00  0.00    +0.261 A 
ATOM     31  O   UNL     1      -2.416   0.053  25.178  0.00  0.00    -0.267 OA
ENDROOT
BRANCH  19  21
ATOM     21  C   UNL     1      -2.864  -0.112  24.941  0.00  0.00    +0.054 A 
ATOM     22  C   UNL     1      -2.766   0.210  24.188  0.00  0.00    +0.007 A 
ATOM     23  C   UNL     1      -3.365   0.669  23.854  0.00  0.00    +0.030 A 
ATOM     24  C   UNL     1      -4.062   0.805  24.274  0.00  0.00    +0.140 A 
ATOM     25  F   UNL     1      -4.651   1.315  23.826  0.00  0.00    -0.204 F 
ATOM     26  C   UNL     1      -4.160   0.483  25.027  0.00  0.00    +0.030 A 
ATOM     27  C   UNL     1      -3.560   0.024  25.361  0.00  0.00    +0.007 A 
ENDBRANCH  19  21
BRANCH   9   6
ATOM      3  C   UNL     1      -4.266   2.414  25.150  0.00  0.00    +0.025 A 
ATOM      4  C   UNL     1      -4.881   1.876  25.265  0.00  0.00    +0.006 A 
ATOM      5  C   UNL     1      -4.813   0.974  25.036  0.00  0.00    +0.001 A 
ATOM      6  C   UNL     1      -3.755   0.763  24.582  0.00  0.00    +0.005 A 
ATOM      7  C   UNL     1      -3.664   1.421  24.695  0.00  0.00    +0.001 A 
ATOM      8  C   UNL     1      -3.553   2.163  24.819  0.00  0.00    +0.006 A 
BRANCH   3   2
ATOM      1  C   UNL     1      -3.936   3.867  25.792  0.00  0.00    +0.074 C 
ATOM      2  S   UNL     1      -4.390   3.260  25.387  0.00  0.00    -0.113 S 
ENDBRANCH   3   2
ENDBRANCH   9   6
TORSDOF 3
ENDMDL
MODEL 2
REMARK VINA RESULT:     -16.4      1.705      3.722
REMARK  Name = 
REMARK  3 active torsions:
REMARK  status: ('A' for Active; 'I' for Inactive)
REMARK    1  A    between atoms: S_2  and  C_3
REMARK    2  A    between atoms: C_6  and  C_9
REMARK    3  A    between atoms: C_19  and  C_21
REMARK                            x       y       z     vdW  Elec       q    Type
REMARK                         _______ _______ _______ _____ _____    ______ ____
ROOT
ATOM      9  C   UNL     1      -4.191   0.758  24.732  0.00  0.00    +0.056 A 
ATOM     10  C   UNL     1      -5.054   0.778  24.981  0.00  0.00    +0.006 A 
ATOM     11  C   UNL     1      -5.325   1.529  25.189  0.00  0.00    +0.013 A 
ATOM     12  C   UNL     1      -4.814   2.176  25.156  0.00  0.00    +0.041 A 
ATOM     13  C   UNL     1      -4.799   3.081  25.310  0.00  0.00    +0.058 C 
ATOM     14  C   UNL     1      -5.209   3.611  25.519  0.00  0.00    +0.011 C 
ATOM     15  C   UNL     1      -4.437   3.505  25.280  0.00  0.00    +0.043 C 
ATOM     16  C   UNL     1      -3.486   3.579  25.023  0.00  0.00    +0.096 C 
ATOM     17  N   UNL     1      -3.328   2.780  24.839  0.00  0.00    -0.276 N 
ATOM     18  C   UNL     1      -3.880   3.169  25.064  0.00  0.00    +0.099 C 
ATOM     19  C   UNL     1      -2.778   2.187  24.579  0.00  0.00    +0.249 C 
ATOM     20  O   UNL     1      -1.983   2.513  24.410  0.00  0.00    -0.270 OA
ATOM     28  C   UNL     1      -4.444   2.559  25.118  0.00  0.00    +0.110 C 
ATOM     29  N   UNL     1      -4.032   2.071  24.916  0.00  0.00    -0.299 N 
ATOM     30  C   UNL     1      -3.761   1.320  24.708  0.00  0.00    +0.261 A 
ATOM     31  O   UNL     1      -2.759   1.458  24.447  0.00  0.00    -0.267 OA
ENDROOT
BRANCH  19  21
ATOM     21  C   UNL     1      -3.269   1.375  24.577  0.00  0.00    +0.054 A 
ATOM     22  C   UNL     1      -3.580   1.158  23.845  0.00  0.00    +0.007 A 
ATOM     23  C   UNL     1      -4.018   0.462  23.774  0.00  0.00    +0.030 A 
ATOM     24  C   UNL     1      -4.145  -0.015  24.434  0.00  0.00    +0.140 A 
ATOM     25  F   UNL     1      -4.632  -0.748  24.252  0.00  0.00    -0.204 F 
ATOM     26  C   UNL     1      -3.833   0.202  25.166  0.00  0.00    +0.030 A 
ATOM     27  C   UNL     1      -3.395   0.898  25.238  0.00  0.00    +0.007 A 
ENDBRANCH  19  21
BRANCH   9   6
ATOM      3  C   UNL     1      -3.054  -1.495  24.681  0.00  0.00    +0.025 A 
ATOM      4  C   UNL     1      -3.550  -1.333  25.320  0.00  0.00    +0.006 A 
ATOM      5  C   UNL     1      -4.006  -0.525  25.413  0.00  0.00    +0.001 A 
ATOM      6  C   UNL     1      -3.758   0.174  24.507  0.00  0.00    +0.005 A 
ATOM      7  C   UNL     1      -3.377  -0.348  24.314  0.00  0.00    +0.001 A 
ATOM      8  C   UNL     1      -2.944  -0.931  24.089  0.00  0.00    +0.006 A 
BRANCH   3   2
ATOM      1  C   UNL     1      -1.836  -2.564  24.588  0.00  0.00    +0.074 C 
ATOM      2  S   UNL     1      -2.646  -2.283  24.647  0.00  0.00    -0.113 S 
ENDBRANCH   3   2
ENDBRANCH   9   6
TORSDOF 3
ENDMDL
MODEL 3
REMARK VINA RESULT:     -15.5      2.095      4.064
REMARK  Name = 
REMARK  3 active torsions:
REMARK  status: ('A' for Active; 'I' for Inactive)
REMARK    1  A    between atoms: S_2  and  C_3
REMARK    2  A    between atoms: C_6  and  C_9
REMARK    3  A    between atoms: C_19  and  C_21
REMARK                            x       y       z     vdW  Elec       q    Type
REMARK                         _______ _______ _______ _____ _____    ______ ____
ROOT
ATOM      9  C   UNL     1      -3.155   2.299  24.464  0.00  0.00    +0.056 A 
ATOM     10  C   UNL     1      -3.757   2.912  24.726  0.00  0.00    +0.006 A 
ATOM     11  C   UNL     1      -3.423   3.625  24.974  0.00  0.00    +0.013 A 
ATOM     12  C   UNL     1      -2.604   3.720  24.966  0.00  0.00    +0.041 A 
ATOM     13  C   UNL     1      -1.956   4.342  25.163  0.00  0.00    +0.058 C 
ATOM     14  C   UNL     1      -1.876   4.996  25.404  0.00  0.00    +0.011 C 
ATOM     15  C   UNL     1      -1.400   4.386  25.150  0.00  0.00    +0.043 C 
ATOM     16  C   UNL     1      -0.669   3.776  24.884  0.00  0.00    +0.096 C 
ATOM     17  N   UNL     1      -1.119   3.109  24.658  0.00  0.00    -0.276 N 
ATOM     18  C   UNL     1      -1.239   3.765  24.910  0.00  0.00    +0.099 C 
ATOM     19  C   UNL     1      -1.143   2.313  24.362  0.00  0.00    +0.249 C 
ATOM     20  O   UNL     1      -0.346   1.989  24.198  0.00  0.00    -0.270 OA
ATOM     28  C   UNL     1      -2.070   3.730  24.941  0.00  0.00    +0.110 C 
ATOM     29  N   UNL     1      -2.119   3.104  24.710  0.00  0.00    -0.299 N 
ATOM     30  C   UNL     1      -2.453   2.392  24.462  0.00  0.00    +0.261 A 
ATOM     31  O   UNL     1      -1.641   1.792  24.194  0.00  0.00    -0.267 OA
ENDROOT
BRANCH  19  21
ATOM     21  C   UNL     1      -2.063   2.088  24.327  0.00  0.00    +0.054 A 
ATOM     22  C   UNL     1      -2.422   2.201  23.593  0.00  0.00    +0.007 A 
ATOM     23  C   UNL     1      -3.222   2.025  23.494  0.00  0.00    +0.030 A 
ATOM     24  C   UNL     1      -3.663   1.736  24.128  0.00  0.00    +0.140 A 
ATOM     25  F   UNL     1      -4.521   1.576  23.918  0.00  0.00    -0.204 F 
ATOM     26  C   UNL     1      -3.304   1.624  24.863  0.00  0.00    +0.030 A 
ATOM     27  C   UNL     1      -2.503   1.800  24.962  0.00  0.00    +0.007 A 
ENDBRANCH  19  21
BRANCH   9   6
ATOM      3  C   UNL     1      -3.967  -0.084  24.272  0.00  0.00    +0.025 A 
ATOM      4  C   UNL     1      -4.235   0.359  24.914  0.00  0.00    +0.006 A 
ATOM      5  C   UNL     1      -3.982   1.246  25.057  0.00  0.00    +0.001 A 
ATOM      6  C   UNL     1      -3.257   1.590  24.205  0.00  0.00    +0.005 A 
ATOM      7  C   UNL     1      -3.352   0.961  23.981  0.00  0.00    +0.001 A 
ATOM      8  C   UNL     1      -3.453   0.254  23.722  0.00  0.00    +0.006 A 
BRANCH   3   2
ATOM      1  C   UNL     1      -3.875  -1.699  24.145  0.00  0.00    +0.074 C 
ATOM      2  S   UNL     1      -4.242  -0.924  24.189  0.00  0.00    -0.113 S 
ENDBRANCH   3   2
ENDBRANCH   9   6
TORSDOF 3
ENDMDL
MODEL 4
REMARK VINA RESULT:     -15.4      2.245      3.725
REMARK  Name = 
REMARK  3 active torsions:
REMARK  status: ('A' for Active; 'I' for Inactive)
REMARK    1  A    between atoms: S_2  and  C_3
REMARK    2  A    between atoms: C_6  and  C_9
REMARK    3  A    between atoms: C_19  and  C_21
REMARK                            x       y       z     vdW  Elec       q    Type
REMARK                         _______ _______ _______ _____ _____    ______ ____
ROOT
ATOM      9  C   UNL     1      -3.508   1.235  24.451  0.00  0.00    +0.056 A 
ATOM     10  C   UNL     1      -4.038   0.529  24.618  0.00  0.00    +0.006 A 
ATOM     11  C   UNL     1      -4.769   0.728  24.945  0.00  0.00    +0.013 A 
ATOM     12  C   UNL     1      -4.954   1.519  25.089  0.00  0.00    +0.041 A 
ATOM     13  C   UNL     1      -5.631   2.044  25.421  0.00  0.00    +0.058 C 
ATOM     14  C   UNL     1      -6.277   2.003  25.692  0.00  0.00    +0.011 C 
ATOM     15  C   UNL     1      -5.736   2.585  25.511  0.00  0.00    +0.043 C 
ATOM     16  C   UNL     1      -5.225   3.417  25.363  0.00  0.00    +0.096 C 
ATOM     17  N   UNL     1      -4.525   3.096  25.039  0.00  0.00    -0.276 N 
ATOM     18  C   UNL     1      -5.150   2.858  25.285  0.00  0.00    +0.099 C 
ATOM     19  C   UNL     1      -3.747   3.218  24.719  0.00  0.00    +0.249 C 
ATOM     20  O   UNL     1      -3.521   4.064  24.693  0.00  0.00    -0.270 OA
ATOM     28  C   UNL     1      -5.023   2.044  25.163  0.00  0.00    +0.110 C 
ATOM     29  N   UNL     1      -4.408   2.110  24.907  0.00  0.00    -0.299 N 
ATOM     30  C   UNL     1      -3.677   1.911  24.580  0.00  0.00    +0.261 A 
ATOM     31  O   UNL     1      -3.184   2.821  24.446  0.00  0.00    -0.267 OA
ENDROOT
BRANCH  19  21
ATOM     21  C   UNL     1      -3.426   2.351  24.510  0.00  0.00    +0.054 A 
ATOM     22  C   UNL     1      -3.532   2.120  23.725  0.00  0.00    +0.007 A 
ATOM     23  C   UNL     1      -3.274   1.377  23.476  0.00  0.00    +0.030 A 
ATOM     24  C   UNL     1      -2.911   0.865  24.011  0.00  0.00    +0.140 A 
ATOM     25  F   UNL     1      -2.668   0.082  23.642  0.00  0.00    -0.204 F 
ATOM     26  C   UNL     1      -2.805   1.096  24.796  0.00  0.00    +0.030 A 
ATOM     27  C   UNL     1      -3.062   1.840  25.045  0.00  0.00    +0.007 A 
ENDBRANCH  19  21
BRANCH   9   6
ATOM      3  C   UNL     1      -1.060   0.768  24.052  0.00  0.00    +0.025 A 
ATOM      4  C   UNL     1      -1.434   0.349  24.656  0.00  0.00    +0.006 A 
ATOM      5  C   UNL     1      -2.335   0.464  24.868  0.00  0.00    +0.001 A 
ATOM      6  C   UNL     1      -2.807   1.264  24.156  0.00  0.00    +0.005 A 
ATOM      7  C   UNL     1      -2.184   1.285  23.899  0.00  0.00    +0.001 A 
ATOM      8  C   UNL     1      -1.484   1.315  23.604  0.00  0.00    +0.006 A 
BRANCH   3   2
ATOM      1  C   UNL     1       0.523   1.080  23.880  0.00  0.00    +0.074 C 
ATOM      2  S   UNL     1      -0.199   0.616  23.898  0.00  0.00    -0.113 S 
ENDBRANCH   3   2
ENDBRANCH   9   6
TORSDOF 3
ENDMDL
