MODEL 1
REMARK VINA RESULT:     -12.0      0.000      0.000
REMARK  Name = 
REMARK  7 active torsions:
REMARK  status: ('A' for Active; 'I' for Inactive)
REMARK    1  A    between atoms: C_2  and  C_24
REMARK    2  A    between atoms: C_9  and  N_10
REMARK    3  A    between atoms: C_11  and  C_13
REMARK    4  A    between atoms: C_13  and  C_14
REMARK    5  A    between atoms: C_24  and  C_26
REMARK    6  A    between atoms: N_28  and  C_29
REMARK    7  A    between atoms: N_28  and  C_31
REMARK                            x       y       z     vdW  Elec       q    Type
REMARK                         _______ _______ _______ _____ _____    ______ ____
ROOT
ATOM      1  C   UNL     1      -4.272   0.215  24.619  0.00  0.00    +0.052 C 
ATOM      2  C   UNL     1      -4.909   0.436  25.093  0.00  0.00    -0.001 C 
ATOM      3  C   UNL     1      -5.024   1.230  25.286  0.00  0.00    -0.000 C 
ATOM      4  C   UNL     1      -4.500   1.803  25.003  0.00  0.00    -0.001 C 
ATOM      5  C   UNL     1      -5.139   2.024  25.478  0.00  0.00    -0.000 C 
ATOM      6  C   UNL     1      -4.616   2.597  25.196  0.00  0.00    +0.002 C 
ATOM      7  C   UNL     1      -4.093   3.169  24.914  0.00  0.00    +0.022 C 
ATOM      8  C   UNL     1      -3.454   2.948  24.440  0.00  0.00    +0.095 C 
ATOM     17  C   UNL     1      -3.340   2.154  24.248  0.00  0.00    +0.019 C 
ATOM     18  C   UNL     1      -2.703   1.933  23.773  0.00  0.00    +0.002 C 
ATOM     19  C   UNL     1      -3.863   1.581  24.529  0.00  0.00    +0.045 C 
ATOM     20  C   UNL     1      -3.749   0.788  24.337  0.00  0.00    +0.145 C 
ATOM     21  O   UNL     1      -3.111   0.566  23.863  0.00  0.00    -0.224 OA
ENDROOT
BRANCH   8   9
ATOM      9  N   UNL     1      -2.932   3.519  24.158  0.00  0.00    -0.207 NA
ATOM     10  C   UNL     1      -2.522   4.002  24.689  0.00  0.00    +0.241 C 
ATOM     11  O   UNL     1      -2.636   3.910  25.502  0.00  0.00    -0.273 OA
BRANCH  10  12
ATOM     12  C   UNL     1      -1.999   4.574  24.407  0.00  0.00    +0.087 C 
BRANCH  12  13
ATOM     13  C   UNL     1      -1.371   4.826  24.879  0.00  0.00    +0.009 C 
ATOM     14  C   UNL     1      -0.744   5.080  25.352  0.00  0.00    +0.000 C 
ATOM     15  C   UNL     1      -0.888   4.246  24.548  0.00  0.00    +0.000 C 
ATOM     16  C   UNL     1      -1.855   5.407  25.211  0.00  0.00    +0.000 C 
ENDBRANCH  12  13
ENDBRANCH  10  12
ENDBRANCH   8   9
BRANCH   1  22
ATOM     22  C   UNL     1      -4.157  -0.579  24.426  0.00  0.00    +0.075 C 
ATOM     23  C   UNL     1      -4.361  -0.856  23.677  0.00  0.00    +0.009 C 
BRANCH  22  24
ATOM     24  C   UNL     1      -3.837  -1.096  24.984  0.00  0.00    +0.225 C 
ATOM     25  O   UNL     1      -3.633  -0.819  25.734  0.00  0.00    -0.275 OA
ATOM     26  N   UNL     1      -3.722  -1.890  24.792  0.00  0.00    -0.280 N 
BRANCH  26  27
ATOM     27  C   UNL     1      -3.402  -2.407  25.349  0.00  0.00    +0.093 C 
ATOM     28  C   UNL     1      -2.628  -2.679  25.263  0.00  0.00    +0.023 C 
ENDBRANCH  26  27
BRANCH  26  29
ATOM     29  C   UNL     1      -3.926  -2.167  24.042  0.00  0.00    +0.093 C 
ATOM     30  C   UNL     1      -4.021  -2.976  23.913  0.00  0.00    +0.023 C 
ENDBRANCH  26  29
ENDBRANCH  22  24
ENDBRANCH   1  22
TORSDOF 7
ENDMDL
MODEL 2
REMARK VINA RESULT:     -11.2      1.050      5.384
REMARK  Name = 
REMARK  7 active torsions:
REMARK  status: ('A' for Active; 'I' for Inactive)
REMARK    1  A    between atoms: C_2  and  C_24
REMARK    2  A    between atoms: C_9  and  N_10
REMARK    3  A    between atoms: C_11  and  C_13
REMARK    4  A    between atoms: C_13  and  C_14
REMARK    5  A    between atoms: C_24  and  C_26
REMARK    6  A    between atoms: N_28  and  C_29
REMARK    7  A    between atoms: N_28  and  C_31
REMARK                            x       y       z     vdW  Elec       q    Type
REMARK                         _______ _______ _______ _____ _____    ______ ____
ROOT
ATOM      1  C   UNL     1      -2.409   2.572  24.783  0.00  0.00    +0.052 C 
ATOM      2  C   UNL     1      -3.096   2.883  24.451  0.00  0.00    -0.001 C 
ATOM      3  C   UNL     1      -3.754   2.400  24.337  0.00  0.00    -0.000 C 
ATOM      4  C   UNL     1      -3.726   1.604  24.557  0.00  0.00    -0.001 C 
ATOM      5  C   UNL     1      -4.414   1.916  24.224  0.00  0.00    -0.000 C 
ATOM      6  C   UNL     1      -4.385   1.121  24.443  0.00  0.00    +0.002 C 
ATOM      7  C   UNL     1      -4.356   0.326  24.662  0.00  0.00    +0.022 C 
ATOM      8  C   UNL     1      -3.668   0.014  24.995  0.00  0.00    +0.095 C 
ATOM     17  C   UNL     1      -3.009   0.498  25.108  0.00  0.00    +0.019 C 
ATOM     18  C   UNL     1      -2.322   0.186  25.441  0.00  0.00    +0.002 C 
ATOM     19  C   UNL     1      -3.038   1.293  24.889  0.00  0.00    +0.045 C 
ATOM     20  C   UNL     1      -2.380   1.776  25.002  0.00  0.00    +0.145 C 
ATOM     21  O   UNL     1      -1.692   1.465  25.335  0.00  0.00    -0.224 OA
ENDROOT
BRANCH   8   9
ATOM      9  N   UNL     1      -3.639  -0.779  25.214  0.00  0.00    -0.207 NA
ATOM     10  C   UNL     1      -3.821  -1.367  24.663  0.00  0.00    +0.241 C 
ATOM     11  O   UNL     1      -4.031  -1.158  23.892  0.00  0.00    -0.273 OA
BRANCH  10  12
ATOM     12  C   UNL     1      -3.792  -2.162  24.882  0.00  0.00    +0.087 C 
BRANCH  12  13
ATOM     13  C   UNL     1      -3.611  -2.738  24.319  0.00  0.00    +0.009 C 
ATOM     14  C   UNL     1      -3.429  -3.314  23.758  0.00  0.00    +0.000 C 
ATOM     15  C   UNL     1      -4.357  -2.642  23.981  0.00  0.00    +0.000 C 
ATOM     16  C   UNL     1      -2.865  -2.834  24.659  0.00  0.00    +0.000 C 
ENDBRANCH  12  13
ENDBRANCH  10  12
ENDBRANCH   8   9
BRANCH   1  22
ATOM     22  C   UNL     1      -1.749   3.054  24.897  0.00  0.00    +0.075 C 
ATOM     23  C   UNL     1      -1.012   2.821  24.610  0.00  0.00    +0.009 C 
BRANCH  22  24
ATOM     24  C   UNL     1      -1.828   3.771  25.297  0.00  0.00    +0.225 C 
ATOM     25  O   UNL     1      -2.335   3.828  25.947  0.00  0.00    -0.275 OA
ATOM     26  N   UNL     1      -1.400   4.432  25.050  0.00  0.00    -0.280 N 
BRANCH  26  27
ATOM     27  C   UNL     1      -1.479   5.148  25.450  0.00  0.00    +0.093 C 
ATOM     28  C   UNL     1      -1.759   5.815  25.052  0.00  0.00    +0.023 C 
ENDBRANCH  26  27
BRANCH  26  29
ATOM     29  C   UNL     1      -0.893   4.375  24.401  0.00  0.00    +0.093 C 
ATOM     30  C   UNL     1      -0.291   4.929  24.299  0.00  0.00    +0.023 C 
ENDBRANCH  26  29
ENDBRANCH  22  24
ENDBRANCH   1  22
TORSDOF 7
ENDMDL
MODEL 3
REMARK VINA RESULT:     -10.6      1.502      2.179
REMARK  Name = 
REMARK  7 active torsions:
REMARK  status: ('A' for Active; 'I' for Inactive)
REMARK    1  A    between atoms: C_2  and  C_24
REMARK    2  A    between atoms: C_9  and  N_10
REMARK    3  A    between atoms: C_11  and  C_13
REMARK    4  A    between atoms: C_13  and  C_14
REMARK    5  A    between atoms: C_24  and  C_26
REMARK    6  A    between atoms: N_28  and  C_29
REMARK    7  A    between atoms: N_28  and  C_31
REMARK                            x       y       z     vdW  Elec       q    Type
REMARK                         _______ _______ _______ _____ _____    ______ ____
ROOT
ATOM      1  C   UNL     1      -2.602  -0.108  24.638  0.00  0.00    +0.052 C 
ATOM      2  C   UNL     1      -1.878  -0.408  24.383  0.00  0.00    -0.001 C 
ATOM      3  C   UNL     1      -1.198   0.056  24.433  0.00  0.00    -0.000 C 
ATOM      4  C   UNL     1      -1.244   0.823  24.737  0.00  0.00    -0.001 C 
ATOM      5  C   UNL     1      -0.518   0.522  24.482  0.00  0.00    -0.000 C 
ATOM      6  C   UNL     1      -0.564   1.288  24.786  0.00  0.00    +0.002 C 
ATOM      7  C   UNL     1      -0.609   2.053  25.091  0.00  0.00    +0.022 C 
ATOM      8  C   UNL     1      -1.334   2.354  25.346  0.00  0.00    +0.095 C 
ATOM     17  C   UNL     1      -2.013   1.888  25.297  0.00  0.00    +0.019 C 
ATOM     18  C   UNL     1      -2.738   2.189  25.552  0.00  0.00    +0.002 C 
ATOM     19  C   UNL     1      -1.968   1.123  24.992  0.00  0.00    +0.045 C 
ATOM     20  C   UNL     1      -2.647   0.658  24.943  0.00  0.00    +0.145 C 
ATOM     21  O   UNL     1      -3.373   0.958  25.198  0.00  0.00    -0.224 OA
ENDROOT
BRANCH   8   9
ATOM      9  N   UNL     1      -1.379   3.118  25.650  0.00  0.00    -0.207 NA
ATOM     10  C   UNL     1      -1.099   3.756  25.207  0.00  0.00    +0.241 C 
ATOM     11  O   UNL     1      -0.774   3.628  24.459  0.00  0.00    -0.273 OA
BRANCH  10  12
ATOM     12  C   UNL     1      -1.145   4.522  25.511  0.00  0.00    +0.087 C 
BRANCH  12  13
ATOM     13  C   UNL     1      -1.227   5.164  25.000  0.00  0.00    +0.009 C 
ATOM     14  C   UNL     1      -1.308   5.806  24.489  0.00  0.00    +0.000 C 
ATOM     15  C   UNL     1      -2.023   5.226  25.205  0.00  0.00    +0.000 C 
ATOM     16  C   UNL     1      -0.430   5.102  24.795  0.00  0.00    +0.000 C 
ENDBRANCH  12  13
ENDBRANCH  10  12
ENDBRANCH   8   9
BRANCH   1  22
ATOM     22  C   UNL     1      -3.282  -0.573  24.589  0.00  0.00    +0.075 C 
ATOM     23  C   UNL     1      -3.919  -0.325  24.128  0.00  0.00    +0.009 C 
BRANCH  22  24
ATOM     24  C   UNL     1      -3.324  -1.286  25.002  0.00  0.00    +0.225 C 
ATOM     25  O   UNL     1      -3.030  -1.336  25.772  0.00  0.00    -0.275 OA
ATOM     26  N   UNL     1      -3.660  -1.950  24.646  0.00  0.00    -0.280 N 
BRANCH  26  27
ATOM     27  C   UNL     1      -3.702  -2.663  25.058  0.00  0.00    +0.093 C 
ATOM     28  C   UNL     1      -3.340  -3.339  24.752  0.00  0.00    +0.023 C 
ENDBRANCH  26  27
BRANCH  26  29
ATOM     29  C   UNL     1      -3.954  -1.901  23.876  0.00  0.00    +0.093 C 
ATOM     30  C   UNL     1      -4.454  -2.490  23.587  0.00  0.00    +0.023 C 
ENDBRANCH  26  29
ENDBRANCH  22  24
ENDBRANCH   1  22
TORSDOF 7
ENDMDL
MODEL 4
REMARK VINA RESULT:     -10.3      2.186      5.910
REMARK  Name = 
REMARK  7 active torsions:
REMARK  status: ('A' for Active; 'I' for Inactive)
REMARK    1  A    between atoms: C_2  and  C_24
REMARK    2  A    between atoms: C_9  and  N_10
REMARK    3  A    between atoms: C_11  and  C_13
REMARK    4  A    between atoms: C_13  and  C_14
REMARK    5  A    between atoms: C_24  and  C_26
REMARK    6  A    between atoms: N_28  and  C_29
REMARK    7  A    between atoms: N_28  and  C_31
REMARK                            x       y       z     vdW  Elec       q    Type
REMARK                         _______ _______ _______ _____ _____    ______ ____
ROOT
ATOM      1  C   UNL     1      -0.368   1.992  25.003  0.00  0.00    +0.052 C 
ATOM      2  C   UNL     1       0.110   1.909  24.337  0.00  0.00    -0.001 C 
ATOM      3  C   UNL     1       0.177   1.176  23.965  0.00  0.00    -0.000 C 
ATOM      4  C   UNL     1      -0.236   0.524  24.260  0.00  0.00    -0.001 C 
ATOM      5  C   UNL     1       0.243   0.442  23.593  0.00  0.00    -0.000 C 
ATOM      6  C   UNL     1      -0.170  -0.209  23.888  0.00  0.00    +0.002 C 
ATOM      7  C   UNL     1      -0.582  -0.860  24.183  0.00  0.00    +0.022 C 
ATOM      8  C   UNL     1      -1.062  -0.777  24.850  0.00  0.00    +0.095 C 
ATOM     17  C   UNL     1      -1.128  -0.044  25.221  0.00  0.00    +0.019 C 
ATOM     18  C   UNL     1      -1.607   0.039  25.888  0.00  0.00    +0.002 C 
ATOM     19  C   UNL     1      -0.715   0.607  24.926  0.00  0.00    +0.045 C 
ATOM     20  C   UNL     1      -0.781   1.340  25.298  0.00  0.00    +0.145 C 
ATOM     21  O   UNL     1      -1.260   1.423  25.965  0.00  0.00    -0.224 OA
ENDROOT
BRANCH   8   9
ATOM      9  N   UNL     1      -1.474  -1.427  25.144  0.00  0.00    -0.207 NA
ATOM     10  C   UNL     1      -2.057  -1.789  24.685  0.00  0.00    +0.241 C 
ATOM     11  O   UNL     1      -2.226  -1.500  23.931  0.00  0.00    -0.273 OA
BRANCH  10  12
ATOM     12  C   UNL     1      -2.469  -2.440  24.980  0.00  0.00    +0.087 C 
BRANCH  12  13
ATOM     13  C   UNL     1      -3.177  -2.674  24.626  0.00  0.00    +0.009 C 
ATOM     14  C   UNL     1      -3.883  -2.909  24.270  0.00  0.00    +0.000 C 
ATOM     15  C   UNL     1      -3.598  -2.198  25.150  0.00  0.00    +0.000 C 
ATOM     16  C   UNL     1      -2.755  -3.151  24.100  0.00  0.00    +0.000 C 
ENDBRANCH  12  13
ENDBRANCH  10  12
ENDBRANCH   8   9
BRANCH   1  22
ATOM     22  C   UNL     1      -0.435   2.725  25.375  0.00  0.00    +0.075 C 
ATOM     23  C   UNL     1      -0.352   2.782  26.193  0.00  0.00    +0.009 C 
BRANCH  22  24
ATOM     24  C   UNL     1      -0.586   3.402  24.928  0.00  0.00    +0.225 C 
ATOM     25  O   UNL     1      -0.142   3.555  24.249  0.00  0.00    -0.275 OA
ATOM     26  N   UNL     1      -1.180   3.925  25.159  0.00  0.00    -0.280 N 
BRANCH  26  27
ATOM     27  C   UNL     1      -1.330   4.601  24.712  0.00  0.00    +0.093 C 
ATOM     28  C   UNL     1      -1.253   5.349  25.055  0.00  0.00    +0.023 C 
ENDBRANCH  26  27
BRANCH  26  29
ATOM     29  C   UNL     1      -1.624   3.772  25.838  0.00  0.00    +0.093 C 
ATOM     30  C   UNL     1      -2.360   4.129  25.938  0.00  0.00    +0.023 C 
ENDBRANCH  26  29
ENDBRANCH  22  24
ENDBRANCH   1  22
TORSDOF 7
ENDMDL
