MODEL 1
REMARK VINA RESULT:     -10.4      0.000      0.000
REMARK  Name = 
REMARK  5 active torsions:
REMARK  status: ('A' for Active; 'I' for Inactive)
REMARK    1  A    between atoms: C_2  and  C_4
REMARK    2  A    between atoms: C_4  and  O_5
REMARK    3  A    between atoms: O_5  and  C_6
REMARK    4  A    between atoms: C_10  and  N_14
REMARK    5  A    between atoms: N_17  and  C_18
REMARK                            x       y       z     vdW  Elec       q    Type
REMARK                         _______ _______ _______ _____ _____    ______ ____
ROOT
ATOM      6  C   UNL     1      -2.885   3.410  24.804  0.00  0.00    +0.175 C 
ATOM      7  C   UNL     1      -3.399   3.349  25.446  0.00  0.00    +0.174 C 
ATOM      8  O   UNL     1      -3.806   2.635  25.378  0.00  0.00    -0.349 OA
ATOM      9  C   UNL     1      -3.544   2.255  24.695  0.00  0.00    +0.167 C 
ATOM     10  C   UNL     1      -3.633   1.580  24.231  0.00  0.00    +0.156 C 
ATOM     11  C   UNL     1      -3.119   1.641  23.589  0.00  0.00    +0.166 C 
ATOM     12  O   UNL     1      -2.711   2.355  23.656  0.00  0.00    -0.349 OA
ATOM     13  C   UNL     1      -2.974   2.735  24.340  0.00  0.00    +0.173 C 
ENDROOT
BRANCH  10  14
ATOM     14  N   UNL     1      -4.147   0.952  24.382  0.00  0.00    -0.184 NA
ATOM     15  C   UNL     1      -3.864   0.177  24.380  0.00  0.00    +0.339 C 
ATOM     16  O   UNL     1      -3.067   0.029  24.227  0.00  0.00    -0.249 OA
ATOM     17  N   UNL     1      -4.377  -0.450  24.531  0.00  0.00    -0.189 NA
BRANCH  17  18
ATOM     18  C   UNL     1      -4.094  -1.226  24.530  0.00  0.00    +0.097 C 
ATOM     19  C   UNL     1      -3.677  -1.514  25.180  0.00  0.00    +0.022 C 
ATOM     20  C   UNL     1      -3.394  -2.288  25.178  0.00  0.00    +0.002 C 
ATOM     21  C   UNL     1      -3.529  -2.776  24.526  0.00  0.00    +0.000 C 
ATOM     22  C   UNL     1      -3.946  -2.487  23.875  0.00  0.00    +0.002 C 
ATOM     23  C   UNL     1      -4.229  -1.712  23.877  0.00  0.00    +0.022 C 
ENDBRANCH  17  18
ENDBRANCH  10  14
BRANCH   6   5
ATOM      5  O   UNL     1      -2.370   4.038  24.653  0.00  0.00    -0.342 OA
BRANCH   5   4
ATOM      4  C   UNL     1      -1.943   4.380  25.270  0.00  0.00    +0.230 C 
BRANCH   4   2
ATOM      1  N   UNL     1      -0.609   4.753  24.923  0.00  0.00    -0.086 NA
ATOM      2  C   UNL     1      -1.384   4.964  25.112  0.00  0.00    +0.291 C 
ATOM      3  O   UNL     1      -1.598   5.760  25.141  0.00  0.00    -0.269 OA
ENDBRANCH   4   2
ENDBRANCH   5   4
ENDBRANCH   6   5
TORSDOF 5
ENDMDL
MODEL 2
REMARK VINA RESULT:      -9.1      1.799      5.628
REMARK  Name = 
REMARK  5 active torsions:
REMARK  status: ('A' for Active; 'I' for Inactive)
REMARK    1  A    between atoms: C_2  and  C_4
REMARK    2  A    between atoms: C_4  and  O_5
REMARK    3  A    between atoms: O_5  and  C_6
REMARK    4  A    between atoms: C_10  and  N_14
REMARK    5  A    between atoms: N_17  and  C_18
REMARK                            x       y       z     vdW  Elec       q    Type
REMARK                         _______ _______ _______ _____ _____    ______ ____
ROOT
ATOM      6  C   UNL     1      -2.357  -0.954  24.914  0.00  0.00    +0.175 C 
ATOM      7  C   UNL     1      -2.361  -0.887  25.736  0.00  0.00    +0.174 C 
ATOM      8  O   UNL     1      -1.981  -0.183  25.935  0.00  0.00    -0.349 OA
ATOM      9  C   UNL     1      -1.741   0.185  25.238  0.00  0.00    +0.167 C 
ATOM     10  C   UNL     1      -1.357   0.847  24.929  0.00  0.00    +0.156 C 
ATOM     11  C   UNL     1      -1.353   0.780  24.107  0.00  0.00    +0.166 C 
ATOM     12  O   UNL     1      -1.733   0.076  23.907  0.00  0.00    -0.349 OA
ATOM     13  C   UNL     1      -1.973  -0.292  24.606  0.00  0.00    +0.173 C 
ENDROOT
BRANCH  10  14
ATOM     14  N   UNL     1      -1.035   1.468  25.367  0.00  0.00    -0.184 NA
ATOM     15  C   UNL     1      -1.236   2.248  25.187  0.00  0.00    +0.339 C 
ATOM     16  O   UNL     1      -1.760   2.406  24.570  0.00  0.00    -0.249 OA
ATOM     17  N   UNL     1      -0.914   2.868  25.624  0.00  0.00    -0.189 NA
BRANCH  17  18
ATOM     18  C   UNL     1      -1.116   3.648  25.445  0.00  0.00    +0.097 C 
ATOM     19  C   UNL     1      -0.607   4.112  24.992  0.00  0.00    +0.022 C 
ATOM     20  C   UNL     1      -0.808   4.891  24.812  0.00  0.00    +0.002 C 
ATOM     21  C   UNL     1      -1.520   5.207  25.087  0.00  0.00    +0.000 C 
ATOM     22  C   UNL     1      -2.029   4.743  25.541  0.00  0.00    +0.002 C 
ATOM     23  C   UNL     1      -1.827   3.963  25.720  0.00  0.00    +0.022 C 
ENDBRANCH  17  18
ENDBRANCH  10  14
BRANCH   6   5
ATOM      5  O   UNL     1      -2.679  -1.575  24.476  0.00  0.00    -0.342 OA
BRANCH   5   4
ATOM      4  C   UNL     1      -3.352  -1.967  24.749  0.00  0.00    +0.230 C 
BRANCH   4   2
ATOM      1  N   UNL     1      -4.349  -2.314  23.786  0.00  0.00    -0.086 NA
ATOM      2  C   UNL     1      -3.722  -2.532  24.276  0.00  0.00    +0.291 C 
ATOM      3  O   UNL     1      -3.464  -3.315  24.292  0.00  0.00    -0.269 OA
ENDBRANCH   4   2
ENDBRANCH   5   4
ENDBRANCH   6   5
TORSDOF 5
ENDMDL
MODEL 3
REMARK VINA RESULT:      -9.0      1.977      2.152
REMARK  Name = 
REMARK  5 active torsions:
REMARK  status: ('A' for Active; 'I' for Inactive)
REMARK    1  A    between atoms: C_2  and  C_4
REMARK    2  A    between atoms: C_4  and  O_5
REMARK    3  A    between atoms: O_5  and  C_6
REMARK    4  A    between atoms: C_10  and  N_14
REMARK    5  A    between atoms: N_17  and  C_18
REMARK                            x       y       z     vdW  Elec       q    Type
REMARK                         _______ _______ _______ _____ _____    ______ ____
ROOT
ATOM      6  C   UNL     1      -0.662   2.756  25.174  0.00  0.00    +0.175 C 
ATOM      7  C   UNL     1      -0.547   2.517  25.955  0.00  0.00    +0.174 C 
ATOM      8  O   UNL     1      -0.619   1.696  25.983  0.00  0.00    -0.349 OA
ATOM      9  C   UNL     1      -0.778   1.427  25.221  0.00  0.00    +0.167 C 
ATOM     10  C   UNL     1      -0.921   0.754  24.765  0.00  0.00    +0.156 C 
ATOM     11  C   UNL     1      -1.036   0.992  23.984  0.00  0.00    +0.166 C 
ATOM     12  O   UNL     1      -0.964   1.813  23.956  0.00  0.00    -0.349 OA
ATOM     13  C   UNL     1      -0.805   2.082  24.720  0.00  0.00    +0.173 C 
ENDROOT
BRANCH  10  14
ATOM     14  N   UNL     1      -0.944  -0.023  25.044  0.00  0.00    -0.184 NA
ATOM     15  C   UNL     1      -1.593  -0.504  24.872  0.00  0.00    +0.339 C 
ATOM     16  O   UNL     1      -2.218  -0.207  24.423  0.00  0.00    -0.249 OA
ATOM     17  N   UNL     1      -1.617  -1.279  25.150  0.00  0.00    -0.189 NA
BRANCH  17  18
ATOM     18  C   UNL     1      -2.265  -1.760  24.979  0.00  0.00    +0.097 C 
ATOM     19  C   UNL     1      -2.207  -2.338  24.394  0.00  0.00    +0.022 C 
ATOM     20  C   UNL     1      -2.855  -2.818  24.223  0.00  0.00    +0.002 C 
ATOM     21  C   UNL     1      -3.562  -2.720  24.637  0.00  0.00    +0.000 C 
ATOM     22  C   UNL     1      -3.621  -2.141  25.222  0.00  0.00    +0.002 C 
ATOM     23  C   UNL     1      -2.972  -1.661  25.393  0.00  0.00    +0.022 C 
ENDBRANCH  17  18
ENDBRANCH  10  14
BRANCH   6   5
ATOM      5  O   UNL     1      -0.638   3.532  24.895  0.00  0.00    -0.342 OA
BRANCH   5   4
ATOM      4  C   UNL     1      -0.925   4.148  25.364  0.00  0.00    +0.230 C 
BRANCH   4   2
ATOM      1  N   UNL     1      -1.699   5.335  25.185  0.00  0.00    -0.086 NA
ATOM      2  C   UNL     1      -1.009   4.904  25.047  0.00  0.00    +0.291 C 
ATOM      3  O   UNL     1      -0.404   5.229  24.590  0.00  0.00    -0.269 OA
ENDBRANCH   4   2
ENDBRANCH   5   4
ENDBRANCH   6   5
TORSDOF 5
ENDMDL
MODEL 4
REMARK VINA RESULT:      -8.8      1.343      5.397
REMARK  Name = 
REMARK  5 active torsions:
REMARK  status: ('A' for Active; 'I' for Inactive)
REMARK    1  A    between atoms: C_2  and  C_4
REMARK    2  A    between atoms: C_4  and  O_5
REMARK    3  A    between atoms: O_5  and  C_6
REMARK    4  A    between atoms: C_10  and  N_14
REMARK    5  A    between atoms: N_17  and  C_18
REMARK                            x       y       z     vdW  Elec       q    Type
REMARK                         _______ _______ _______ _____ _____    ______ ____
ROOT
ATOM      6  C   UNL     1      -3.880  -0.406  24.548  0.00  0.00    +0.175 C 
ATOM      7  C   UNL     1      -3.967  -0.342  25.366  0.00  0.00    +0.174 C 
ATOM      8  O   UNL     1      -3.855   0.448  25.572  0.00  0.00    -0.349 OA
ATOM      9  C   UNL     1      -3.699   0.873  24.883  0.00  0.00    +0.167 C 
ATOM     10  C   UNL     1      -3.533   1.624  24.584  0.00  0.00    +0.156 C 
ATOM     11  C   UNL     1      -3.445   1.560  23.766  0.00  0.00    +0.166 C 
ATOM     12  O   UNL     1      -3.557   0.769  23.560  0.00  0.00    -0.349 OA
ATOM     13  C   UNL     1      -3.714   0.344  24.250  0.00  0.00    +0.173 C 
ENDROOT
BRANCH  10  14
ATOM     14  N   UNL     1      -3.466   2.317  25.026  0.00  0.00    -0.184 NA
ATOM     15  C   UNL     1      -2.815   2.814  24.920  0.00  0.00    +0.339 C 
ATOM     16  O   UNL     1      -2.232   2.616  24.371  0.00  0.00    -0.249 OA
ATOM     17  N   UNL     1      -2.748   3.507  25.361  0.00  0.00    -0.189 NA
BRANCH  17  18
ATOM     18  C   UNL     1      -2.098   4.003  25.255  0.00  0.00    +0.097 C 
ATOM     19  C   UNL     1      -1.335   3.716  25.379  0.00  0.00    +0.022 C 
ATOM     20  C   UNL     1      -0.685   4.212  25.273  0.00  0.00    +0.002 C 
ATOM     21  C   UNL     1      -0.798   4.997  25.042  0.00  0.00    +0.000 C 
ATOM     22  C   UNL     1      -1.561   5.284  24.917  0.00  0.00    +0.002 C 
ATOM     23  C   UNL     1      -2.211   4.787  25.024  0.00  0.00    +0.022 C 
ENDBRANCH  17  18
ENDBRANCH  10  14
BRANCH   6   5
ATOM      5  O   UNL     1      -3.946  -1.100  24.106  0.00  0.00    -0.342 OA
BRANCH   5   4
ATOM      4  C   UNL     1      -3.984  -1.831  24.488  0.00  0.00    +0.230 C 
BRANCH   4   2
ATOM      1  N   UNL     1      -3.410  -3.101  24.172  0.00  0.00    -0.086 NA
ATOM      2  C   UNL     1      -3.990  -2.527  24.046  0.00  0.00    +0.291 C 
ATOM      3  O   UNL     1      -4.575  -2.650  23.479  0.00  0.00    -0.269 OA
ENDBRANCH   4   2
ENDBRANCH   5   4
ENDBRANCH   6   5
TORSDOF 5
ENDMDL
MODEL 5
REMARK VINA RESULT:      -8.1      3.001      4.295
REMARK  Name = 
REMARK  5 active torsions:
REMARK  status: ('A' for Active; 'I' for Inactive)
REMARK    1  A    between atoms: C_2  and  C_4
REMARK    2  A    between atoms: C_4  and  O_5
REMARK    3  A    between atoms: O_5  and  C_6
REMARK    4  A    between atoms: C_10  and  N_14
REMARK    5  A    between atoms: N_17  and  C_18
REMARK                            x       y       z     vdW  Elec       q    Type
REMARK                         _______ _______ _______ _____ _____    ______ ____
ROOT
ATOM      6  C   UNL     1      -0.030   0.313  23.564  0.00  0.00    +0.175 C 
ATOM      7  C   UNL     1      -0.146  -0.323  24.075  0.00  0.00    +0.174 C 
ATOM      8  O   UNL     1      -0.822  -0.170  24.522  0.00  0.00    -0.349 OA
ATOM      9  C   UNL     1      -1.123   0.561  24.287  0.00  0.00    +0.167 C 
ATOM     10  C   UNL     1      -1.726   1.108  24.418  0.00  0.00    +0.156 C 
ATOM     11  C   UNL     1      -1.610   1.745  23.907  0.00  0.00    +0.166 C 
ATOM     12  O   UNL     1      -0.934   1.591  23.460  0.00  0.00    -0.349 OA
ATOM     13  C   UNL     1      -0.633   0.860  23.695  0.00  0.00    +0.173 C 
ENDROOT
BRANCH  10  14
ATOM     14  N   UNL     1      -2.340   1.032  24.965  0.00  0.00    -0.184 NA
ATOM     15  C   UNL     1      -3.065   1.400  24.826  0.00  0.00    +0.339 C 
ATOM     16  O   UNL     1      -3.177   1.845  24.140  0.00  0.00    -0.249 OA
ATOM     17  N   UNL     1      -3.678   1.324  25.372  0.00  0.00    -0.189 NA
BRANCH  17  18
ATOM     18  C   UNL     1      -4.403   1.692  25.233  0.00  0.00    +0.097 C 
ATOM     19  C   UNL     1      -4.497   2.495  25.397  0.00  0.00    +0.022 C 
ATOM     20  C   UNL     1      -5.221   2.863  25.259  0.00  0.00    +0.002 C 
ATOM     21  C   UNL     1      -5.854   2.428  24.956  0.00  0.00    +0.000 C 
ATOM     22  C   UNL     1      -5.761   1.624  24.791  0.00  0.00    +0.002 C 
ATOM     23  C   UNL     1      -5.035   1.257  24.930  0.00  0.00    +0.022 C 
ENDBRANCH  17  18
ENDBRANCH  10  14
BRANCH   6   5
ATOM      5  O   UNL     1       0.584   0.390  23.017  0.00  0.00    -0.342 OA
BRANCH   5   4
ATOM      4  C   UNL     1       1.176  -0.183  22.978  0.00  0.00    +0.230 C 
BRANCH   4   2
ATOM      1  N   UNL     1       2.527   0.148  22.650  0.00  0.00    -0.086 NA
ATOM      2  C   UNL     1       1.780  -0.116  22.420  0.00  0.00    +0.291 C 
ATOM      3  O   UNL     1       1.636  -0.312  21.632  0.00  0.00    -0.269 OA
ENDBRANCH   4   2
ENDBRANCH   5   4
ENDBRANCH   6   5
TORSDOF 5
ENDMDL
