MODEL 1
REMARK VINA RESULT:      -8.9      0.000      0.000
REMARK  Name = 
REMARK  4 active torsions:
REMARK  status: ('A' for Active; 'I' for Inactive)
REMARK    1  A    between atoms: C_6  and  N_10
REMARK    2  A    between atoms: C_14  and  S_15
REMARK    3  A    between atoms: S_15  and  C_16
REMARK    4  A    between atoms: C_16  and  C_17
REMARK                            x       y       z     vdW  Elec       q    Type
REMARK                         _______ _______ _______ _____ _____    ______ ____
ROOT
ATOM     10  N   UNL     1      -4.696   2.605  25.004  0.00  0.00    -0.205 N 
ATOM     11  N   UNL     1      -5.359   3.049  25.213  0.00  0.00    -0.042 NA
ATOM     12  N   UNL     1      -5.967   2.525  25.402  0.00  0.00    -0.022 NA
ATOM     13  N   UNL     1      -5.680   1.757  25.309  0.00  0.00    -0.101 NA
ATOM     14  C   UNL     1      -4.894   1.807  25.063  0.00  0.00    +0.211 A 
ENDROOT
BRANCH  10   6
ATOM      1  O   UNL     1      -1.547   4.290  25.040  0.00  0.00    -0.218 OA
ATOM      2  C   UNL     1      -2.280   3.988  25.269  0.00  0.00    +0.211 C 
ATOM      3  C   UNL     1      -2.635   4.083  26.007  0.00  0.00    +0.178 C 
ATOM      4  O   UNL     1      -3.361   3.693  25.993  0.00  0.00    -0.349 OA
ATOM      5  C   UNL     1      -3.456   3.356  25.247  0.00  0.00    +0.170 C 
ATOM      6  C   UNL     1      -3.962   2.907  24.775  0.00  0.00    +0.168 C 
ATOM      7  C   UNL     1      -3.608   2.812  24.037  0.00  0.00    +0.169 C 
ATOM      8  O   UNL     1      -2.882   3.203  24.051  0.00  0.00    -0.349 OA
ATOM      9  C   UNL     1      -2.787   3.539  24.799  0.00  0.00    +0.177 C 
ENDBRANCH  10   6
BRANCH  14  15
ATOM     15  S   UNL     1      -4.395   1.170  24.904  0.00  0.00    -0.066 S 
BRANCH  15  16
ATOM     16  C   UNL     1      -4.653   0.398  25.043  0.00  0.00    +0.129 C 
BRANCH  16  17
ATOM     17  C   UNL     1      -4.136  -0.235  24.936  0.00  0.00    +0.134 A 
ATOM     18  C   UNL     1      -4.165  -0.788  24.324  0.00  0.00    +0.037 A 
ATOM     19  C   UNL     1      -3.545  -1.321  24.434  0.00  0.00    +0.043 A 
ATOM     20  C   UNL     1      -3.133  -1.099  25.112  0.00  0.00    +0.179 A 
ATOM     21  O   UNL     1      -3.498  -0.427  25.423  0.00  0.00    -0.454 OA
ENDBRANCH  16  17
ENDBRANCH  15  16
ENDBRANCH  14  15
TORSDOF 4
ENDMDL
MODEL 2
REMARK VINA RESULT:      -8.8      1.157      1.294
REMARK  Name = 
REMARK  4 active torsions:
REMARK  status: ('A' for Active; 'I' for Inactive)
REMARK    1  A    between atoms: C_6  and  N_10
REMARK    2  A    between atoms: C_14  and  S_15
REMARK    3  A    between atoms: S_15  and  C_16
REMARK    4  A    between atoms: C_16  and  C_17
REMARK                            x       y       z     vdW  Elec       q    Type
REMARK                         _______ _______ _______ _____ _____    ______ ____
ROOT
ATOM     10  N   UNL     1      -3.954   1.952  24.384  0.00  0.00    -0.205 N 
ATOM     11  N   UNL     1      -4.492   2.556  24.547  0.00  0.00    -0.042 NA
ATOM     12  N   UNL     1      -5.188   2.210  24.823  0.00  0.00    -0.022 NA
ATOM     13  N   UNL     1      -5.080   1.393  24.832  0.00  0.00    -0.101 NA
ATOM     14  C   UNL     1      -4.317   1.233  24.560  0.00  0.00    +0.211 A 
ENDROOT
BRANCH  10   6
ATOM      1  O   UNL     1      -0.492   2.794  24.137  0.00  0.00    -0.218 OA
ATOM      2  C   UNL     1      -1.259   2.696  24.425  0.00  0.00    +0.211 C 
ATOM      3  C   UNL     1      -1.525   2.909  25.176  0.00  0.00    +0.178 C 
ATOM      4  O   UNL     1      -2.325   2.713  25.227  0.00  0.00    -0.349 OA
ATOM      5  C   UNL     1      -2.552   2.378  24.509  0.00  0.00    +0.170 C 
ATOM      6  C   UNL     1      -3.186   2.049  24.096  0.00  0.00    +0.168 C 
ATOM      7  C   UNL     1      -2.920   1.836  23.345  0.00  0.00    +0.169 C 
ATOM      8  O   UNL     1      -2.121   2.032  23.294  0.00  0.00    -0.349 OA
ATOM      9  C   UNL     1      -1.893   2.368  24.013  0.00  0.00    +0.177 C 
ENDBRANCH  10   6
BRANCH  14  15
ATOM     15  S   UNL     1      -3.978   0.485  24.480  0.00  0.00    -0.066 S 
BRANCH  15  16
ATOM     16  C   UNL     1      -4.404  -0.187  24.700  0.00  0.00    +0.129 C 
BRANCH  16  17
ATOM     17  C   UNL     1      -4.051  -0.931  24.655  0.00  0.00    +0.134 A 
ATOM     18  C   UNL     1      -4.189  -1.499  24.072  0.00  0.00    +0.037 A 
ATOM     19  C   UNL     1      -3.721  -2.157  24.242  0.00  0.00    +0.043 A 
ATOM     20  C   UNL     1      -3.294  -1.997  24.929  0.00  0.00    +0.179 A 
ATOM     21  O   UNL     1      -3.498  -1.239  25.185  0.00  0.00    -0.454 OA
ENDBRANCH  16  17
ENDBRANCH  15  16
ENDBRANCH  14  15
TORSDOF 4
ENDMDL
MODEL 3
REMARK VINA RESULT:      -8.7      1.131      3.711
REMARK  Name = 
REMARK  4 active torsions:
REMARK  status: ('A' for Active; 'I' for Inactive)
REMARK    1  A    between atoms: C_6  and  N_10
REMARK    2  A    between atoms: C_14  and  S_15
REMARK    3  A    between atoms: S_15  and  C_16
REMARK    4  A    between atoms: C_16  and  C_17
REMARK                            x       y       z     vdW  Elec       q    Type
REMARK                         _______ _______ _______ _____ _____    ______ ____
ROOT
ATOM     10  N   UNL     1      -4.507   2.416  24.992  0.00  0.00    -0.205 N 
ATOM     11  N   UNL     1      -5.296   2.502  25.217  0.00  0.00    -0.042 NA
ATOM     12  N   UNL     1      -5.366   3.209  25.637  0.00  0.00    -0.022 NA
ATOM     13  N   UNL     1      -4.621   3.559  25.671  0.00  0.00    -0.101 NA
ATOM     14  C   UNL     1      -4.090   3.070  25.272  0.00  0.00    +0.211 A 
ENDROOT
BRANCH  10   6
ATOM      1  O   UNL     1      -3.461  -0.856  24.016  0.00  0.00    -0.218 OA
ATOM      2  C   UNL     1      -3.777  -0.227  24.447  0.00  0.00    +0.211 C 
ATOM      3  C   UNL     1      -4.122  -0.276  25.194  0.00  0.00    +0.178 C 
ATOM      4  O   UNL     1      -4.361   0.482  25.414  0.00  0.00    -0.349 OA
ATOM      5  C   UNL     1      -4.165   0.999  24.804  0.00  0.00    +0.170 C 
ATOM      6  C   UNL     1      -4.191   1.787  24.561  0.00  0.00    +0.168 C 
ATOM      7  C   UNL     1      -3.846   1.837  23.813  0.00  0.00    +0.169 C 
ATOM      8  O   UNL     1      -3.607   1.079  23.593  0.00  0.00    -0.349 OA
ATOM      9  C   UNL     1      -3.804   0.561  24.205  0.00  0.00    +0.177 C 
ENDBRANCH  10   6
BRANCH  14  15
ATOM     15  S   UNL     1      -3.283   3.210  25.172  0.00  0.00    -0.066 S 
BRANCH  15  16
ATOM     16  C   UNL     1      -2.920   3.836  25.569  0.00  0.00    +0.129 C 
BRANCH  16  17
ATOM     17  C   UNL     1      -2.124   4.005  25.431  0.00  0.00    +0.134 A 
ATOM     18  C   UNL     1      -1.822   4.721  25.152  0.00  0.00    +0.037 A 
ATOM     19  C   UNL     1      -1.003   4.647  25.097  0.00  0.00    +0.043 A 
ATOM     20  C   UNL     1      -0.798   3.887  25.340  0.00  0.00    +0.179 A 
ATOM     21  O   UNL     1      -1.491   3.490  25.547  0.00  0.00    -0.454 OA
ENDBRANCH  16  17
ENDBRANCH  15  16
ENDBRANCH  14  15
TORSDOF 4
ENDMDL
MODEL 4
REMARK VINA RESULT:      -8.4      1.633      2.272
REMARK  Name = 
REMARK  4 active torsions:
REMARK  status: ('A' for Active; 'I' for Inactive)
REMARK    1  A    between atoms: C_6  and  N_10
REMARK    2  A    between atoms: C_14  and  S_15
REMARK    3  A    between atoms: S_15  and  C_16
REMARK    4  A    between atoms: C_16  and  C_17
REMARK                            x       y       z     vdW  Elec       q    Type
REMARK                         _______ _______ _______ _____ _____    ______ ____
ROOT
ATOM     10  N   UNL     1      -3.521   1.952  23.818  0.00  0.00    -0.205 N 
ATOM     11  N   UNL     1      -3.126   2.428  23.272  0.00  0.00    -0.042 NA
ATOM     12  N   UNL     1      -2.501   1.992  22.958  0.00  0.00    -0.022 NA
ATOM     13  N   UNL     1      -2.509   1.246  23.309  0.00  0.00    -0.101 NA
ATOM     14  C   UNL     1      -3.140   1.221  23.841  0.00  0.00    +0.211 A 
ENDROOT
BRANCH  10   6
ATOM      1  O   UNL     1      -5.660   3.598  26.157  0.00  0.00    -0.218 OA
ATOM      2  C   UNL     1      -4.999   3.381  25.712  0.00  0.00    +0.211 C 
ATOM      3  C   UNL     1      -4.249   3.719  25.763  0.00  0.00    +0.178 C 
ATOM      4  O   UNL     1      -3.760   3.336  25.221  0.00  0.00    -0.349 OA
ATOM      5  C   UNL     1      -4.207   2.761  24.836  0.00  0.00    +0.170 C 
ATOM      6  C   UNL     1      -4.182   2.168  24.262  0.00  0.00    +0.168 C 
ATOM      7  C   UNL     1      -4.932   1.830  24.211  0.00  0.00    +0.169 C 
ATOM      8  O   UNL     1      -5.422   2.213  24.753  0.00  0.00    -0.349 OA
ATOM      9  C   UNL     1      -4.973   2.789  25.139  0.00  0.00    +0.177 C 
ENDBRANCH  10   6
BRANCH  14  15
ATOM     15  S   UNL     1      -3.351   0.578  24.312  0.00  0.00    -0.066 S 
BRANCH  15  16
ATOM     16  C   UNL     1      -2.885  -0.104  24.314  0.00  0.00    +0.129 C 
BRANCH  16  17
ATOM     17  C   UNL     1      -3.108  -0.753  24.770  0.00  0.00    +0.134 A 
ATOM     18  C   UNL     1      -3.381  -1.477  24.483  0.00  0.00    +0.037 A 
ATOM     19  C   UNL     1      -3.538  -1.965  25.130  0.00  0.00    +0.043 A 
ATOM     20  C   UNL     1      -3.363  -1.544  25.816  0.00  0.00    +0.179 A 
ATOM     21  O   UNL     1      -3.097  -0.794  25.594  0.00  0.00    -0.454 OA
ENDBRANCH  16  17
ENDBRANCH  15  16
ENDBRANCH  14  15
TORSDOF 4
ENDMDL
MODEL 5
REMARK VINA RESULT:      -8.2      2.272      2.997
REMARK  Name = 
REMARK  4 active torsions:
REMARK  status: ('A' for Active; 'I' for Inactive)
REMARK    1  A    between atoms: C_6  and  N_10
REMARK    2  A    between atoms: C_14  and  S_15
REMARK    3  A    between atoms: S_15  and  C_16
REMARK    4  A    between atoms: C_16  and  C_17
REMARK                            x       y       z     vdW  Elec       q    Type
REMARK                         _______ _______ _______ _____ _____    ______ ____
ROOT
ATOM     10  N   UNL     1      -2.807   3.279  24.988  0.00  0.00    -0.205 N 
ATOM     11  N   UNL     1      -2.709   4.079  25.169  0.00  0.00    -0.042 NA
ATOM     12  N   UNL     1      -1.933   4.188  25.425  0.00  0.00    -0.022 NA
ATOM     13  N   UNL     1      -1.551   3.458  25.403  0.00  0.00    -0.101 NA
ATOM     14  C   UNL     1      -2.092   2.896  25.133  0.00  0.00    +0.211 A 
ENDROOT
BRANCH  10   6
ATOM      1  O   UNL     1      -6.155   2.052  24.780  0.00  0.00    -0.218 OA
ATOM      2  C   UNL     1      -5.462   2.406  25.057  0.00  0.00    +0.211 C 
ATOM      3  C   UNL     1      -5.359   2.756  25.797  0.00  0.00    +0.178 C 
ATOM      4  O   UNL     1      -4.585   3.037  25.839  0.00  0.00    -0.349 OA
ATOM      5  C   UNL     1      -4.210   2.861  25.127  0.00  0.00    +0.170 C 
ATOM      6  C   UNL     1      -3.500   2.926  24.711  0.00  0.00    +0.168 C 
ATOM      7  C   UNL     1      -3.603   2.576  23.972  0.00  0.00    +0.169 C 
ATOM      8  O   UNL     1      -4.377   2.294  23.929  0.00  0.00    -0.349 OA
ATOM      9  C   UNL     1      -4.752   2.471  24.643  0.00  0.00    +0.177 C 
ENDBRANCH  10   6
BRANCH  14  15
ATOM     15  S   UNL     1      -1.942   2.091  25.027  0.00  0.00    -0.066 S 
BRANCH  15  16
ATOM     16  C   UNL     1      -1.230   1.766  25.287  0.00  0.00    +0.129 C 
BRANCH  16  17
ATOM     17  C   UNL     1      -1.058   0.974  25.133  0.00  0.00    +0.134 A 
ATOM     18  C   UNL     1      -1.188   0.341  25.646  0.00  0.00    +0.037 A 
ATOM     19  C   UNL     1      -0.936  -0.348  25.268  0.00  0.00    +0.043 A 
ATOM     20  C   UNL     1      -0.651  -0.142  24.523  0.00  0.00    +0.179 A 
ATOM     21  O   UNL     1      -0.726   0.676  24.439  0.00  0.00    -0.454 OA
ENDBRANCH  16  17
ENDBRANCH  15  16
ENDBRANCH  14  15
TORSDOF 4
ENDMDL
MODEL 6
REMARK VINA RESULT:      -8.2      2.360      3.129
REMARK  Name = 
REMARK  4 active torsions:
REMARK  status: ('A' for Active; 'I' for Inactive)
REMARK    1  A    between atoms: C_6  and  N_10
REMARK    2  A    between atoms: C_14  and  S_15
REMARK    3  A    between atoms: S_15  and  C_16
REMARK    4  A    between atoms: C_16  and  C_17
REMARK                            x       y       z     vdW  Elec       q    Type
REMARK                         _______ _______ _______ _____ _____    ______ ____
ROOT
ATOM     10  N   UNL     1      -2.136   1.866  23.795  0.00  0.00    -0.205 N 
ATOM     11  N   UNL     1      -1.809   1.852  23.037  0.00  0.00    -0.042 NA
ATOM     12  N   UNL     1      -2.418   1.974  22.494  0.00  0.00    -0.022 NA
ATOM     13  N   UNL     1      -3.121   2.063  22.916  0.00  0.00    -0.101 NA
ATOM     14  C   UNL     1      -2.947   1.996  23.719  0.00  0.00    +0.211 A 
ENDROOT
BRANCH  10   6
ATOM      1  O   UNL     1       0.009   2.433  26.593  0.00  0.00    -0.218 OA
ATOM      2  C   UNL     1      -0.403   2.533  25.885  0.00  0.00    +0.211 C 
ATOM      3  C   UNL     1      -0.369   3.194  25.393  0.00  0.00    +0.178 C 
ATOM      4  O   UNL     1      -0.866   3.057  24.749  0.00  0.00    -0.349 OA
ATOM      5  C   UNL     1      -1.207   2.313  24.842  0.00  0.00    +0.170 C 
ATOM      6  C   UNL     1      -1.724   1.767  24.503  0.00  0.00    +0.168 C 
ATOM      7  C   UNL     1      -1.758   1.106  24.995  0.00  0.00    +0.169 C 
ATOM      8  O   UNL     1      -1.261   1.243  25.639  0.00  0.00    -0.349 OA
ATOM      9  C   UNL     1      -0.920   1.988  25.545  0.00  0.00    +0.177 C 
ENDBRANCH  10   6
BRANCH  14  15
ATOM     15  S   UNL     1      -3.489   2.051  24.339  0.00  0.00    -0.066 S 
BRANCH  15  16
ATOM     16  C   UNL     1      -4.276   2.245  24.183  0.00  0.00    +0.129 C 
BRANCH  16  17
ATOM     17  C   UNL     1      -4.811   2.326  24.806  0.00  0.00    +0.134 A 
ATOM     18  C   UNL     1      -5.410   1.793  25.003  0.00  0.00    +0.037 A 
ATOM     19  C   UNL     1      -5.810   2.093  25.659  0.00  0.00    +0.043 A 
ATOM     20  C   UNL     1      -5.461   2.809  25.868  0.00  0.00    +0.179 A 
ATOM     21  O   UNL     1      -4.843   2.954  25.340  0.00  0.00    -0.454 OA
ENDBRANCH  16  17
ENDBRANCH  15  16
ENDBRANCH  14  15
TORSDOF 4
ENDMDL
