MODEL 1
REMARK VINA RESULT:     -17.6      0.000      0.000
REMARK  Name = 
REMARK  3 active torsions:
REMARK  status: ('A' for Active; 'I' for Inactive)
REMARK    1  A    between atoms: N_4  and  C_5
REMARK    2  A    between atoms: C_8  and  C_11
REMARK    3  A    between atoms: C_21  and  C_23
REMARK                            x       y       z     vdW  Elec       q    Type
REMARK                         _______ _______ _______ _____ _____    ______ ____
ROOT
ATOM     11  C   UNL     1      -3.899  -0.212  24.519  0.00  0.00    +0.056 A 
ATOM     12  C   UNL     1      -4.536  -0.770  24.219  0.00  0.00    +0.006 A 
ATOM     13  C   UNL     1      -4.290  -1.555  24.155  0.00  0.00    +0.013 A 
ATOM     14  C   UNL     1      -3.519  -1.764  24.358  0.00  0.00    +0.041 A 
ATOM     15  C   UNL     1      -2.964  -2.496  24.400  0.00  0.00    +0.058 C 
ATOM     16  C   UNL     1      -2.955  -3.187  24.279  0.00  0.00    +0.011 C 
ATOM     17  C   UNL     1      -2.439  -2.615  24.543  0.00  0.00    +0.043 C 
ATOM     18  C   UNL     1      -1.679  -2.079  24.877  0.00  0.00    +0.095 C 
ATOM     19  N   UNL     1      -2.039  -1.325  24.900  0.00  0.00    -0.279 N 
ATOM     20  C   UNL     1      -2.221  -1.991  24.723  0.00  0.00    +0.099 C 
ATOM     21  C   UNL     1      -1.993  -0.465  25.069  0.00  0.00    +0.225 C 
ATOM     22  O   UNL     1      -1.238  -0.137  25.364  0.00  0.00    -0.275 OA
ATOM     29  C   UNL     1      -3.010  -1.845  24.503  0.00  0.00    +0.110 C 
ATOM     30  N   UNL     1      -2.992  -1.187  24.626  0.00  0.00    -0.299 N 
ATOM     31  C   UNL     1      -3.238  -0.402  24.691  0.00  0.00    +0.261 A 
ATOM     32  O   UNL     1      -2.532   0.249  25.028  0.00  0.00    -0.267 OA
ENDROOT
BRANCH  11   8
ATOM      5  C   UNL     1      -4.781   2.111  24.963  0.00  0.00    +0.073 A 
ATOM      6  C   UNL     1      -5.332   1.501  24.894  0.00  0.00    +0.017 A 
ATOM      7  C   UNL     1      -5.076   0.729  24.749  0.00  0.00    +0.001 A 
ATOM      8  C   UNL     1      -3.923   0.538  24.646  0.00  0.00    +0.005 A 
ATOM      9  C   UNL     1      -3.952   1.202  24.759  0.00  0.00    +0.001 A 
ATOM     10  C   UNL     1      -3.976   1.951  24.886  0.00  0.00    +0.017 A 
BRANCH   5   4
ATOM      1  C   UNL     1      -4.121   3.705  25.811  0.00  0.00    +0.097 C 
ATOM      2  C   UNL     1      -4.873   3.637  25.478  0.00  0.00    +0.246 C 
ATOM      3  O   UNL     1      -5.391   4.278  25.497  0.00  0.00    -0.273 OA
ATOM      4  N   UNL     1      -5.111   2.912  25.117  0.00  0.00    -0.179 NA
ENDBRANCH   5   4
ENDBRANCH  11   8
BRANCH  21  23
ATOM     23  C   UNL     1      -2.835  -0.139  24.864  0.00  0.00    +0.077 C 
ATOM     24  C   UNL     1      -2.885   0.198  24.113  0.00  0.00    +0.009 C 
ATOM     25  C   UNL     1      -3.600   0.514  23.849  0.00  0.00    +0.000 C 
ATOM     26  C   UNL     1      -4.265   0.493  24.336  0.00  0.00    +0.000 C 
ATOM     27  C   UNL     1      -4.215   0.157  25.089  0.00  0.00    +0.000 C 
ATOM     28  C   UNL     1      -3.499  -0.159  25.352  0.00  0.00    +0.009 C 
ENDBRANCH  21  23
TORSDOF 3
ENDMDL
MODEL 2
REMARK VINA RESULT:     -17.1      1.941      4.263
REMARK  Name = 
REMARK  3 active torsions:
REMARK  status: ('A' for Active; 'I' for Inactive)
REMARK    1  A    between atoms: N_4  and  C_5
REMARK    2  A    between atoms: C_8  and  C_11
REMARK    3  A    between atoms: C_21  and  C_23
REMARK                            x       y       z     vdW  Elec       q    Type
REMARK                         _______ _______ _______ _____ _____    ______ ____
ROOT
ATOM     11  C   UNL     1      -3.151   2.107  24.593  0.00  0.00    +0.056 A 
ATOM     12  C   UNL     1      -3.798   2.623  24.941  0.00  0.00    +0.006 A 
ATOM     13  C   UNL     1      -3.536   3.362  25.197  0.00  0.00    +0.013 A 
ATOM     14  C   UNL     1      -2.741   3.566  25.122  0.00  0.00    +0.041 A 
ATOM     15  C   UNL     1      -2.162   4.259  25.295  0.00  0.00    +0.058 C 
ATOM     16  C   UNL     1      -2.144   4.907  25.563  0.00  0.00    +0.011 C 
ATOM     17  C   UNL     1      -1.620   4.377  25.235  0.00  0.00    +0.043 C 
ATOM     18  C   UNL     1      -0.846   3.882  24.871  0.00  0.00    +0.095 C 
ATOM     19  N   UNL     1      -1.226   3.171  24.650  0.00  0.00    -0.279 N 
ATOM     20  C   UNL     1      -1.404   3.794  24.947  0.00  0.00    +0.099 C 
ATOM     21  C   UNL     1      -1.189   2.365  24.304  0.00  0.00    +0.225 C 
ATOM     22  O   UNL     1      -0.417   2.066  24.022  0.00  0.00    -0.275 OA
ATOM     29  C   UNL     1      -2.217   3.648  25.050  0.00  0.00    +0.110 C 
ATOM     30  N   UNL     1      -2.207   3.031  24.790  0.00  0.00    -0.299 N 
ATOM     31  C   UNL     1      -2.469   2.292  24.533  0.00  0.00    +0.261 A 
ATOM     32  O   UNL     1      -1.752   1.689  24.135  0.00  0.00    -0.267 OA
ENDROOT
BRANCH  11   8
ATOM      5  C   UNL     1      -3.946  -0.237  24.092  0.00  0.00    +0.073 A 
ATOM      6  C   UNL     1      -4.404   0.220  24.603  0.00  0.00    +0.017 A 
ATOM      7  C   UNL     1      -4.172   0.991  24.788  0.00  0.00    +0.001 A 
ATOM      8  C   UNL     1      -3.185   1.403  24.305  0.00  0.00    +0.005 A 
ATOM      9  C   UNL     1      -3.222   0.778  24.054  0.00  0.00    +0.001 A 
ATOM     10  C   UNL     1      -3.255   0.075  23.766  0.00  0.00    +0.017 A 
BRANCH   5   4
ATOM      1  C   UNL     1      -3.351  -2.007  24.548  0.00  0.00    +0.097 C 
ATOM      2  C   UNL     1      -4.027  -1.848  24.103  0.00  0.00    +0.246 C 
ATOM      3  O   UNL     1      -4.492  -2.469  23.824  0.00  0.00    -0.273 OA
ATOM      4  N   UNL     1      -4.241  -1.050  23.932  0.00  0.00    -0.179 NA
ENDBRANCH   5   4
ENDBRANCH  11   8
BRANCH  21  23
ATOM     23  C   UNL     1      -2.059   2.049  24.348  0.00  0.00    +0.077 C 
ATOM     24  C   UNL     1      -2.478   2.141  23.644  0.00  0.00    +0.009 C 
ATOM     25  C   UNL     1      -3.262   1.886  23.595  0.00  0.00    +0.000 C 
ATOM     26  C   UNL     1      -3.625   1.540  24.250  0.00  0.00    +0.000 C 
ATOM     27  C   UNL     1      -3.205   1.449  24.954  0.00  0.00    +0.000 C 
ATOM     28  C   UNL     1      -2.421   1.704  25.003  0.00  0.00    +0.009 C 
ENDBRANCH  21  23
TORSDOF 3
ENDMDL
MODEL 3
REMARK VINA RESULT:     -16.7      1.041      4.225
REMARK  Name = 
REMARK  3 active torsions:
REMARK  status: ('A' for Active; 'I' for Inactive)
REMARK    1  A    between atoms: N_4  and  C_5
REMARK    2  A    between atoms: C_8  and  C_11
REMARK    3  A    between atoms: C_21  and  C_23
REMARK                            x       y       z     vdW  Elec       q    Type
REMARK                         _______ _______ _______ _____ _____    ______ ____
ROOT
ATOM     11  C   UNL     1      -4.194   1.064  24.730  0.00  0.00    +0.056 A 
ATOM     12  C   UNL     1      -5.087   1.010  24.809  0.00  0.00    +0.006 A 
ATOM     13  C   UNL     1      -5.449   1.721  25.016  0.00  0.00    +0.013 A 
ATOM     14  C   UNL     1      -4.991   2.398  25.131  0.00  0.00    +0.041 A 
ATOM     15  C   UNL     1      -5.074   3.286  25.351  0.00  0.00    +0.058 C 
ATOM     16  C   UNL     1      -5.555   3.770  25.516  0.00  0.00    +0.011 C 
ATOM     17  C   UNL     1      -4.746   3.732  25.424  0.00  0.00    +0.043 C 
ATOM     18  C   UNL     1      -3.772   3.885  25.361  0.00  0.00    +0.095 C 
ATOM     19  N   UNL     1      -3.522   3.116  25.151  0.00  0.00    -0.279 N 
ATOM     20  C   UNL     1      -4.135   3.451  25.294  0.00  0.00    +0.099 C 
ATOM     21  C   UNL     1      -2.879   2.554  24.951  0.00  0.00    +0.225 C 
ATOM     22  O   UNL     1      -2.055   2.848  24.937  0.00  0.00    -0.275 OA
ATOM     29  C   UNL     1      -4.650   2.805  25.193  0.00  0.00    +0.110 C 
ATOM     30  N   UNL     1      -4.172   2.363  25.038  0.00  0.00    -0.299 N 
ATOM     31  C   UNL     1      -3.810   1.651  24.831  0.00  0.00    +0.261 A 
ATOM     32  O   UNL     1      -2.798   1.688  24.736  0.00  0.00    -0.267 OA
ENDROOT
BRANCH  11   8
ATOM      5  C   UNL     1      -3.121  -1.193  24.364  0.00  0.00    +0.073 A 
ATOM      6  C   UNL     1      -3.896  -1.180  24.647  0.00  0.00    +0.017 A 
ATOM      7  C   UNL     1      -4.276  -0.459  24.777  0.00  0.00    +0.001 A 
ATOM      8  C   UNL     1      -3.683   0.528  24.549  0.00  0.00    +0.005 A 
ATOM      9  C   UNL     1      -3.236   0.049  24.392  0.00  0.00    +0.001 A 
ATOM     10  C   UNL     1      -2.726  -0.485  24.211  0.00  0.00    +0.017 A 
BRANCH   5   4
ATOM      1  C   UNL     1      -1.443  -2.011  24.823  0.00  0.00    +0.097 C 
ATOM      2  C   UNL     1      -2.050  -2.398  24.420  0.00  0.00    +0.246 C 
ATOM      3  O   UNL     1      -1.956  -3.184  24.188  0.00  0.00    -0.273 OA
ATOM      4  N   UNL     1      -2.768  -1.989  24.244  0.00  0.00    -0.179 NA
ENDBRANCH   5   4
ENDBRANCH  11   8
BRANCH  21  23
ATOM     23  C   UNL     1      -3.309   1.746  24.802  0.00  0.00    +0.077 C 
ATOM     24  C   UNL     1      -3.446   1.589  24.005  0.00  0.00    +0.009 C 
ATOM     25  C   UNL     1      -3.824   0.889  23.782  0.00  0.00    +0.000 C 
ATOM     26  C   UNL     1      -4.065   0.349  24.357  0.00  0.00    +0.000 C 
ATOM     27  C   UNL     1      -3.927   0.508  25.155  0.00  0.00    +0.000 C 
ATOM     28  C   UNL     1      -3.549   1.207  25.378  0.00  0.00    +0.009 C 
ENDBRANCH  21  23
TORSDOF 3
ENDMDL
MODEL 4
REMARK VINA RESULT:     -15.7      1.842      4.192
REMARK  Name = 
REMARK  3 active torsions:
REMARK  status: ('A' for Active; 'I' for Inactive)
REMARK    1  A    between atoms: N_4  and  C_5
REMARK    2  A    between atoms: C_8  and  C_11
REMARK    3  A    between atoms: C_21  and  C_23
REMARK                            x       y       z     vdW  Elec       q    Type
REMARK                         _______ _______ _______ _____ _____    ______ ____
ROOT
ATOM     11  C   UNL     1      -3.496   1.302  24.482  0.00  0.00    +0.056 A 
ATOM     12  C   UNL     1      -3.989   0.573  24.660  0.00  0.00    +0.006 A 
ATOM     13  C   UNL     1      -4.729   0.740  24.985  0.00  0.00    +0.013 A 
ATOM     14  C   UNL     1      -4.954   1.523  25.116  0.00  0.00    +0.041 A 
ATOM     15  C   UNL     1      -5.657   2.018  25.440  0.00  0.00    +0.058 C 
ATOM     16  C   UNL     1      -6.300   1.949  25.712  0.00  0.00    +0.011 C 
ATOM     17  C   UNL     1      -5.790   2.554  25.521  0.00  0.00    +0.043 C 
ATOM     18  C   UNL     1      -5.322   3.409  25.358  0.00  0.00    +0.095 C 
ATOM     19  N   UNL     1      -4.607   3.119  25.039  0.00  0.00    -0.279 N 
ATOM     20  C   UNL     1      -5.218   2.853  25.289  0.00  0.00    +0.099 C 
ATOM     21  C   UNL     1      -3.809   3.265  24.704  0.00  0.00    +0.225 C 
ATOM     22  O   UNL     1      -3.534   4.092  24.623  0.00  0.00    -0.275 OA
ATOM     29  C   UNL     1      -5.050   2.045  25.181  0.00  0.00    +0.110 C 
ATOM     30  N   UNL     1      -4.439   2.138  24.923  0.00  0.00    -0.299 N 
ATOM     31  C   UNL     1      -3.700   1.971  24.599  0.00  0.00    +0.261 A 
ATOM     32  O   UNL     1      -3.123   2.783  24.388  0.00  0.00    -0.267 OA
ENDROOT
BRANCH  11   8
ATOM      5  C   UNL     1      -1.139   0.734  23.778  0.00  0.00    +0.073 A 
ATOM      6  C   UNL     1      -1.571   0.151  24.171  0.00  0.00    +0.017 A 
ATOM      7  C   UNL     1      -2.345   0.305  24.414  0.00  0.00    +0.001 A 
ATOM      8  C   UNL     1      -2.797   1.363  24.185  0.00  0.00    +0.005 A 
ATOM      9  C   UNL     1      -2.177   1.409  23.925  0.00  0.00    +0.001 A 
ATOM     10  C   UNL     1      -1.479   1.470  23.628  0.00  0.00    +0.017 A 
BRANCH   5   4
ATOM      1  C   UNL     1       0.609   1.453  24.127  0.00  0.00    +0.097 C 
ATOM      2  C   UNL     1       0.469   0.786  23.662  0.00  0.00    +0.246 C 
ATOM      3  O   UNL     1       1.101   0.386  23.315  0.00  0.00    -0.273 OA
ATOM      4  N   UNL     1      -0.320   0.514  23.542  0.00  0.00    -0.179 NA
ENDBRANCH   5   4
ENDBRANCH  11   8
BRANCH  21  23
ATOM     23  C   UNL     1      -3.471   2.422  24.521  0.00  0.00    +0.077 C 
ATOM     24  C   UNL     1      -3.562   2.194  23.734  0.00  0.00    +0.009 C 
ATOM     25  C   UNL     1      -3.289   1.456  23.484  0.00  0.00    +0.000 C 
ATOM     26  C   UNL     1      -2.924   0.948  24.022  0.00  0.00    +0.000 C 
ATOM     27  C   UNL     1      -2.832   1.177  24.809  0.00  0.00    +0.000 C 
ATOM     28  C   UNL     1      -3.106   1.915  25.059  0.00  0.00    +0.009 C 
ENDBRANCH  21  23
TORSDOF 3
ENDMDL
MODEL 5
REMARK VINA RESULT:     -15.3      1.607      2.308
REMARK  Name = 
REMARK  3 active torsions:
REMARK  status: ('A' for Active; 'I' for Inactive)
REMARK    1  A    between atoms: N_4  and  C_5
REMARK    2  A    between atoms: C_8  and  C_11
REMARK    3  A    between atoms: C_21  and  C_23
REMARK                            x       y       z     vdW  Elec       q    Type
REMARK                         _______ _______ _______ _____ _____    ______ ____
ROOT
ATOM     11  C   UNL     1      -2.216   0.335  24.635  0.00  0.00    +0.056 A 
ATOM     12  C   UNL     1      -1.483  -0.177  24.717  0.00  0.00    +0.006 A 
ATOM     13  C   UNL     1      -1.636  -0.988  24.702  0.00  0.00    +0.013 A 
ATOM     14  C   UNL     1      -2.410  -1.259  24.618  0.00  0.00    +0.041 A 
ATOM     15  C   UNL     1      -2.891  -2.040  24.567  0.00  0.00    +0.058 C 
ATOM     16  C   UNL     1      -2.811  -2.738  24.578  0.00  0.00    +0.011 C 
ATOM     17  C   UNL     1      -3.422  -2.203  24.509  0.00  0.00    +0.043 C 
ATOM     18  C   UNL     1      -4.280  -1.722  24.414  0.00  0.00    +0.095 C 
ATOM     19  N   UNL     1      -4.004  -0.934  24.442  0.00  0.00    -0.279 N 
ATOM     20  C   UNL     1      -3.729  -1.591  24.474  0.00  0.00    +0.099 C 
ATOM     21  C   UNL     1      -4.162  -0.071  24.423  0.00  0.00    +0.225 C 
ATOM     22  O   UNL     1      -4.989   0.200  24.331  0.00  0.00    -0.275 OA
ATOM     29  C   UNL     1      -2.928  -1.381  24.561  0.00  0.00    +0.110 C 
ATOM     30  N   UNL     1      -3.031  -0.720  24.548  0.00  0.00    -0.299 N 
ATOM     31  C   UNL     1      -2.878   0.091  24.563  0.00  0.00    +0.261 A 
ATOM     32  O   UNL     1      -3.694   0.691  24.472  0.00  0.00    -0.267 OA
ENDROOT
BRANCH  11   8
ATOM      5  C   UNL     1      -1.696   2.790  24.908  0.00  0.00    +0.073 A 
ATOM      6  C   UNL     1      -1.113   2.250  25.129  0.00  0.00    +0.017 A 
ATOM      7  C   UNL     1      -1.251   1.439  25.053  0.00  0.00    +0.001 A 
ATOM      8  C   UNL     1      -2.288   1.092  24.625  0.00  0.00    +0.005 A 
ATOM      9  C   UNL     1      -2.344   1.764  24.620  0.00  0.00    +0.001 A 
ATOM     10  C   UNL     1      -2.416   2.521  24.610  0.00  0.00    +0.017 A 
BRANCH   5   4
ATOM      1  C   UNL     1      -2.522   4.279  25.800  0.00  0.00    +0.097 C 
ATOM      2  C   UNL     1      -1.811   4.327  25.384  0.00  0.00    +0.246 C 
ATOM      3  O   UNL     1      -1.411   5.046  25.334  0.00  0.00    -0.273 OA
ATOM      4  N   UNL     1      -1.493   3.640  25.011  0.00  0.00    -0.179 NA
ENDBRANCH   5   4
ENDBRANCH  11   8
BRANCH  21  23
ATOM     23  C   UNL     1      -3.330   0.325  24.513  0.00  0.00    +0.077 C 
ATOM     24  C   UNL     1      -2.996   0.558  23.796  0.00  0.00    +0.009 C 
ATOM     25  C   UNL     1      -2.254   0.919  23.784  0.00  0.00    +0.000 C 
ATOM     26  C   UNL     1      -1.847   1.048  24.490  0.00  0.00    +0.000 C 
ATOM     27  C   UNL     1      -2.181   0.815  25.208  0.00  0.00    +0.000 C 
ATOM     28  C   UNL     1      -2.923   0.453  25.219  0.00  0.00    +0.009 C 
ENDBRANCH  21  23
TORSDOF 3
ENDMDL
