MODEL 1
REMARK VINA RESULT:     -12.6      0.000      0.000
REMARK  Name = 
REMARK  6 active torsions:
REMARK  status: ('A' for Active; 'I' for Inactive)
REMARK    1  A    between atoms: C_5  and  C_6
REMARK    2  A    between atoms: C_6  and  N_7
REMARK    3  A    between atoms: C_11  and  C_12
REMARK    4  A    between atoms: C_14  and  C_17
REMARK    5  A    between atoms: C_20  and  O_21
REMARK    6  A    between atoms: O_21  and  C_22
REMARK                            x       y       z     vdW  Elec       q    Type
REMARK                         _______ _______ _______ _____ _____    ______ ____
ROOT
ATOM     12  C   UNL     1      -0.781   2.704  24.832  0.00  0.00    +0.251 A 
ATOM     13  N   UNL     1      -1.166   1.993  25.000  0.00  0.00    -0.190 NA
ATOM     14  C   UNL     1      -0.654   1.375  24.813  0.00  0.00    +0.205 A 
ATOM     15  N   UNL     1       0.048   1.702  24.528  0.00  0.00    -0.056 NA
ATOM     16  O   UNL     1      -0.031   2.523  24.540  0.00  0.00    -0.336 OA
ENDROOT
BRANCH  14  17
ATOM     17  C   UNL     1      -0.815   0.570  24.895  0.00  0.00    +0.058 A 
ATOM     18  C   UNL     1      -1.040   0.267  25.628  0.00  0.00    +0.010 A 
ATOM     19  C   UNL     1      -1.200  -0.537  25.712  0.00  0.00    +0.058 A 
ATOM     20  C   UNL     1      -1.136  -1.040  25.061  0.00  0.00    +0.225 A 
ATOM     28  N   UNL     1      -0.911  -0.738  24.327  0.00  0.00    -0.210 NA
ATOM     29  C   UNL     1      -0.750   0.067  24.244  0.00  0.00    +0.105 A 
BRANCH  20  21
ATOM     21  O   UNL     1      -1.296  -1.845  25.144  0.00  0.00    -0.464 OA
BRANCH  21  22
ATOM     22  C   UNL     1      -2.046  -2.138  24.960  0.00  0.00    +0.168 C 
ATOM     23  C   UNL     1      -2.677  -2.008  25.476  0.00  0.00    +0.044 C 
ATOM     24  C   UNL     1      -3.426  -2.300  25.293  0.00  0.00    +0.004 C 
ATOM     25  C   UNL     1      -3.544  -2.722  24.594  0.00  0.00    +0.000 C 
ATOM     26  C   UNL     1      -2.913  -2.851  24.078  0.00  0.00    +0.004 C 
ATOM     27  C   UNL     1      -2.164  -2.559  24.261  0.00  0.00    +0.044 C 
ENDBRANCH  21  22
ENDBRANCH  20  21
ENDBRANCH  14  17
BRANCH  12  11
ATOM      7  N   UNL     1      -1.886   3.673  24.876  0.00  0.00    -0.263 NA
ATOM      8  C   UNL     1      -1.946   4.482  25.022  0.00  0.00    +0.073 C 
ATOM      9  C   UNL     1      -1.188   4.771  25.174  0.00  0.00    +0.019 C 
ATOM     10  C   UNL     1      -0.659   4.139  25.121  0.00  0.00    +0.027 C 
ATOM     11  C   UNL     1      -1.091   3.460  24.937  0.00  0.00    +0.138 C 
BRANCH   7   6
ATOM      6  C   UNL     1      -2.511   3.165  24.700  0.00  0.00    +0.099 C 
BRANCH   6   5
ATOM      1  C   UNL     1      -5.599   4.000  25.508  0.00  0.00    +0.031 C 
ATOM      2  C   UNL     1      -4.827   3.791  25.306  0.00  0.00    -0.022 A 
ATOM      3  C   UNL     1      -4.576   3.848  24.522  0.00  0.00    -0.005 A 
ATOM      4  C   UNL     1      -3.804   3.639  24.320  0.00  0.00    -0.003 A 
ATOM      5  C   UNL     1      -3.283   3.373  24.902  0.00  0.00    -0.006 A 
ATOM     30  C   UNL     1      -3.534   3.317  25.686  0.00  0.00    -0.003 A 
ATOM     31  C   UNL     1      -4.306   3.526  25.888  0.00  0.00    -0.005 A 
ENDBRANCH   6   5
ENDBRANCH   7   6
ENDBRANCH  12  11
TORSDOF 6
ENDMDL
MODEL 2
REMARK VINA RESULT:     -12.0      2.044      3.206
REMARK  Name = 
REMARK  6 active torsions:
REMARK  status: ('A' for Active; 'I' for Inactive)
REMARK    1  A    between atoms: C_5  and  C_6
REMARK    2  A    between atoms: C_6  and  N_7
REMARK    3  A    between atoms: C_11  and  C_12
REMARK    4  A    between atoms: C_14  and  C_17
REMARK    5  A    between atoms: C_20  and  O_21
REMARK    6  A    between atoms: O_21  and  C_22
REMARK                            x       y       z     vdW  Elec       q    Type
REMARK                         _______ _______ _______ _____ _____    ______ ____
ROOT
ATOM     12  C   UNL     1      -5.050   1.975  25.080  0.00  0.00    +0.251 A 
ATOM     13  N   UNL     1      -4.495   1.391  25.254  0.00  0.00    -0.190 NA
ATOM     14  C   UNL     1      -4.746   0.687  24.906  0.00  0.00    +0.205 A 
ATOM     15  N   UNL     1      -5.458   0.836  24.515  0.00  0.00    -0.056 NA
ATOM     16  O   UNL     1      -5.646   1.633  24.623  0.00  0.00    -0.336 OA
ENDROOT
BRANCH  14  17
ATOM     17  C   UNL     1      -4.356  -0.039  24.940  0.00  0.00    +0.058 A 
ATOM     18  C   UNL     1      -4.264  -0.490  24.256  0.00  0.00    +0.010 A 
ATOM     19  C   UNL     1      -3.874  -1.216  24.289  0.00  0.00    +0.058 A 
ATOM     20  C   UNL     1      -3.576  -1.491  25.007  0.00  0.00    +0.225 A 
ATOM     28  N   UNL     1      -3.667  -1.040  25.692  0.00  0.00    -0.210 NA
ATOM     29  C   UNL     1      -4.057  -0.314  25.659  0.00  0.00    +0.105 A 
BRANCH  20  21
ATOM     21  O   UNL     1      -3.185  -2.217  25.041  0.00  0.00    -0.464 OA
BRANCH  21  22
ATOM     22  C   UNL     1      -2.375  -2.258  24.890  0.00  0.00    +0.168 C 
ATOM     23  C   UNL     1      -1.839  -1.933  25.426  0.00  0.00    +0.044 C 
ATOM     24  C   UNL     1      -1.029  -1.973  25.274  0.00  0.00    +0.004 C 
ATOM     25  C   UNL     1      -0.756  -2.339  24.587  0.00  0.00    +0.000 C 
ATOM     26  C   UNL     1      -1.292  -2.664  24.051  0.00  0.00    +0.004 C 
ATOM     27  C   UNL     1      -2.102  -2.624  24.202  0.00  0.00    +0.044 C 
ENDBRANCH  21  22
ENDBRANCH  20  21
ENDBRANCH  14  17
BRANCH  12  11
ATOM      7  N   UNL     1      -4.352   3.252  25.294  0.00  0.00    -0.263 NA
ATOM      8  C   UNL     1      -4.569   3.992  25.586  0.00  0.00    +0.073 C 
ATOM      9  C   UNL     1      -5.367   3.962  25.793  0.00  0.00    +0.019 C 
ATOM     10  C   UNL     1      -5.644   3.203  25.628  0.00  0.00    +0.027 C 
ATOM     11  C   UNL     1      -5.017   2.763  25.320  0.00  0.00    +0.138 C 
BRANCH   7   6
ATOM      6  C   UNL     1      -3.604   3.037  25.024  0.00  0.00    +0.099 C 
BRANCH   6   5
ATOM      1  C   UNL     1      -1.123   5.209  25.132  0.00  0.00    +0.031 C 
ATOM      2  C   UNL     1      -1.743   4.666  25.105  0.00  0.00    -0.022 A 
ATOM      3  C   UNL     1      -2.235   4.634  24.444  0.00  0.00    -0.005 A 
ATOM      4  C   UNL     1      -2.855   4.092  24.416  0.00  0.00    -0.003 A 
ATOM      5  C   UNL     1      -2.984   3.580  25.051  0.00  0.00    -0.006 A 
ATOM     30  C   UNL     1      -2.492   3.612  25.713  0.00  0.00    -0.003 A 
ATOM     31  C   UNL     1      -1.871   4.155  25.739  0.00  0.00    -0.005 A 
ENDBRANCH   6   5
ENDBRANCH   7   6
ENDBRANCH  12  11
TORSDOF 6
ENDMDL
MODEL 3
REMARK VINA RESULT:     -11.4      2.047      3.162
REMARK  Name = 
REMARK  6 active torsions:
REMARK  status: ('A' for Active; 'I' for Inactive)
REMARK    1  A    between atoms: C_5  and  C_6
REMARK    2  A    between atoms: C_6  and  N_7
REMARK    3  A    between atoms: C_11  and  C_12
REMARK    4  A    between atoms: C_14  and  C_17
REMARK    5  A    between atoms: C_20  and  O_21
REMARK    6  A    between atoms: O_21  and  C_22
REMARK                            x       y       z     vdW  Elec       q    Type
REMARK                         _______ _______ _______ _____ _____    ______ ____
ROOT
ATOM     12  C   UNL     1      -4.268   2.737  25.255  0.00  0.00    +0.251 A 
ATOM     13  N   UNL     1      -3.959   1.973  25.206  0.00  0.00    -0.190 NA
ATOM     14  C   UNL     1      -4.412   1.548  24.665  0.00  0.00    +0.205 A 
ATOM     15  N   UNL     1      -5.003   2.047  24.379  0.00  0.00    -0.056 NA
ATOM     16  O   UNL     1      -4.914   2.782  24.743  0.00  0.00    -0.336 OA
ENDROOT
BRANCH  14  17
ATOM     17  C   UNL     1      -4.297   0.760  24.447  0.00  0.00    +0.058 A 
ATOM     18  C   UNL     1      -3.781   0.574  23.831  0.00  0.00    +0.010 A 
ATOM     19  C   UNL     1      -3.664  -0.212  23.613  0.00  0.00    +0.058 A 
ATOM     20  C   UNL     1      -4.064  -0.814  24.011  0.00  0.00    +0.225 A 
ATOM     28  N   UNL     1      -4.581  -0.629  24.627  0.00  0.00    -0.210 NA
ATOM     29  C   UNL     1      -4.697   0.158  24.845  0.00  0.00    +0.105 A 
BRANCH  20  21
ATOM     21  O   UNL     1      -3.948  -1.601  23.792  0.00  0.00    -0.464 OA
BRANCH  21  22
ATOM     22  C   UNL     1      -3.407  -2.068  24.204  0.00  0.00    +0.168 C 
ATOM     23  C   UNL     1      -3.673  -2.611  24.766  0.00  0.00    +0.044 C 
ATOM     24  C   UNL     1      -3.131  -3.077  25.177  0.00  0.00    +0.004 C 
ATOM     25  C   UNL     1      -2.324  -3.001  25.027  0.00  0.00    +0.000 C 
ATOM     26  C   UNL     1      -2.057  -2.458  24.465  0.00  0.00    +0.004 C 
ATOM     27  C   UNL     1      -2.599  -1.992  24.053  0.00  0.00    +0.044 C 
ENDBRANCH  21  22
ENDBRANCH  20  21
ENDBRANCH  14  17
BRANCH  12  11
ATOM      7  N   UNL     1      -3.346   3.842  25.556  0.00  0.00    -0.263 NA
ATOM      8  C   UNL     1      -3.255   4.370  26.182  0.00  0.00    +0.073 C 
ATOM      9  C   UNL     1      -3.836   4.202  26.744  0.00  0.00    +0.019 C 
ATOM     10  C   UNL     1      -4.286   3.570  26.465  0.00  0.00    +0.027 C 
ATOM     11  C   UNL     1      -3.983   3.347  25.730  0.00  0.00    +0.138 C 
BRANCH   7   6
ATOM      6  C   UNL     1      -2.883   3.813  24.875  0.00  0.00    +0.099 C 
BRANCH   6   5
ATOM      1  C   UNL     1       0.086   5.252  24.835  0.00  0.00    +0.031 C 
ATOM      2  C   UNL     1      -0.656   4.893  24.845  0.00  0.00    -0.022 A 
ATOM      3  C   UNL     1      -0.718   4.076  24.944  0.00  0.00    -0.005 A 
ATOM      4  C   UNL     1      -1.459   3.716  24.955  0.00  0.00    -0.003 A 
ATOM      5  C   UNL     1      -2.141   4.173  24.865  0.00  0.00    -0.006 A 
ATOM     30  C   UNL     1      -2.080   4.990  24.765  0.00  0.00    -0.003 A 
ATOM     31  C   UNL     1      -1.337   5.349  24.755  0.00  0.00    -0.005 A 
ENDBRANCH   6   5
ENDBRANCH   7   6
ENDBRANCH  12  11
TORSDOF 6
ENDMDL
MODEL 4
REMARK VINA RESULT:     -11.4      3.031      5.143
REMARK  Name = 
REMARK  6 active torsions:
REMARK  status: ('A' for Active; 'I' for Inactive)
REMARK    1  A    between atoms: C_5  and  C_6
REMARK    2  A    between atoms: C_6  and  N_7
REMARK    3  A    between atoms: C_11  and  C_12
REMARK    4  A    between atoms: C_14  and  C_17
REMARK    5  A    between atoms: C_20  and  O_21
REMARK    6  A    between atoms: O_21  and  C_22
REMARK                            x       y       z     vdW  Elec       q    Type
REMARK                         _______ _______ _______ _____ _____    ______ ____
ROOT
ATOM     12  C   UNL     1      -0.900   1.072  24.044  0.00  0.00    +0.251 A 
ATOM     13  N   UNL     1      -0.327   0.791  23.522  0.00  0.00    -0.190 NA
ATOM     14  C   UNL     1       0.414   0.979  23.829  0.00  0.00    +0.205 A 
ATOM     15  N   UNL     1       0.300   1.378  24.543  0.00  0.00    -0.056 NA
ATOM     16  O   UNL     1      -0.512   1.435  24.676  0.00  0.00    -0.336 OA
ENDROOT
BRANCH  14  17
ATOM     17  C   UNL     1       1.143   0.802  23.485  0.00  0.00    +0.058 A 
ATOM     18  C   UNL     1       1.252   0.079  23.102  0.00  0.00    +0.010 A 
ATOM     19  C   UNL     1       1.980  -0.100  22.758  0.00  0.00    +0.058 A 
ATOM     20  C   UNL     1       2.599   0.445  22.796  0.00  0.00    +0.225 A 
ATOM     28  N   UNL     1       2.490   1.167  23.179  0.00  0.00    -0.210 NA
ATOM     29  C   UNL     1       1.762   1.346  23.523  0.00  0.00    +0.105 A 
BRANCH  20  21
ATOM     21  O   UNL     1       3.327   0.266  22.452  0.00  0.00    -0.464 OA
BRANCH  21  22
ATOM     22  C   UNL     1       3.985   0.122  22.929  0.00  0.00    +0.168 C 
ATOM     23  C   UNL     1       4.542   0.717  23.054  0.00  0.00    +0.044 C 
ATOM     24  C   UNL     1       5.200   0.573  23.531  0.00  0.00    +0.004 C 
ATOM     25  C   UNL     1       5.300  -0.167  23.882  0.00  0.00    +0.000 C 
ATOM     26  C   UNL     1       4.742  -0.763  23.757  0.00  0.00    +0.004 C 
ATOM     27  C   UNL     1       4.084  -0.618  23.280  0.00  0.00    +0.044 C 
ENDBRANCH  21  22
ENDBRANCH  20  21
ENDBRANCH  14  17
BRANCH  12  11
ATOM      7  N   UNL     1      -2.198   0.430  24.301  0.00  0.00    -0.263 NA
ATOM      8  C   UNL     1      -2.974   0.569  24.060  0.00  0.00    +0.073 C 
ATOM      9  C   UNL     1      -2.973   1.228  23.563  0.00  0.00    +0.019 C 
ATOM     10  C   UNL     1      -2.196   1.497  23.497  0.00  0.00    +0.027 C 
ATOM     11  C   UNL     1      -1.716   1.003  23.953  0.00  0.00    +0.138 C 
BRANCH   7   6
ATOM      6  C   UNL     1      -1.946  -0.175  24.801  0.00  0.00    +0.099 C 
BRANCH   6   5
ATOM      1  C   UNL     1      -3.689  -2.967  25.022  0.00  0.00    +0.031 C 
ATOM      2  C   UNL     1      -3.254  -2.269  24.967  0.00  0.00    -0.022 A 
ATOM      3  C   UNL     1      -2.626  -2.216  24.435  0.00  0.00    -0.005 A 
ATOM      4  C   UNL     1      -2.190  -1.518  24.379  0.00  0.00    -0.003 A 
ATOM      5  C   UNL     1      -2.382  -0.873  24.856  0.00  0.00    -0.006 A 
ATOM     30  C   UNL     1      -3.010  -0.926  25.389  0.00  0.00    -0.003 A 
ATOM     31  C   UNL     1      -3.446  -1.625  25.443  0.00  0.00    -0.005 A 
ENDBRANCH   6   5
ENDBRANCH   7   6
ENDBRANCH  12  11
TORSDOF 6
ENDMDL
MODEL 5
REMARK VINA RESULT:     -11.2      2.551      4.139
REMARK  Name = 
REMARK  6 active torsions:
REMARK  status: ('A' for Active; 'I' for Inactive)
REMARK    1  A    between atoms: C_5  and  C_6
REMARK    2  A    between atoms: C_6  and  N_7
REMARK    3  A    between atoms: C_11  and  C_12
REMARK    4  A    between atoms: C_14  and  C_17
REMARK    5  A    between atoms: C_20  and  O_21
REMARK    6  A    between atoms: O_21  and  C_22
REMARK                            x       y       z     vdW  Elec       q    Type
REMARK                         _______ _______ _______ _____ _____    ______ ____
ROOT
ATOM     12  C   UNL     1      -1.793   0.197  24.943  0.00  0.00    +0.251 A 
ATOM     13  N   UNL     1      -1.345   0.083  24.259  0.00  0.00    -0.190 NA
ATOM     14  C   UNL     1      -0.561   0.268  24.433  0.00  0.00    +0.205 A 
ATOM     15  N   UNL     1      -0.523   0.497  25.225  0.00  0.00    -0.056 NA
ATOM     16  O   UNL     1      -1.284   0.453  25.540  0.00  0.00    -0.336 OA
ENDROOT
BRANCH  14  17
ATOM     17  C   UNL     1       0.075   0.232  23.909  0.00  0.00    +0.058 A 
ATOM     18  C   UNL     1       0.300  -0.493  23.584  0.00  0.00    +0.010 A 
ATOM     19  C   UNL     1       0.935  -0.531  23.060  0.00  0.00    +0.058 A 
ATOM     20  C   UNL     1       1.346   0.156  22.860  0.00  0.00    +0.225 A 
ATOM     28  N   UNL     1       1.122   0.880  23.185  0.00  0.00    -0.210 NA
ATOM     29  C   UNL     1       0.486   0.918  23.709  0.00  0.00    +0.105 A 
BRANCH  20  21
ATOM     21  O   UNL     1       1.982   0.118  22.335  0.00  0.00    -0.464 OA
BRANCH  21  22
ATOM     22  C   UNL     1       2.754   0.188  22.618  0.00  0.00    +0.168 C 
ATOM     23  C   UNL     1       3.129  -0.463  22.960  0.00  0.00    +0.044 C 
ATOM     24  C   UNL     1       3.901  -0.393  23.242  0.00  0.00    +0.004 C 
ATOM     25  C   UNL     1       4.298   0.327  23.182  0.00  0.00    +0.000 C 
ATOM     26  C   UNL     1       3.924   0.978  22.839  0.00  0.00    +0.004 C 
ATOM     27  C   UNL     1       3.152   0.909  22.557  0.00  0.00    +0.044 C 
ENDBRANCH  21  22
ENDBRANCH  20  21
ENDBRANCH  14  17
BRANCH  12  11
ATOM      7  N   UNL     1      -3.194   0.639  24.883  0.00  0.00    -0.263 NA
ATOM      8  C   UNL     1      -3.924   0.282  25.022  0.00  0.00    +0.073 C 
ATOM      9  C   UNL     1      -3.787  -0.501  25.243  0.00  0.00    +0.019 C 
ATOM     10  C   UNL     1      -2.972  -0.628  25.240  0.00  0.00    +0.027 C 
ATOM     11  C   UNL     1      -2.605   0.077  25.017  0.00  0.00    +0.138 C 
BRANCH   7   6
ATOM      6  C   UNL     1      -3.073   1.421  24.650  0.00  0.00    +0.099 C 
BRANCH   6   5
ATOM      1  C   UNL     1      -5.347   3.715  25.323  0.00  0.00    +0.031 C 
ATOM      2  C   UNL     1      -4.779   3.141  25.154  0.00  0.00    -0.022 A 
ATOM      3  C   UNL     1      -4.098   3.087  25.617  0.00  0.00    -0.005 A 
ATOM      4  C   UNL     1      -3.529   2.514  25.449  0.00  0.00    -0.003 A 
ATOM      5  C   UNL     1      -3.642   1.994  24.818  0.00  0.00    -0.006 A 
ATOM     30  C   UNL     1      -4.323   2.048  24.355  0.00  0.00    -0.003 A 
ATOM     31  C   UNL     1      -4.891   2.622  24.524  0.00  0.00    -0.005 A 
ENDBRANCH   6   5
ENDBRANCH   7   6
ENDBRANCH  12  11
TORSDOF 6
ENDMDL
MODEL 6
REMARK VINA RESULT:     -11.1      1.475      5.339
REMARK  Name = 
REMARK  6 active torsions:
REMARK  status: ('A' for Active; 'I' for Inactive)
REMARK    1  A    between atoms: C_5  and  C_6
REMARK    2  A    between atoms: C_6  and  N_7
REMARK    3  A    between atoms: C_11  and  C_12
REMARK    4  A    between atoms: C_14  and  C_17
REMARK    5  A    between atoms: C_20  and  O_21
REMARK    6  A    between atoms: O_21  and  C_22
REMARK                            x       y       z     vdW  Elec       q    Type
REMARK                         _______ _______ _______ _____ _____    ______ ____
ROOT
ATOM     12  C   UNL     1      -0.499  -0.504  24.565  0.00  0.00    +0.251 A 
ATOM     13  N   UNL     1      -0.623   0.196  24.984  0.00  0.00    -0.190 NA
ATOM     14  C   UNL     1      -0.339   0.821  24.528  0.00  0.00    +0.205 A 
ATOM     15  N   UNL     1      -0.038   0.508  23.826  0.00  0.00    -0.056 NA
ATOM     16  O   UNL     1      -0.136  -0.311  23.849  0.00  0.00    -0.336 OA
ENDROOT
BRANCH  14  17
ATOM     17  C   UNL     1      -0.352   1.620  24.735  0.00  0.00    +0.058 A 
ATOM     18  C   UNL     1      -0.243   1.843  25.522  0.00  0.00    +0.010 A 
ATOM     19  C   UNL     1      -0.256   2.641  25.730  0.00  0.00    +0.058 A 
ATOM     20  C   UNL     1      -0.378   3.216  25.151  0.00  0.00    +0.225 A 
ATOM     28  N   UNL     1      -0.487   2.993  24.364  0.00  0.00    -0.210 NA
ATOM     29  C   UNL     1      -0.474   2.195  24.156  0.00  0.00    +0.105 A 
BRANCH  20  21
ATOM     21  O   UNL     1      -0.391   4.014  25.359  0.00  0.00    -0.464 OA
BRANCH  21  22
ATOM     22  C   UNL     1      -1.105   4.427  25.365  0.00  0.00    +0.168 C 
ATOM     23  C   UNL     1      -1.757   4.119  25.767  0.00  0.00    +0.044 C 
ATOM     24  C   UNL     1      -2.471   4.532  25.772  0.00  0.00    +0.004 C 
ATOM     25  C   UNL     1      -2.533   5.254  25.376  0.00  0.00    +0.000 C 
ATOM     26  C   UNL     1      -1.882   5.562  24.975  0.00  0.00    +0.004 C 
ATOM     27  C   UNL     1      -1.168   5.149  24.969  0.00  0.00    +0.044 C 
ENDBRANCH  21  22
ENDBRANCH  20  21
ENDBRANCH  14  17
BRANCH  12  11
ATOM      7  N   UNL     1      -1.465  -1.548  24.936  0.00  0.00    -0.263 NA
ATOM      8  C   UNL     1      -1.408  -2.332  25.186  0.00  0.00    +0.073 C 
ATOM      9  C   UNL     1      -0.608  -2.531  25.223  0.00  0.00    +0.019 C 
ATOM     10  C   UNL     1      -0.170  -1.870  24.995  0.00  0.00    +0.027 C 
ATOM     11  C   UNL     1      -0.700  -1.262  24.817  0.00  0.00    +0.138 C 
BRANCH   7   6
ATOM      6  C   UNL     1      -2.163  -1.124  24.823  0.00  0.00    +0.099 C 
BRANCH   6   5
ATOM      1  C   UNL     1      -4.863  -2.653  23.702  0.00  0.00    +0.031 C 
ATOM      2  C   UNL     1      -4.188  -2.271  23.982  0.00  0.00    -0.022 A 
ATOM      3  C   UNL     1      -3.928  -1.577  23.622  0.00  0.00    -0.005 A 
ATOM      4  C   UNL     1      -3.253  -1.194  23.902  0.00  0.00    -0.003 A 
ATOM      5  C   UNL     1      -2.838  -1.507  24.543  0.00  0.00    -0.006 A 
ATOM     30  C   UNL     1      -3.098  -2.202  24.904  0.00  0.00    -0.003 A 
ATOM     31  C   UNL     1      -3.774  -2.583  24.623  0.00  0.00    -0.005 A 
ENDBRANCH   6   5
ENDBRANCH   7   6
ENDBRANCH  12  11
TORSDOF 6
ENDMDL
MODEL 7
REMARK VINA RESULT:     -10.9      1.361      4.965
REMARK  Name = 
REMARK  6 active torsions:
REMARK  status: ('A' for Active; 'I' for Inactive)
REMARK    1  A    between atoms: C_5  and  C_6
REMARK    2  A    between atoms: C_6  and  N_7
REMARK    3  A    between atoms: C_11  and  C_12
REMARK    4  A    between atoms: C_14  and  C_17
REMARK    5  A    between atoms: C_20  and  O_21
REMARK    6  A    between atoms: O_21  and  C_22
REMARK                            x       y       z     vdW  Elec       q    Type
REMARK                         _______ _______ _______ _____ _____    ______ ____
ROOT
ATOM     12  C   UNL     1      -0.428   1.362  24.074  0.00  0.00    +0.251 A 
ATOM     13  N   UNL     1      -1.246   1.468  24.086  0.00  0.00    -0.190 NA
ATOM     14  C   UNL     1      -1.402   2.222  24.381  0.00  0.00    +0.205 A 
ATOM     15  N   UNL     1      -0.680   2.584  24.551  0.00  0.00    -0.056 NA
ATOM     16  O   UNL     1      -0.078   2.053  24.361  0.00  0.00    -0.336 OA
ENDROOT
BRANCH  14  17
ATOM     17  C   UNL     1      -2.149   2.557  24.487  0.00  0.00    +0.058 A 
ATOM     18  C   UNL     1      -2.682   2.583  23.858  0.00  0.00    +0.010 A 
ATOM     19  C   UNL     1      -3.428   2.917  23.963  0.00  0.00    +0.058 A 
ATOM     20  C   UNL     1      -3.642   3.226  24.698  0.00  0.00    +0.225 A 
ATOM     28  N   UNL     1      -3.109   3.200  25.327  0.00  0.00    -0.210 NA
ATOM     29  C   UNL     1      -2.362   2.865  25.222  0.00  0.00    +0.105 A 
BRANCH  20  21
ATOM     21  O   UNL     1      -4.389   3.561  24.803  0.00  0.00    -0.464 OA
BRANCH  21  22
ATOM     22  C   UNL     1      -5.006   3.105  25.106  0.00  0.00    +0.168 C 
ATOM     23  C   UNL     1      -5.369   2.534  24.633  0.00  0.00    +0.044 C 
ATOM     24  C   UNL     1      -5.986   2.079  24.936  0.00  0.00    +0.004 C 
ATOM     25  C   UNL     1      -6.241   2.194  25.712  0.00  0.00    +0.000 C 
ATOM     26  C   UNL     1      -5.878   2.765  26.186  0.00  0.00    +0.004 C 
ATOM     27  C   UNL     1      -5.261   3.220  25.882  0.00  0.00    +0.044 C 
ENDBRANCH  21  22
ENDBRANCH  20  21
ENDBRANCH  14  17
BRANCH  12  11
ATOM      7  N   UNL     1      -0.114  -0.073  24.129  0.00  0.00    -0.263 NA
ATOM      8  C   UNL     1       0.389  -0.576  23.711  0.00  0.00    +0.073 C 
ATOM      9  C   UNL     1       0.785  -0.127  23.143  0.00  0.00    +0.019 C 
ATOM     10  C   UNL     1       0.527   0.654  23.210  0.00  0.00    +0.027 C 
ATOM     11  C   UNL     1      -0.029   0.688  23.820  0.00  0.00    +0.138 C 
BRANCH   7   6
ATOM      6  C   UNL     1      -0.613  -0.291  24.747  0.00  0.00    +0.099 C 
BRANCH   6   5
ATOM      1  C   UNL     1      -2.231  -3.164  24.629  0.00  0.00    +0.031 C 
ATOM      2  C   UNL     1      -1.827  -2.446  24.659  0.00  0.00    -0.022 A 
ATOM      3  C   UNL     1      -1.076  -2.409  24.998  0.00  0.00    -0.005 A 
ATOM      4  C   UNL     1      -0.671  -1.691  25.028  0.00  0.00    -0.003 A 
ATOM      5  C   UNL     1      -1.018  -1.009  24.718  0.00  0.00    -0.006 A 
ATOM     30  C   UNL     1      -1.769  -1.046  24.378  0.00  0.00    -0.003 A 
ATOM     31  C   UNL     1      -2.173  -1.765  24.348  0.00  0.00    -0.005 A 
ENDBRANCH   6   5
ENDBRANCH   7   6
ENDBRANCH  12  11
TORSDOF 6
ENDMDL
MODEL 8
REMARK VINA RESULT:     -10.9      1.806      5.931
REMARK  Name = 
REMARK  6 active torsions:
REMARK  status: ('A' for Active; 'I' for Inactive)
REMARK    1  A    between atoms: C_5  and  C_6
REMARK    2  A    between atoms: C_6  and  N_7
REMARK    3  A    between atoms: C_11  and  C_12
REMARK    4  A    between atoms: C_14  and  C_17
REMARK    5  A    between atoms: C_20  and  O_21
REMARK    6  A    between atoms: O_21  and  C_22
REMARK                            x       y       z     vdW  Elec       q    Type
REMARK                         _______ _______ _______ _____ _____    ______ ____
ROOT
ATOM     12  C   UNL     1      -4.310  -0.193  24.580  0.00  0.00    +0.251 A 
ATOM     13  N   UNL     1      -3.857   0.465  24.377  0.00  0.00    -0.190 NA
ATOM     14  C   UNL     1      -4.208   1.131  24.712  0.00  0.00    +0.205 A 
ATOM     15  N   UNL     1      -4.879   0.885  25.124  0.00  0.00    -0.056 NA
ATOM     16  O   UNL     1      -4.943   0.067  25.043  0.00  0.00    -0.336 OA
ENDROOT
BRANCH  14  17
ATOM     17  C   UNL     1      -3.936   1.908  24.648  0.00  0.00    +0.058 A 
ATOM     18  C   UNL     1      -3.798   2.236  23.904  0.00  0.00    +0.010 A 
ATOM     19  C   UNL     1      -3.527   3.012  23.839  0.00  0.00    +0.058 A 
ATOM     20  C   UNL     1      -3.394   3.461  24.518  0.00  0.00    +0.225 A 
ATOM     28  N   UNL     1      -3.532   3.133  25.263  0.00  0.00    -0.210 NA
ATOM     29  C   UNL     1      -3.804   2.357  25.328  0.00  0.00    +0.105 A 
BRANCH  20  21
ATOM     21  O   UNL     1      -3.123   4.238  24.453  0.00  0.00    -0.464 OA
BRANCH  21  22
ATOM     22  C   UNL     1      -2.341   4.419  24.643  0.00  0.00    +0.168 C 
ATOM     23  C   UNL     1      -2.176   5.017  25.187  0.00  0.00    +0.044 C 
ATOM     24  C   UNL     1      -1.394   5.198  25.377  0.00  0.00    +0.004 C 
ATOM     25  C   UNL     1      -0.777   4.781  25.023  0.00  0.00    +0.000 C 
ATOM     26  C   UNL     1      -0.941   4.182  24.479  0.00  0.00    +0.004 C 
ATOM     27  C   UNL     1      -1.723   4.001  24.289  0.00  0.00    +0.044 C 
ENDBRANCH  21  22
ENDBRANCH  20  21
ENDBRANCH  14  17
BRANCH  12  11
ATOM      7  N   UNL     1      -3.586  -1.468  24.691  0.00  0.00    -0.263 NA
ATOM      8  C   UNL     1      -3.628  -2.197  24.307  0.00  0.00    +0.073 C 
ATOM      9  C   UNL     1      -4.227  -2.153  23.741  0.00  0.00    +0.019 C 
ATOM     10  C   UNL     1      -4.555  -1.397  23.774  0.00  0.00    +0.027 C 
ATOM     11  C   UNL     1      -4.159  -0.973  24.362  0.00  0.00    +0.138 C 
BRANCH   7   6
ATOM      6  C   UNL     1      -3.064  -1.269  25.296  0.00  0.00    +0.099 C 
BRANCH   6   5
ATOM      1  C   UNL     1       0.104  -2.171  25.111  0.00  0.00    +0.031 C 
ATOM      2  C   UNL     1      -0.688  -1.946  25.157  0.00  0.00    -0.022 A 
ATOM      3  C   UNL     1      -0.888  -1.146  25.185  0.00  0.00    -0.005 A 
ATOM      4  C   UNL     1      -1.680  -0.920  25.232  0.00  0.00    -0.003 A 
ATOM      5  C   UNL     1      -2.272  -1.495  25.250  0.00  0.00    -0.006 A 
ATOM     30  C   UNL     1      -2.072  -2.295  25.221  0.00  0.00    -0.003 A 
ATOM     31  C   UNL     1      -1.279  -2.520  25.175  0.00  0.00    -0.005 A 
ENDBRANCH   6   5
ENDBRANCH   7   6
ENDBRANCH  12  11
TORSDOF 6
ENDMDL
