REMARK  Name = 
REMARK  9 active torsions:
REMARK  status: ('A' for Active; 'I' for Inactive)
REMARK    1  A    between atoms: O_2  and  C_3
REMARK    2  A    between atoms: C_4  and  C_9
REMARK    3  A    between atoms: N_11  and  C_12
REMARK    4  A    between atoms: C_12  and  C_13
REMARK    5  A    between atoms: C_17  and  C_18
REMARK    6  A    between atoms: C_18  and  C_19
REMARK    7  A    between atoms: N_21  and  C_22
REMARK    8  A    between atoms: C_22  and  C_23
REMARK    9  A    between atoms: C_30  and  C_31
REMARK                            x       y       z     vdW  Elec       q    Type
REMARK                         _______ _______ _______ _____ _____    ______ ____
ROOT
ATOM     13  C   UNL     1      -1.429  -1.650   0.000  0.00  0.00    +0.043 C 
ATOM     14  C   UNL     1      -0.715  -1.238   0.000  0.00  0.00    -0.033 C 
ATOM     15  C   UNL     1       0.000  -1.650   0.000  0.00  0.00    -0.048 C 
ATOM     16  C   UNL     1       0.715  -1.238   0.000  0.00  0.00    +0.026 C 
ATOM     17  C   UNL     1       0.000  -2.475   0.000  0.00  0.00    +0.027 C 
ATOM     29  C   UNL     1      -0.715  -2.888   0.000  0.00  0.00    +0.005 C 
ATOM     30  C   UNL     1      -1.429  -2.475   0.000  0.00  0.00    +0.006 C 
ENDROOT
BRANCH  30  31
ATOM     31  C   UNL     1      -2.143  -2.888   0.000  0.00  0.00    +0.000 C 
ATOM     32  C   UNL     1      -2.858  -2.475   0.000  0.00  0.00    +0.000 C 
ATOM     33  C   UNL     1      -2.143  -3.712   0.000  0.00  0.00    +0.000 C 
ENDBRANCH  30  31
BRANCH  13  12
ATOM     12  C   UNL     1      -2.143  -1.238   0.000  0.00  0.00    +0.120 C 
BRANCH  12  11
ATOM      9  C   UNL     1      -3.572  -1.238   0.000  0.00  0.00    +0.268 C 
ATOM     10  O   UNL     1      -3.572  -0.412   0.000  0.00  0.00    -0.268 OA
ATOM     11  N   UNL     1      -2.858  -1.650   0.000  0.00  0.00    -0.201 NA
BRANCH   9   4
ATOM      3  C   UNL     1      -5.001  -1.238   0.000  0.00  0.00    +0.143 A 
ATOM      4  C   UNL     1      -4.287  -1.650   0.000  0.00  0.00    +0.089 A 
ATOM      5  C   UNL     1      -4.287  -2.475   0.000  0.00  0.00    +0.008 A 
ATOM      6  C   UNL     1      -5.001  -2.888   0.000  0.00  0.00    +0.000 A 
ATOM      7  C   UNL     1      -5.716  -2.475   0.000  0.00  0.00    +0.003 A 
ATOM      8  C   UNL     1      -5.716  -1.650   0.000  0.00  0.00    +0.037 A 
BRANCH   3   2
ATOM      1  C   UNL     1      -5.716   0.000   0.000  0.00  0.00    +0.252 C 
ATOM      2  O   UNL     1      -5.001  -0.412   0.000  0.00  0.00    -0.471 OA
ENDBRANCH   3   2
ENDBRANCH   9   4
ENDBRANCH  12  11
ENDBRANCH  13  12
BRANCH  17  18
ATOM     18  C   UNL     1       0.715  -2.888   0.000  0.00  0.00    +0.091 C 
BRANCH  18  19
ATOM     19  C   UNL     1       1.429  -2.475   0.000  0.00  0.00    +0.242 C 
ATOM     20  O   UNL     1       1.429  -1.650   0.000  0.00  0.00    -0.273 OA
ATOM     21  N   UNL     1       2.143  -2.888   0.000  0.00  0.00    -0.199 NA
BRANCH  21  22
ATOM     22  C   UNL     1       2.858  -2.475   0.000  0.00  0.00    +0.160 C 
BRANCH  22  23
ATOM     23  C   UNL     1       3.572  -2.888   0.000  0.00  0.00    +0.081 A 
ATOM     24  N   UNL     1       4.287  -2.475   0.000  0.00  0.00    -0.246 NA
ATOM     25  C   UNL     1       5.001  -2.888   0.000  0.00  0.00    +0.099 A 
ATOM     26  C   UNL     1       5.001  -3.712   0.000  0.00  0.00    +0.021 A 
ATOM     27  C   UNL     1       4.287  -4.125   0.000  0.00  0.00    +0.003 A 
ATOM     28  C   UNL     1       3.572  -3.712   0.000  0.00  0.00    +0.017 A 
ENDBRANCH  22  23
ENDBRANCH  21  22
ENDBRANCH  18  19
ENDBRANCH  17  18
TORSDOF 9
