REMARK  Name = 
REMARK  3 active torsions:
REMARK  status: ('A' for Active; 'I' for Inactive)
REMARK    1  A    between atoms: C_5  and  S_8
REMARK    2  A    between atoms: S_8  and  N_11
REMARK    3  A    between atoms: N_11  and  C_12
REMARK                            x       y       z     vdW  Elec       q    Type
REMARK                         _______ _______ _______ _____ _____    ______ ____
ROOT
ATOM     12  C   UNL     1      -0.929  -0.373   0.000  0.00  0.00    +0.147 A 
ATOM     13  C   UNL     1      -0.298   0.158   0.000  0.00  0.00    +0.024 A 
ATOM     14  C   UNL     1       0.478  -0.123   0.000  0.00  0.00    +0.014 A 
ATOM     15  C   UNL     1       0.622  -0.936   0.000  0.00  0.00    +0.041 A 
ATOM     16  C   UNL     1       1.582  -0.925   0.000  0.00  0.00    +0.056 C 
ATOM     17  C   UNL     1       1.629  -1.912   0.000  0.00  0.00    +0.094 C 
ATOM     18  N   UNL     1       0.813  -2.091   0.000  0.00  0.00    -0.218 NA
ATOM     19  C   UNL     1       1.225  -1.510   0.000  0.00  0.00    +0.091 C 
ATOM     20  C   UNL     1       1.163  -0.557   0.000  0.00  0.00    +0.041 C 
ATOM     21  C   UNL     1       1.713  -0.121   0.000  0.00  0.00    +0.011 C 
ATOM     22  C   UNL     1       0.244  -0.558   0.000  0.00  0.00    +0.110 C 
ATOM     23  N   UNL     1      -0.009  -1.467   0.000  0.00  0.00    -0.298 N 
ATOM     24  C   UNL     1      -0.785  -1.185   0.000  0.00  0.00    +0.277 A 
ATOM     25  O   UNL     1      -1.416  -1.716   0.000  0.00  0.00    -0.266 OA
ENDROOT
BRANCH  12  11
ATOM     11  N   UNL     1      -1.705  -0.092   0.000  0.00  0.00    -0.092 NA
BRANCH  11   8
ATOM      8  S   UNL     1      -2.336  -0.623   0.000  0.00  0.00    +0.093 S 
ATOM      9  O   UNL     1      -1.805  -1.254   0.000  0.00  0.00    -0.148 OA
ATOM     10  O   UNL     1      -2.867   0.009   0.000  0.00  0.00    -0.148 OA
BRANCH   8   5
ATOM      1 CL   UNL     1      -4.862  -2.747   0.000  0.00  0.00    -0.082 Cl
ATOM      2  C   UNL     1      -4.230  -2.216   0.000  0.00  0.00    +0.058 A 
ATOM      3  C   UNL     1      -4.374  -1.404   0.000  0.00  0.00    +0.013 A 
ATOM      4  C   UNL     1      -3.743  -0.873   0.000  0.00  0.00    +0.021 A 
ATOM      5  C   UNL     1      -2.967  -1.154   0.000  0.00  0.00    +0.127 A 
ATOM      6  C   UNL     1      -2.823  -1.966   0.000  0.00  0.00    +0.021 A 
ATOM      7  C   UNL     1      -3.455  -2.497   0.000  0.00  0.00    +0.013 A 
ENDBRANCH   8   5
ENDBRANCH  11   8
ENDBRANCH  12  11
TORSDOF 3
