MODEL 1
REMARK VINA RESULT:      -8.7      0.000      0.000
REMARK  Name = 
REMARK  6 active torsions:
REMARK  status: ('A' for Active; 'I' for Inactive)
REMARK    1  A    between atoms: O_2  and  C_3
REMARK    2  A    between atoms: C_3  and  C_4
REMARK    3  A    between atoms: C_4  and  N_5
REMARK    4  A    between atoms: N_5  and  C_6
REMARK    5  A    between atoms: C_9  and  C_12
REMARK    6  A    between atoms: C_15  and  C_17
REMARK                            x       y       z     vdW  Elec       q    Type
REMARK                         _______ _______ _______ _____ _____    ______ ____
ROOT
ATOM     12  C   UNL     1      -1.054   0.455  24.517  0.00  0.00    +0.205 A 
ATOM     13  N   UNL     1      -1.120   0.832  25.247  0.00  0.00    -0.056 NA
ATOM     14  O   UNL     1      -1.907   0.783  25.489  0.00  0.00    -0.335 OA
ATOM     15  C   UNL     1      -2.327   0.375  24.907  0.00  0.00    +0.255 A 
ATOM     16  N   UNL     1      -1.800   0.173  24.307  0.00  0.00    -0.189 NA
ENDROOT
BRANCH  15  17
ATOM     17  C   UNL     1      -3.133   0.200  24.925  0.00  0.00    +0.155 C 
ATOM     18  C   UNL     1      -3.467  -0.533  25.098  0.00  0.00    +0.031 C 
ATOM     19  C   UNL     1      -4.288  -0.456  25.052  0.00  0.00    +0.024 C 
ATOM     20  C   UNL     1      -4.460   0.325  24.851  0.00  0.00    +0.094 C 
ATOM     21  N   UNL     1      -3.747   0.731  24.772  0.00  0.00    -0.271 N 
ATOM     22  C   UNL     1      -3.661   1.528  24.575  0.00  0.00    +0.221 A 
ATOM     23  N   UNL     1      -4.329   1.992  24.437  0.00  0.00    -0.212 NA
ATOM     24  C   UNL     1      -4.244   2.789  24.240  0.00  0.00    +0.103 A 
ATOM     25  C   UNL     1      -3.490   3.121  24.181  0.00  0.00    +0.041 A 
ATOM     26  C   UNL     1      -2.823   2.656  24.319  0.00  0.00    +0.103 A 
ATOM     27  N   UNL     1      -2.909   1.859  24.516  0.00  0.00    -0.212 NA
ENDBRANCH  15  17
BRANCH  12   9
ATOM      6  C   UNL     1       1.020   0.214  23.187  0.00  0.00    +0.148 A 
ATOM      7  C   UNL     1       0.579  -0.453  23.387  0.00  0.00    +0.036 A 
ATOM      8  C   UNL     1      -0.112  -0.372  23.830  0.00  0.00    +0.008 A 
ATOM      9  C   UNL     1      -0.362   0.375  24.074  0.00  0.00    +0.058 A 
ATOM     10  C   UNL     1       0.080   1.043  23.874  0.00  0.00    +0.103 A 
ATOM     11  N   UNL     1       0.771   0.963  23.430  0.00  0.00    -0.228 NA
BRANCH   6   5
ATOM      5  N   UNL     1       1.711   0.134  22.744  0.00  0.00    -0.218 NA
BRANCH   5   4
ATOM      4  C   UNL     1       2.408   0.501  22.995  0.00  0.00    +0.146 C 
BRANCH   4   3
ATOM      3  C   UNL     1       3.121   0.336  22.614  0.00  0.00    +0.166 C 
BRANCH   3   2
ATOM      1  C   UNL     1       4.523   0.477  22.845  0.00  0.00    +0.174 C 
ATOM      2  O   UNL     1       3.778   0.817  22.745  0.00  0.00    -0.349 OA
ENDBRANCH   3   2
ENDBRANCH   4   3
ENDBRANCH   5   4
ENDBRANCH   6   5
ENDBRANCH  12   9
TORSDOF 6
ENDMDL
MODEL 2
REMARK VINA RESULT:      -8.6      0.982      2.110
REMARK  Name = 
REMARK  6 active torsions:
REMARK  status: ('A' for Active; 'I' for Inactive)
REMARK    1  A    between atoms: O_2  and  C_3
REMARK    2  A    between atoms: C_3  and  C_4
REMARK    3  A    between atoms: C_4  and  N_5
REMARK    4  A    between atoms: N_5  and  C_6
REMARK    5  A    between atoms: C_9  and  C_12
REMARK    6  A    between atoms: C_15  and  C_17
REMARK                            x       y       z     vdW  Elec       q    Type
REMARK                         _______ _______ _______ _____ _____    ______ ____
ROOT
ATOM     12  C   UNL     1      -0.969   0.146  24.408  0.00  0.00    +0.205 A 
ATOM     13  N   UNL     1      -1.039  -0.105  25.191  0.00  0.00    -0.056 NA
ATOM     14  O   UNL     1      -1.833  -0.055  25.405  0.00  0.00    -0.335 OA
ATOM     15  C   UNL     1      -2.256   0.228  24.754  0.00  0.00    +0.255 A 
ATOM     16  N   UNL     1      -1.721   0.352  24.139  0.00  0.00    -0.189 NA
ENDROOT
BRANCH  15  17
ATOM     17  C   UNL     1      -3.069   0.362  24.726  0.00  0.00    +0.155 C 
ATOM     18  C   UNL     1      -3.442   1.095  24.786  0.00  0.00    +0.031 C 
ATOM     19  C   UNL     1      -4.257   0.971  24.730  0.00  0.00    +0.024 C 
ATOM     20  C   UNL     1      -4.385   0.162  24.635  0.00  0.00    +0.094 C 
ATOM     21  N   UNL     1      -3.653  -0.215  24.633  0.00  0.00    -0.271 N 
ATOM     22  C   UNL     1      -3.523  -1.026  24.552  0.00  0.00    +0.221 A 
ATOM     23  N   UNL     1      -4.164  -1.538  24.462  0.00  0.00    -0.212 NA
ATOM     24  C   UNL     1      -4.036  -2.349  24.381  0.00  0.00    +0.103 A 
ATOM     25  C   UNL     1      -3.266  -2.648  24.389  0.00  0.00    +0.041 A 
ATOM     26  C   UNL     1      -2.626  -2.135  24.478  0.00  0.00    +0.103 A 
ATOM     27  N   UNL     1      -2.755  -1.324  24.559  0.00  0.00    -0.212 NA
ENDBRANCH  15  17
BRANCH  12   9
ATOM      6  C   UNL     1       1.128   0.263  23.099  0.00  0.00    +0.148 A 
ATOM      7  C   UNL     1       0.740  -0.459  23.193  0.00  0.00    +0.036 A 
ATOM      8  C   UNL     1       0.042  -0.498  23.630  0.00  0.00    +0.008 A 
ATOM      9  C   UNL     1      -0.270   0.185  23.972  0.00  0.00    +0.058 A 
ATOM     10  C   UNL     1       0.118   0.908  23.877  0.00  0.00    +0.103 A 
ATOM     11  N   UNL     1       0.816   0.946  23.440  0.00  0.00    -0.228 NA
BRANCH   6   5
ATOM      5  N   UNL     1       1.826   0.301  22.662  0.00  0.00    -0.218 NA
BRANCH   5   4
ATOM      4  C   UNL     1       2.546   0.431  23.045  0.00  0.00    +0.146 C 
BRANCH   4   3
ATOM      3  C   UNL     1       3.250   0.430  22.614  0.00  0.00    +0.166 C 
BRANCH   3   2
ATOM      1  C   UNL     1       4.621   0.522  23.001  0.00  0.00    +0.174 C 
ATOM      2  O   UNL     1       3.890   0.881  22.870  0.00  0.00    -0.349 OA
ENDBRANCH   3   2
ENDBRANCH   4   3
ENDBRANCH   5   4
ENDBRANCH   6   5
ENDBRANCH  12   9
TORSDOF 6
ENDMDL
MODEL 3
REMARK VINA RESULT:      -8.5      3.053      4.590
REMARK  Name = 
REMARK  6 active torsions:
REMARK  status: ('A' for Active; 'I' for Inactive)
REMARK    1  A    between atoms: O_2  and  C_3
REMARK    2  A    between atoms: C_3  and  C_4
REMARK    3  A    between atoms: C_4  and  N_5
REMARK    4  A    between atoms: N_5  and  C_6
REMARK    5  A    between atoms: C_9  and  C_12
REMARK    6  A    between atoms: C_15  and  C_17
REMARK                            x       y       z     vdW  Elec       q    Type
REMARK                         _______ _______ _______ _____ _____    ______ ____
ROOT
ATOM     12  C   UNL     1      -3.659   0.496  24.971  0.00  0.00    +0.205 A 
ATOM     13  N   UNL     1      -3.851   0.118  25.679  0.00  0.00    -0.056 NA
ATOM     14  O   UNL     1      -3.939  -0.686  25.523  0.00  0.00    -0.335 OA
ATOM     15  C   UNL     1      -3.802  -0.807  24.718  0.00  0.00    +0.255 A 
ATOM     16  N   UNL     1      -3.629  -0.076  24.378  0.00  0.00    -0.189 NA
ENDROOT
BRANCH  15  17
ATOM     17  C   UNL     1      -3.833  -1.531  24.325  0.00  0.00    +0.155 C 
ATOM     18  C   UNL     1      -4.482  -1.836  23.919  0.00  0.00    +0.031 C 
ATOM     19  C   UNL     1      -4.269  -2.572  23.612  0.00  0.00    +0.024 C 
ATOM     20  C   UNL     1      -3.487  -2.721  23.829  0.00  0.00    +0.094 C 
ATOM     21  N   UNL     1      -3.217  -2.079  24.269  0.00  0.00    -0.271 N 
ATOM     22  C   UNL     1      -2.465  -1.997  24.597  0.00  0.00    +0.221 A 
ATOM     23  N   UNL     1      -1.904  -2.594  24.495  0.00  0.00    -0.212 NA
ATOM     24  C   UNL     1      -1.151  -2.512  24.823  0.00  0.00    +0.103 A 
ATOM     25  C   UNL     1      -0.959  -1.834  25.252  0.00  0.00    +0.041 A 
ATOM     26  C   UNL     1      -1.520  -1.238  25.354  0.00  0.00    +0.103 A 
ATOM     27  N   UNL     1      -2.273  -1.320  25.026  0.00  0.00    -0.212 NA
ENDBRANCH  15  17
BRANCH  12   9
ATOM      6  C   UNL     1      -3.246   2.918  24.679  0.00  0.00    +0.148 A 
ATOM      7  C   UNL     1      -3.991   2.652  24.911  0.00  0.00    +0.036 A 
ATOM      8  C   UNL     1      -4.128   1.845  25.008  0.00  0.00    +0.008 A 
ATOM      9  C   UNL     1      -3.521   1.303  24.874  0.00  0.00    +0.058 A 
ATOM     10  C   UNL     1      -2.775   1.570  24.642  0.00  0.00    +0.103 A 
ATOM     11  N   UNL     1      -2.637   2.378  24.545  0.00  0.00    -0.228 NA
BRANCH   6   5
ATOM      5  N   UNL     1      -3.108   3.726  24.582  0.00  0.00    -0.218 NA
BRANCH   5   4
ATOM      4  C   UNL     1      -2.550   4.110  25.054  0.00  0.00    +0.146 C 
BRANCH   4   3
ATOM      3  C   UNL     1      -2.260   4.849  24.832  0.00  0.00    +0.166 C 
BRANCH   3   2
ATOM      1  C   UNL     1      -0.919   5.332  24.928  0.00  0.00    +0.174 C 
ATOM      2  O   UNL     1      -1.659   5.205  25.271  0.00  0.00    -0.349 OA
ENDBRANCH   3   2
ENDBRANCH   4   3
ENDBRANCH   5   4
ENDBRANCH   6   5
ENDBRANCH  12   9
TORSDOF 6
ENDMDL
MODEL 4
REMARK VINA RESULT:      -8.5      1.519      2.130
REMARK  Name = 
REMARK  6 active torsions:
REMARK  status: ('A' for Active; 'I' for Inactive)
REMARK    1  A    between atoms: O_2  and  C_3
REMARK    2  A    between atoms: C_3  and  C_4
REMARK    3  A    between atoms: C_4  and  N_5
REMARK    4  A    between atoms: N_5  and  C_6
REMARK    5  A    between atoms: C_9  and  C_12
REMARK    6  A    between atoms: C_15  and  C_17
REMARK                            x       y       z     vdW  Elec       q    Type
REMARK                         _______ _______ _______ _____ _____    ______ ____
ROOT
ATOM     12  C   UNL     1      -2.642   1.524  23.911  0.00  0.00    +0.205 A 
ATOM     13  N   UNL     1      -2.939   2.064  23.363  0.00  0.00    -0.056 NA
ATOM     14  O   UNL     1      -3.674   2.324  23.632  0.00  0.00    -0.335 OA
ATOM     15  C   UNL     1      -3.832   1.943  24.348  0.00  0.00    +0.255 A 
ATOM     16  N   UNL     1      -3.194   1.450  24.520  0.00  0.00    -0.189 NA
ENDROOT
BRANCH  15  17
ATOM     17  C   UNL     1      -4.509   2.041  24.809  0.00  0.00    +0.155 C 
ATOM     18  C   UNL     1      -5.186   1.572  24.782  0.00  0.00    +0.031 C 
ATOM     19  C   UNL     1      -5.723   1.868  25.335  0.00  0.00    +0.024 C 
ATOM     20  C   UNL     1      -5.376   2.519  25.703  0.00  0.00    +0.094 C 
ATOM     21  N   UNL     1      -4.626   2.627  25.379  0.00  0.00    -0.271 N 
ATOM     22  C   UNL     1      -4.087   3.216  25.586  0.00  0.00    +0.221 A 
ATOM     23  N   UNL     1      -4.283   3.767  26.169  0.00  0.00    -0.212 NA
ATOM     24  C   UNL     1      -3.744   4.357  26.377  0.00  0.00    +0.103 A 
ATOM     25  C   UNL     1      -3.010   4.395  26.001  0.00  0.00    +0.041 A 
ATOM     26  C   UNL     1      -2.815   3.845  25.419  0.00  0.00    +0.103 A 
ATOM     27  N   UNL     1      -3.354   3.255  25.212  0.00  0.00    -0.212 NA
ENDBRANCH  15  17
BRANCH  12   9
ATOM      6  C   UNL     1      -0.477   0.336  23.758  0.00  0.00    +0.148 A 
ATOM      7  C   UNL     1      -1.116  -0.021  24.137  0.00  0.00    +0.036 A 
ATOM      8  C   UNL     1      -1.838   0.376  24.188  0.00  0.00    +0.008 A 
ATOM      9  C   UNL     1      -1.920   1.128  23.860  0.00  0.00    +0.058 A 
ATOM     10  C   UNL     1      -1.280   1.484  23.480  0.00  0.00    +0.103 A 
ATOM     11  N   UNL     1      -0.558   1.088  23.429  0.00  0.00    -0.228 NA
BRANCH   6   5
ATOM      5  N   UNL     1       0.245  -0.061  23.706  0.00  0.00    -0.218 NA
BRANCH   5   4
ATOM      4  C   UNL     1       0.773   0.119  23.097  0.00  0.00    +0.146 C 
BRANCH   4   3
ATOM      3  C   UNL     1       1.529  -0.209  23.096  0.00  0.00    +0.166 C 
BRANCH   3   2
ATOM      1  C   UNL     1       2.789   0.165  22.535  0.00  0.00    +0.174 C 
ATOM      2  O   UNL     1       2.018  -0.115  22.439  0.00  0.00    -0.349 OA
ENDBRANCH   3   2
ENDBRANCH   4   3
ENDBRANCH   5   4
ENDBRANCH   6   5
ENDBRANCH  12   9
TORSDOF 6
ENDMDL
MODEL 5
REMARK VINA RESULT:      -8.4      3.150      4.766
REMARK  Name = 
REMARK  6 active torsions:
REMARK  status: ('A' for Active; 'I' for Inactive)
REMARK    1  A    between atoms: O_2  and  C_3
REMARK    2  A    between atoms: C_3  and  C_4
REMARK    3  A    between atoms: C_4  and  N_5
REMARK    4  A    between atoms: N_5  and  C_6
REMARK    5  A    between atoms: C_9  and  C_12
REMARK    6  A    between atoms: C_15  and  C_17
REMARK                            x       y       z     vdW  Elec       q    Type
REMARK                         _______ _______ _______ _____ _____    ______ ____
ROOT
ATOM     12  C   UNL     1      -3.725   1.847  24.354  0.00  0.00    +0.205 A 
ATOM     13  N   UNL     1      -3.738   2.402  23.744  0.00  0.00    -0.056 NA
ATOM     14  O   UNL     1      -3.555   3.139  24.064  0.00  0.00    -0.335 OA
ATOM     15  C   UNL     1      -3.430   3.040  24.875  0.00  0.00    +0.255 A 
ATOM     16  N   UNL     1      -3.535   2.242  25.052  0.00  0.00    -0.189 NA
ENDROOT
BRANCH  15  17
ATOM     17  C   UNL     1      -3.234   3.636  25.411  0.00  0.00    +0.155 C 
ATOM     18  C   UNL     1      -3.754   4.013  25.928  0.00  0.00    +0.031 C 
ATOM     19  C   UNL     1      -3.323   4.570  26.360  0.00  0.00    +0.024 C 
ATOM     20  C   UNL     1      -2.538   4.535  26.109  0.00  0.00    +0.094 C 
ATOM     21  N   UNL     1      -2.482   3.959  25.523  0.00  0.00    -0.271 N 
ATOM     22  C   UNL     1      -1.797   3.741  25.118  0.00  0.00    +0.221 A 
ATOM     23  N   UNL     1      -1.081   4.115  25.291  0.00  0.00    -0.212 NA
ATOM     24  C   UNL     1      -0.395   3.898  24.887  0.00  0.00    +0.103 A 
ATOM     25  C   UNL     1      -0.425   3.308  24.311  0.00  0.00    +0.041 A 
ATOM     26  C   UNL     1      -1.140   2.935  24.139  0.00  0.00    +0.103 A 
ATOM     27  N   UNL     1      -1.826   3.152  24.543  0.00  0.00    -0.212 NA
ENDBRANCH  15  17
BRANCH  12   9
ATOM      6  C   UNL     1      -4.179  -0.575  24.128  0.00  0.00    +0.148 A 
ATOM      7  C   UNL     1      -4.496  -0.154  24.761  0.00  0.00    +0.036 A 
ATOM      8  C   UNL     1      -4.345   0.653  24.837  0.00  0.00    +0.008 A 
ATOM      9  C   UNL     1      -3.876   1.040  24.278  0.00  0.00    +0.058 A 
ATOM     10  C   UNL     1      -3.559   0.618  23.644  0.00  0.00    +0.103 A 
ATOM     11  N   UNL     1      -3.710  -0.190  23.568  0.00  0.00    -0.228 NA
BRANCH   6   5
ATOM      5  N   UNL     1      -4.330  -1.383  24.052  0.00  0.00    -0.218 NA
BRANCH   5   4
ATOM      4  C   UNL     1      -3.824  -1.932  24.405  0.00  0.00    +0.146 C 
BRANCH   4   3
ATOM      3  C   UNL     1      -3.872  -2.729  24.197  0.00  0.00    +0.166 C 
BRANCH   3   2
ATOM      1  C   UNL     1      -2.622  -3.342  24.517  0.00  0.00    +0.174 C 
ATOM      2  O   UNL     1      -3.439  -3.291  24.618  0.00  0.00    -0.349 OA
ENDBRANCH   3   2
ENDBRANCH   4   3
ENDBRANCH   5   4
ENDBRANCH   6   5
ENDBRANCH  12   9
TORSDOF 6
ENDMDL
