MODEL 1
REMARK VINA RESULT:     -11.8      0.000      0.000
REMARK  Name = 
REMARK  6 active torsions:
REMARK  status: ('A' for Active; 'I' for Inactive)
REMARK    1  A    between atoms: C_3  and  N_4
REMARK    2  A    between atoms: N_7  and  C_8
REMARK    3  A    between atoms: C_8  and  C_9
REMARK    4  A    between atoms: C_16  and  N_17
REMARK    5  A    between atoms: C_20  and  C_21
REMARK    6  A    between atoms: C_21  and  C_22
REMARK                            x       y       z     vdW  Elec       q    Type
REMARK                         _______ _______ _______ _____ _____    ______ ____
ROOT
ATOM      1  O   UNL     1      -2.799   1.131  25.172  0.00  0.00    -0.220 OA
ATOM      2  C   UNL     1      -3.324   1.763  25.099  0.00  0.00    +0.194 C 
ATOM      3  C   UNL     1      -3.617   2.537  25.130  0.00  0.00    +0.158 C 
ATOM     11  C   UNL     1      -4.473   2.377  24.806  0.00  0.00    +0.170 C 
ATOM     12  C   UNL     1      -4.625   1.636  24.625  0.00  0.00    +0.176 C 
ATOM     13  O   UNL     1      -5.122   1.171  24.373  0.00  0.00    -0.327 OA
ATOM     14  C   UNL     1      -4.785   1.947  24.623  0.00  0.00    +0.253 C 
ATOM     15  O   UNL     1      -5.079   2.718  24.654  0.00  0.00    -0.327 OA
ATOM     16  C   UNL     1      -3.888   2.100  24.961  0.00  0.00    +0.147 C 
ENDROOT
BRANCH  16  17
ATOM     17  N   UNL     1      -3.990   1.300  24.788  0.00  0.00    -0.268 NA
ATOM     18  C   UNL     1      -3.778   1.007  24.046  0.00  0.00    +0.072 C 
ATOM     19  C   UNL     1      -3.880   0.207  23.873  0.00  0.00    +0.018 C 
ATOM     20  C   UNL     1      -4.194  -0.301  24.442  0.00  0.00    +0.007 C 
ATOM     28  C   UNL     1      -4.405  -0.009  25.184  0.00  0.00    +0.018 C 
ATOM     29  C   UNL     1      -4.303   0.791  25.357  0.00  0.00    +0.072 C 
BRANCH  20  21
ATOM     21  C   UNL     1      -4.296  -1.101  24.270  0.00  0.00    +0.026 C 
BRANCH  21  22
ATOM     22  C   UNL     1      -3.730  -1.652  24.511  0.00  0.00    -0.022 A 
ATOM     23  C   UNL     1      -3.113  -1.857  24.006  0.00  0.00    -0.004 A 
ATOM     24  C   UNL     1      -2.547  -2.408  24.247  0.00  0.00    -0.000 A 
ATOM     25  C   UNL     1      -2.601  -2.753  24.995  0.00  0.00    -0.000 A 
ATOM     26  C   UNL     1      -3.219  -2.547  25.501  0.00  0.00    -0.000 A 
ATOM     27  C   UNL     1      -3.784  -1.997  25.259  0.00  0.00    -0.004 A 
ENDBRANCH  21  22
ENDBRANCH  20  21
ENDBRANCH  16  17
BRANCH   3   4
ATOM      4  N   UNL     1      -3.257   3.239  25.376  0.00  0.00    -0.184 NA
ATOM      5  C   UNL     1      -2.603   3.531  24.967  0.00  0.00    +0.340 C 
ATOM      6  O   UNL     1      -2.307   3.122  24.314  0.00  0.00    -0.249 OA
ATOM      7  N   UNL     1      -2.244   4.232  25.212  0.00  0.00    -0.182 NA
BRANCH   7   8
ATOM      8  C   UNL     1      -1.589   4.524  24.804  0.00  0.00    +0.143 C 
BRANCH   8   9
ATOM      9  C   UNL     1      -1.277   5.263  24.999  0.00  0.00    -0.003 C 
ATOM     10  C   UNL     1      -0.595   5.534  24.624  0.00  0.00    -0.003 C 
ENDBRANCH   8   9
ENDBRANCH   7   8
ENDBRANCH   3   4
TORSDOF 6
ENDMDL
MODEL 2
REMARK VINA RESULT:     -11.5      0.979      4.848
REMARK  Name = 
REMARK  6 active torsions:
REMARK  status: ('A' for Active; 'I' for Inactive)
REMARK    1  A    between atoms: C_3  and  N_4
REMARK    2  A    between atoms: N_7  and  C_8
REMARK    3  A    between atoms: C_8  and  C_9
REMARK    4  A    between atoms: C_16  and  N_17
REMARK    5  A    between atoms: C_20  and  C_21
REMARK    6  A    between atoms: C_21  and  C_22
REMARK                            x       y       z     vdW  Elec       q    Type
REMARK                         _______ _______ _______ _____ _____    ______ ____
ROOT
ATOM      1  O   UNL     1      -2.958   1.861  24.426  0.00  0.00    -0.220 OA
ATOM      2  C   UNL     1      -3.743   1.635  24.537  0.00  0.00    +0.194 C 
ATOM      3  C   UNL     1      -4.432   1.175  24.505  0.00  0.00    +0.158 C 
ATOM     11  C   UNL     1      -5.006   1.750  24.954  0.00  0.00    +0.170 C 
ATOM     12  C   UNL     1      -4.686   2.417  25.195  0.00  0.00    +0.176 C 
ATOM     13  O   UNL     1      -4.800   3.046  25.539  0.00  0.00    -0.327 OA
ATOM     14  C   UNL     1      -4.997   2.254  25.202  0.00  0.00    +0.253 C 
ATOM     15  O   UNL     1      -5.683   1.798  25.171  0.00  0.00    -0.327 OA
ATOM     16  C   UNL     1      -4.384   1.663  24.734  0.00  0.00    +0.147 C 
ENDROOT
BRANCH  16  17
ATOM     17  N   UNL     1      -3.990   2.351  24.963  0.00  0.00    -0.268 NA
ATOM     18  C   UNL     1      -3.959   2.999  24.453  0.00  0.00    +0.072 C 
ATOM     19  C   UNL     1      -3.564   3.686  24.682  0.00  0.00    +0.018 C 
ATOM     20  C   UNL     1      -3.201   3.725  25.421  0.00  0.00    +0.007 C 
ATOM     28  C   UNL     1      -3.231   3.078  25.932  0.00  0.00    +0.018 C 
ATOM     29  C   UNL     1      -3.626   2.391  25.702  0.00  0.00    +0.072 C 
BRANCH  20  21
ATOM     21  C   UNL     1      -2.806   4.412  25.651  0.00  0.00    +0.026 C 
BRANCH  21  22
ATOM     22  C   UNL     1      -2.038   4.556  25.387  0.00  0.00    -0.022 A 
ATOM     23  C   UNL     1      -1.424   4.054  25.612  0.00  0.00    -0.004 A 
ATOM     24  C   UNL     1      -0.655   4.198  25.348  0.00  0.00    -0.000 A 
ATOM     25  C   UNL     1      -0.502   4.845  24.859  0.00  0.00    -0.000 A 
ATOM     26  C   UNL     1      -1.116   5.348  24.634  0.00  0.00    -0.000 A 
ATOM     27  C   UNL     1      -1.884   5.203  24.899  0.00  0.00    -0.004 A 
ENDBRANCH  21  22
ENDBRANCH  20  21
ENDBRANCH  16  17
BRANCH   3   4
ATOM      4  N   UNL     1      -4.566   0.430  24.173  0.00  0.00    -0.184 NA
ATOM      5  C   UNL     1      -4.192  -0.235  24.487  0.00  0.00    +0.340 C 
ATOM      6  O   UNL     1      -3.683  -0.155  25.133  0.00  0.00    -0.249 OA
ATOM      7  N   UNL     1      -4.326  -0.978  24.156  0.00  0.00    -0.182 NA
BRANCH   7   8
ATOM      8  C   UNL     1      -3.951  -1.643  24.470  0.00  0.00    +0.143 C 
BRANCH   8   9
ATOM      9  C   UNL     1      -3.977  -2.361  24.065  0.00  0.00    -0.003 C 
ATOM     10  C   UNL     1      -3.619  -3.029  24.388  0.00  0.00    -0.003 C 
ENDBRANCH   8   9
ENDBRANCH   7   8
ENDBRANCH   3   4
TORSDOF 6
ENDMDL
MODEL 3
REMARK VINA RESULT:     -10.6      3.363      3.846
REMARK  Name = 
REMARK  6 active torsions:
REMARK  status: ('A' for Active; 'I' for Inactive)
REMARK    1  A    between atoms: C_3  and  N_4
REMARK    2  A    between atoms: N_7  and  C_8
REMARK    3  A    between atoms: C_8  and  C_9
REMARK    4  A    between atoms: C_16  and  N_17
REMARK    5  A    between atoms: C_20  and  C_21
REMARK    6  A    between atoms: C_21  and  C_22
REMARK                            x       y       z     vdW  Elec       q    Type
REMARK                         _______ _______ _______ _____ _____    ______ ____
ROOT
ATOM      1  O   UNL     1      -1.073  -0.200  23.621  0.00  0.00    -0.220 OA
ATOM      2  C   UNL     1      -0.638   0.384  24.009  0.00  0.00    +0.194 C 
ATOM      3  C   UNL     1      -0.041   0.940  24.156  0.00  0.00    +0.158 C 
ATOM     11  C   UNL     1      -0.332   1.243  24.984  0.00  0.00    +0.170 C 
ATOM     12  C   UNL     1      -0.983   0.909  25.249  0.00  0.00    +0.176 C 
ATOM     13  O   UNL     1      -1.464   0.883  25.792  0.00  0.00    -0.327 OA
ATOM     14  C   UNL     1      -0.750   1.152  25.348  0.00  0.00    +0.253 C 
ATOM     15  O   UNL     1      -0.157   1.706  25.497  0.00  0.00    -0.327 OA
ATOM     16  C   UNL     1      -0.458   0.825  24.482  0.00  0.00    +0.147 C 
ENDROOT
BRANCH  16  17
ATOM     17  N   UNL     1      -1.149   0.436  24.710  0.00  0.00    -0.268 NA
ATOM     18  C   UNL     1      -1.883   0.717  24.459  0.00  0.00    +0.072 C 
ATOM     19  C   UNL     1      -2.574   0.328  24.686  0.00  0.00    +0.018 C 
ATOM     20  C   UNL     1      -2.530  -0.343  25.165  0.00  0.00    +0.007 C 
ATOM     28  C   UNL     1      -1.797  -0.624  25.416  0.00  0.00    +0.018 C 
ATOM     29  C   UNL     1      -1.106  -0.235  25.188  0.00  0.00    +0.072 C 
BRANCH  20  21
ATOM     21  C   UNL     1      -3.221  -0.733  25.393  0.00  0.00    +0.026 C 
BRANCH  21  22
ATOM     22  C   UNL     1      -3.521  -1.347  24.931  0.00  0.00    -0.022 A 
ATOM     23  C   UNL     1      -3.297  -2.126  25.083  0.00  0.00    -0.004 A 
ATOM     24  C   UNL     1      -3.596  -2.740  24.622  0.00  0.00    -0.000 A 
ATOM     25  C   UNL     1      -4.122  -2.575  24.007  0.00  0.00    -0.000 A 
ATOM     26  C   UNL     1      -4.347  -1.796  23.854  0.00  0.00    -0.000 A 
ATOM     27  C   UNL     1      -4.046  -1.182  24.316  0.00  0.00    -0.004 A 
ENDBRANCH  21  22
ENDBRANCH  20  21
ENDBRANCH  16  17
BRANCH   3   4
ATOM      4  N   UNL     1       0.614   1.158  23.703  0.00  0.00    -0.184 NA
ATOM      5  C   UNL     1       1.186   0.596  23.508  0.00  0.00    +0.340 C 
ATOM      6  O   UNL     1       1.103  -0.184  23.767  0.00  0.00    -0.249 OA
ATOM      7  N   UNL     1       1.841   0.813  23.056  0.00  0.00    -0.182 NA
BRANCH   7   8
ATOM      8  C   UNL     1       2.413   0.251  22.862  0.00  0.00    +0.143 C 
BRANCH   8   9
ATOM      9  C   UNL     1       3.037   0.454  22.362  0.00  0.00    -0.003 C 
ATOM     10  C   UNL     1       3.804   0.506  22.660  0.00  0.00    -0.003 C 
ENDBRANCH   8   9
ENDBRANCH   7   8
ENDBRANCH   3   4
TORSDOF 6
ENDMDL
MODEL 4
REMARK VINA RESULT:     -10.4      2.391      5.561
REMARK  Name = 
REMARK  6 active torsions:
REMARK  status: ('A' for Active; 'I' for Inactive)
REMARK    1  A    between atoms: C_3  and  N_4
REMARK    2  A    between atoms: N_7  and  C_8
REMARK    3  A    between atoms: C_8  and  C_9
REMARK    4  A    between atoms: C_16  and  N_17
REMARK    5  A    between atoms: C_20  and  C_21
REMARK    6  A    between atoms: C_21  and  C_22
REMARK                            x       y       z     vdW  Elec       q    Type
REMARK                         _______ _______ _______ _____ _____    ______ ____
ROOT
ATOM      1  O   UNL     1      -1.668   1.029  25.605  0.00  0.00    -0.220 OA
ATOM      2  C   UNL     1      -1.266   0.515  25.100  0.00  0.00    +0.194 C 
ATOM      3  C   UNL     1      -1.064  -0.183  24.702  0.00  0.00    +0.158 C 
ATOM     11  C   UNL     1      -0.344   0.140  24.210  0.00  0.00    +0.170 C 
ATOM     12  C   UNL     1      -0.178   0.892  24.321  0.00  0.00    +0.176 C 
ATOM     13  O   UNL     1       0.260   1.441  24.139  0.00  0.00    -0.327 OA
ATOM     14  C   UNL     1      -0.061   0.619  24.134  0.00  0.00    +0.253 C 
ATOM     15  O   UNL     1       0.142  -0.075  23.736  0.00  0.00    -0.327 OA
ATOM     16  C   UNL     1      -0.815   0.296  24.654  0.00  0.00    +0.147 C 
ENDROOT
BRANCH  16  17
ATOM     17  N   UNL     1      -0.688   1.096  24.812  0.00  0.00    -0.268 NA
ATOM     18  C   UNL     1      -0.908   1.667  24.259  0.00  0.00    +0.072 C 
ATOM     19  C   UNL     1      -0.780   2.466  24.417  0.00  0.00    +0.018 C 
ATOM     20  C   UNL     1      -0.432   2.695  25.129  0.00  0.00    +0.007 C 
ATOM     28  C   UNL     1      -0.212   2.125  25.683  0.00  0.00    +0.018 C 
ATOM     29  C   UNL     1      -0.339   1.325  25.524  0.00  0.00    +0.072 C 
BRANCH  20  21
ATOM     21  C   UNL     1      -0.304   3.494  25.288  0.00  0.00    +0.026 C 
BRANCH  21  22
ATOM     22  C   UNL     1      -0.940   4.020  25.306  0.00  0.00    -0.022 A 
ATOM     23  C   UNL     1      -1.550   3.912  25.849  0.00  0.00    -0.004 A 
ATOM     24  C   UNL     1      -2.186   4.438  25.866  0.00  0.00    -0.000 A 
ATOM     25  C   UNL     1      -2.211   5.071  25.338  0.00  0.00    -0.000 A 
ATOM     26  C   UNL     1      -1.600   5.179  24.794  0.00  0.00    -0.000 A 
ATOM     27  C   UNL     1      -0.965   4.654  24.777  0.00  0.00    -0.004 A 
ENDBRANCH  21  22
ENDBRANCH  20  21
ENDBRANCH  16  17
BRANCH   3   4
ATOM      4  N   UNL     1      -1.400  -0.936  24.732  0.00  0.00    -0.184 NA
ATOM      5  C   UNL     1      -2.186  -1.046  24.504  0.00  0.00    +0.340 C 
ATOM      6  O   UNL     1      -2.635  -0.403  24.246  0.00  0.00    -0.249 OA
ATOM      7  N   UNL     1      -2.522  -1.799  24.534  0.00  0.00    -0.182 NA
BRANCH   7   8
ATOM      8  C   UNL     1      -3.307  -1.909  24.307  0.00  0.00    +0.143 C 
BRANCH   8   9
ATOM      9  C   UNL     1      -3.641  -2.663  24.327  0.00  0.00    -0.003 C 
ATOM     10  C   UNL     1      -4.331  -2.820  23.904  0.00  0.00    -0.003 C 
ENDBRANCH   8   9
ENDBRANCH   7   8
ENDBRANCH   3   4
TORSDOF 6
ENDMDL
MODEL 5
REMARK VINA RESULT:     -10.3      2.300      2.970
REMARK  Name = 
REMARK  6 active torsions:
REMARK  status: ('A' for Active; 'I' for Inactive)
REMARK    1  A    between atoms: C_3  and  N_4
REMARK    2  A    between atoms: N_7  and  C_8
REMARK    3  A    between atoms: C_8  and  C_9
REMARK    4  A    between atoms: C_16  and  N_17
REMARK    5  A    between atoms: C_20  and  C_21
REMARK    6  A    between atoms: C_21  and  C_22
REMARK                            x       y       z     vdW  Elec       q    Type
REMARK                         _______ _______ _______ _____ _____    ______ ____
ROOT
ATOM      1  O   UNL     1      -1.657   0.541  25.564  0.00  0.00    -0.220 OA
ATOM      2  C   UNL     1      -1.040   0.929  25.177  0.00  0.00    +0.194 C 
ATOM      3  C   UNL     1      -0.518   1.535  24.959  0.00  0.00    +0.158 C 
ATOM     11  C   UNL     1      -0.013   1.067  24.335  0.00  0.00    +0.170 C 
ATOM     12  C   UNL     1      -0.222   0.326  24.227  0.00  0.00    +0.176 C 
ATOM     13  O   UNL     1      -0.085  -0.289  23.867  0.00  0.00    -0.327 OA
ATOM     14  C   UNL     1       0.016   0.554  24.109  0.00  0.00    +0.253 C 
ATOM     15  O   UNL     1       0.536   1.156  23.890  0.00  0.00    -0.327 OA
ATOM     16  C   UNL     1      -0.521   1.030  24.763  0.00  0.00    +0.147 C 
ENDROOT
BRANCH  16  17
ATOM     17  N   UNL     1      -0.789   0.253  24.693  0.00  0.00    -0.268 NA
ATOM     18  C   UNL     1      -1.307   0.048  24.085  0.00  0.00    +0.072 C 
ATOM     19  C   UNL     1      -1.575  -0.729  24.014  0.00  0.00    +0.018 C 
ATOM     20  C   UNL     1      -1.325  -1.301  24.553  0.00  0.00    +0.007 C 
ATOM     28  C   UNL     1      -0.807  -1.098  25.161  0.00  0.00    +0.018 C 
ATOM     29  C   UNL     1      -0.539  -0.321  25.231  0.00  0.00    +0.072 C 
BRANCH  20  21
ATOM     21  C   UNL     1      -1.592  -2.079  24.483  0.00  0.00    +0.026 C 
BRANCH  21  22
ATOM     22  C   UNL     1      -2.391  -2.254  24.597  0.00  0.00    -0.022 A 
ATOM     23  C   UNL     1      -2.895  -2.317  23.948  0.00  0.00    -0.004 A 
ATOM     24  C   UNL     1      -3.694  -2.492  24.062  0.00  0.00    -0.000 A 
ATOM     25  C   UNL     1      -3.987  -2.603  24.825  0.00  0.00    -0.000 A 
ATOM     26  C   UNL     1      -3.482  -2.539  25.475  0.00  0.00    -0.000 A 
ATOM     27  C   UNL     1      -2.684  -2.364  25.360  0.00  0.00    -0.004 A 
ENDBRANCH  21  22
ENDBRANCH  20  21
ENDBRANCH  16  17
BRANCH   3   4
ATOM      4  N   UNL     1      -0.464   2.317  25.218  0.00  0.00    -0.184 NA
ATOM      5  C   UNL     1      -1.011   2.877  24.955  0.00  0.00    +0.340 C 
ATOM      6  O   UNL     1      -1.611   2.655  24.434  0.00  0.00    -0.249 OA
ATOM      7  N   UNL     1      -0.957   3.658  25.214  0.00  0.00    -0.182 NA
BRANCH   7   8
ATOM      8  C   UNL     1      -1.503   4.218  24.951  0.00  0.00    +0.143 C 
BRANCH   8   9
ATOM      9  C   UNL     1      -1.568   4.945  25.337  0.00  0.00    -0.003 C 
ATOM     10  C   UNL     1      -1.354   5.639  24.947  0.00  0.00    -0.003 C 
ENDBRANCH   8   9
ENDBRANCH   7   8
ENDBRANCH   3   4
TORSDOF 6
ENDMDL
MODEL 6
REMARK VINA RESULT:     -10.1      2.713      4.179
REMARK  Name = 
REMARK  6 active torsions:
REMARK  status: ('A' for Active; 'I' for Inactive)
REMARK    1  A    between atoms: C_3  and  N_4
REMARK    2  A    between atoms: N_7  and  C_8
REMARK    3  A    between atoms: C_8  and  C_9
REMARK    4  A    between atoms: C_16  and  N_17
REMARK    5  A    between atoms: C_20  and  C_21
REMARK    6  A    between atoms: C_21  and  C_22
REMARK                            x       y       z     vdW  Elec       q    Type
REMARK                         _______ _______ _______ _____ _____    ______ ____
ROOT
ATOM      1  O   UNL     1      -2.367   1.718  24.972  0.00  0.00    -0.220 OA
ATOM      2  C   UNL     1      -1.700   2.194  24.877  0.00  0.00    +0.194 C 
ATOM      3  C   UNL     1      -0.905   2.407  24.776  0.00  0.00    +0.158 C 
ATOM     11  C   UNL     1      -1.009   3.331  24.759  0.00  0.00    +0.170 C 
ATOM     12  C   UNL     1      -1.741   3.583  24.839  0.00  0.00    +0.176 C 
ATOM     13  O   UNL     1      -2.173   4.165  24.872  0.00  0.00    -0.327 OA
ATOM     14  C   UNL     1      -1.418   3.714  24.796  0.00  0.00    +0.253 C 
ATOM     15  O   UNL     1      -0.628   3.929  24.695  0.00  0.00    -0.327 OA
ATOM     16  C   UNL     1      -1.325   2.748  24.815  0.00  0.00    +0.147 C 
ENDROOT
BRANCH  16  17
ATOM     17  N   UNL     1      -2.119   2.954  24.904  0.00  0.00    -0.268 NA
ATOM     18  C   UNL     1      -2.430   3.086  25.657  0.00  0.00    +0.072 C 
ATOM     19  C   UNL     1      -3.224   3.293  25.745  0.00  0.00    +0.018 C 
ATOM     20  C   UNL     1      -3.706   3.368  25.080  0.00  0.00    +0.007 C 
ATOM     28  C   UNL     1      -3.396   3.236  24.328  0.00  0.00    +0.018 C 
ATOM     29  C   UNL     1      -2.602   3.029  24.240  0.00  0.00    +0.072 C 
BRANCH  20  21
ATOM     21  C   UNL     1      -4.501   3.574  25.168  0.00  0.00    +0.026 C 
BRANCH  21  22
ATOM     22  C   UNL     1      -5.068   2.990  25.297  0.00  0.00    -0.022 A 
ATOM     23  C   UNL     1      -5.341   2.533  24.668  0.00  0.00    -0.004 A 
ATOM     24  C   UNL     1      -5.909   1.949  24.798  0.00  0.00    -0.000 A 
ATOM     25  C   UNL     1      -6.204   1.822  25.558  0.00  0.00    -0.000 A 
ATOM     26  C   UNL     1      -5.931   2.279  26.188  0.00  0.00    -0.000 A 
ATOM     27  C   UNL     1      -5.363   2.863  26.058  0.00  0.00    -0.004 A 
ENDBRANCH  21  22
ENDBRANCH  20  21
ENDBRANCH  16  17
BRANCH   3   4
ATOM      4  N   UNL     1      -0.227   1.941  24.710  0.00  0.00    -0.184 NA
ATOM      5  C   UNL     1      -0.131   1.444  24.058  0.00  0.00    +0.340 C 
ATOM      6  O   UNL     1      -0.713   1.413  23.473  0.00  0.00    -0.249 OA
ATOM      7  N   UNL     1       0.546   0.978  23.992  0.00  0.00    -0.182 NA
BRANCH   7   8
ATOM      8  C   UNL     1       0.642   0.481  23.340  0.00  0.00    +0.143 C 
BRANCH   8   9
ATOM      9  C   UNL     1       1.352   0.074  23.232  0.00  0.00    -0.003 C 
ATOM     10  C   UNL     1       1.532  -0.254  22.498  0.00  0.00    -0.003 C 
ENDBRANCH   8   9
ENDBRANCH   7   8
ENDBRANCH   3   4
TORSDOF 6
ENDMDL
MODEL 7
REMARK VINA RESULT:     -10.0      2.471      4.066
REMARK  Name = 
REMARK  6 active torsions:
REMARK  status: ('A' for Active; 'I' for Inactive)
REMARK    1  A    between atoms: C_3  and  N_4
REMARK    2  A    between atoms: N_7  and  C_8
REMARK    3  A    between atoms: C_8  and  C_9
REMARK    4  A    between atoms: C_16  and  N_17
REMARK    5  A    between atoms: C_20  and  C_21
REMARK    6  A    between atoms: C_21  and  C_22
REMARK                            x       y       z     vdW  Elec       q    Type
REMARK                         _______ _______ _______ _____ _____    ______ ____
ROOT
ATOM      1  O   UNL     1      -2.281   0.927  24.730  0.00  0.00    -0.220 OA
ATOM      2  C   UNL     1      -2.054   0.137  24.651  0.00  0.00    +0.194 C 
ATOM      3  C   UNL     1      -1.564  -0.526  24.571  0.00  0.00    +0.158 C 
ATOM     11  C   UNL     1      -2.221  -1.183  24.544  0.00  0.00    +0.170 C 
ATOM     12  C   UNL     1      -2.952  -0.923  24.599  0.00  0.00    +0.176 C 
ATOM     13  O   UNL     1      -3.653  -1.108  24.615  0.00  0.00    -0.327 OA
ATOM     14  C   UNL     1      -2.780  -1.227  24.565  0.00  0.00    +0.253 C 
ATOM     15  O   UNL     1      -2.294  -1.889  24.486  0.00  0.00    -0.327 OA
ATOM     16  C   UNL     1      -2.105  -0.530  24.595  0.00  0.00    +0.147 C 
ENDROOT
BRANCH  16  17
ATOM     17  N   UNL     1      -2.857  -0.195  24.658  0.00  0.00    -0.268 NA
ATOM     18  C   UNL     1      -3.254   0.058  23.981  0.00  0.00    +0.072 C 
ATOM     19  C   UNL     1      -4.005   0.393  24.044  0.00  0.00    +0.018 C 
ATOM     20  C   UNL     1      -4.359   0.475  24.784  0.00  0.00    +0.007 C 
ATOM     28  C   UNL     1      -3.963   0.222  25.461  0.00  0.00    +0.018 C 
ATOM     29  C   UNL     1      -3.212  -0.113  25.398  0.00  0.00    +0.072 C 
BRANCH  20  21
ATOM     21  C   UNL     1      -5.111   0.809  24.848  0.00  0.00    +0.026 C 
BRANCH  21  22
ATOM     22  C   UNL     1      -5.194   1.603  25.056  0.00  0.00    -0.022 A 
ATOM     23  C   UNL     1      -5.006   2.194  24.514  0.00  0.00    -0.004 A 
ATOM     24  C   UNL     1      -5.089   2.988  24.722  0.00  0.00    -0.000 A 
ATOM     25  C   UNL     1      -5.360   3.190  25.475  0.00  0.00    -0.000 A 
ATOM     26  C   UNL     1      -5.548   2.599  26.019  0.00  0.00    -0.000 A 
ATOM     27  C   UNL     1      -5.465   1.805  25.809  0.00  0.00    -0.004 A 
ENDBRANCH  21  22
ENDBRANCH  20  21
ENDBRANCH  16  17
BRANCH   3   4
ATOM      4  N   UNL     1      -0.742  -0.586  24.529  0.00  0.00    -0.184 NA
ATOM      5  C   UNL     1      -0.340  -0.291  23.871  0.00  0.00    +0.340 C 
ATOM      6  O   UNL     1      -0.761   0.063  23.255  0.00  0.00    -0.249 OA
ATOM      7  N   UNL     1       0.481  -0.350  23.829  0.00  0.00    -0.182 NA
BRANCH   7   8
ATOM      8  C   UNL     1       0.882  -0.056  23.171  0.00  0.00    +0.143 C 
BRANCH   8   9
ATOM      9  C   UNL     1       1.706  -0.009  23.176  0.00  0.00    -0.003 C 
ATOM     10  C   UNL     1       2.122   0.019  22.465  0.00  0.00    -0.003 C 
ENDBRANCH   8   9
ENDBRANCH   7   8
ENDBRANCH   3   4
TORSDOF 6
ENDMDL
