MODEL 1
REMARK VINA RESULT:     -17.3      0.000      0.000
REMARK  Name = 
REMARK  4 active torsions:
REMARK  status: ('A' for Active; 'I' for Inactive)
REMARK    1  A    between atoms: C_5  and  C_8
REMARK    2  A    between atoms: C_19  and  N_20
REMARK    3  A    between atoms: N_20  and  S_21
REMARK    4  A    between atoms: S_21  and  C_24
REMARK                            x       y       z     vdW  Elec       q    Type
REMARK                         _______ _______ _______ _____ _____    ______ ____
ROOT
ATOM      8  C   UNL     1      -1.435   2.473  24.149  0.00  0.00    +0.249 C 
ATOM      9  O   UNL     1      -0.605   2.431  23.873  0.00  0.00    -0.270 OA
ATOM     10  N   UNL     1      -1.441   3.186  24.587  0.00  0.00    -0.276 N 
ATOM     11  C   UNL     1      -1.036   3.858  24.875  0.00  0.00    +0.096 C 
ATOM     12  C   UNL     1      -1.772   4.298  25.365  0.00  0.00    +0.043 C 
ATOM     13  C   UNL     1      -2.261   4.778  25.806  0.00  0.00    +0.011 C 
ATOM     14  C   UNL     1      -2.309   4.174  25.451  0.00  0.00    +0.058 C 
ATOM     15  C   UNL     1      -1.587   3.761  24.982  0.00  0.00    +0.099 C 
ATOM     16  C   UNL     1      -2.909   3.514  25.229  0.00  0.00    +0.041 A 
ATOM     17  C   UNL     1      -3.699   3.304  25.338  0.00  0.00    +0.014 A 
ATOM     18  C   UNL     1      -3.990   2.609  25.001  0.00  0.00    +0.024 A 
ATOM     19  C   UNL     1      -3.492   2.125  24.556  0.00  0.00    +0.147 A 
ATOM     30  C   UNL     1      -2.702   2.336  24.447  0.00  0.00    +0.277 A 
ATOM     31  O   UNL     1      -1.889   1.926  23.951  0.00  0.00    -0.266 OA
ATOM     32  N   UNL     1      -2.411   3.030  24.783  0.00  0.00    -0.298 N 
ATOM     33  C   UNL     1      -2.392   3.604  25.128  0.00  0.00    +0.110 C 
ENDROOT
BRANCH   8   5
ATOM      1  F   UNL     1      -5.071   1.103  24.080  0.00  0.00    -0.204 F 
ATOM      2  C   UNL     1      -4.154   1.388  24.269  0.00  0.00    +0.140 A 
ATOM      3  C   UNL     1      -3.500   1.420  24.888  0.00  0.00    +0.030 A 
ATOM      4  C   UNL     1      -2.628   1.762  24.868  0.00  0.00    +0.007 A 
ATOM      5  C   UNL     1      -2.311   2.121  24.197  0.00  0.00    +0.054 A 
ATOM      6  C   UNL     1      -2.764   2.189  23.512  0.00  0.00    +0.007 A 
ATOM      7  C   UNL     1      -3.537   1.898  23.498  0.00  0.00    +0.030 A 
ENDBRANCH   8   5
BRANCH  19  20
ATOM     20  N   UNL     1      -3.590   1.276  24.066  0.00  0.00    -0.092 NA
BRANCH  20  21
ATOM     21  S   UNL     1      -3.802   0.508  24.559  0.00  0.00    +0.093 S 
ATOM     22  O   UNL     1      -3.596  -0.033  23.875  0.00  0.00    -0.148 OA
ATOM     23  O   UNL     1      -4.077   0.729  25.395  0.00  0.00    -0.148 OA
BRANCH  21  24
ATOM     24  C   UNL     1      -3.820  -0.502  24.451  0.00  0.00    +0.127 A 
ATOM     25  C   UNL     1      -3.569  -0.635  25.226  0.00  0.00    +0.020 A 
ATOM     26  C   UNL     1      -3.469  -1.406  25.499  0.00  0.00    +0.001 A 
ATOM     27  C   UNL     1      -3.619  -2.045  24.998  0.00  0.00    +0.000 A 
ATOM     28  C   UNL     1      -3.869  -1.912  24.224  0.00  0.00    +0.001 A 
ATOM     29  C   UNL     1      -3.970  -1.140  23.950  0.00  0.00    +0.020 A 
ENDBRANCH  21  24
ENDBRANCH  20  21
ENDBRANCH  19  20
TORSDOF 4
ENDMDL
MODEL 2
REMARK VINA RESULT:     -17.2      1.284      1.915
REMARK  Name = 
REMARK  4 active torsions:
REMARK  status: ('A' for Active; 'I' for Inactive)
REMARK    1  A    between atoms: C_5  and  C_8
REMARK    2  A    between atoms: C_19  and  N_20
REMARK    3  A    between atoms: N_20  and  S_21
REMARK    4  A    between atoms: S_21  and  C_24
REMARK                            x       y       z     vdW  Elec       q    Type
REMARK                         _______ _______ _______ _____ _____    ______ ____
ROOT
ATOM      8  C   UNL     1      -4.852   2.474  24.886  0.00  0.00    +0.249 C 
ATOM      9  O   UNL     1      -5.698   2.691  24.947  0.00  0.00    -0.270 OA
ATOM     10  N   UNL     1      -4.477   3.103  25.289  0.00  0.00    -0.276 N 
ATOM     11  C   UNL     1      -4.533   3.822  25.711  0.00  0.00    +0.096 C 
ATOM     12  C   UNL     1      -3.574   3.987  25.885  0.00  0.00    +0.043 C 
ATOM     13  C   UNL     1      -2.841   4.262  26.107  0.00  0.00    +0.011 C 
ATOM     14  C   UNL     1      -3.105   3.713  25.760  0.00  0.00    +0.058 C 
ATOM     15  C   UNL     1      -4.035   3.568  25.600  0.00  0.00    +0.099 C 
ATOM     16  C   UNL     1      -2.850   2.944  25.325  0.00  0.00    +0.041 A 
ATOM     17  C   UNL     1      -2.175   2.516  25.125  0.00  0.00    +0.014 A 
ATOM     18  C   UNL     1      -2.244   1.811  24.702  0.00  0.00    +0.024 A 
ATOM     19  C   UNL     1      -2.989   1.535  24.478  0.00  0.00    +0.147 A 
ATOM     30  C   UNL     1      -3.664   1.964  24.679  0.00  0.00    +0.277 A 
ATOM     31  O   UNL     1      -4.684   1.850  24.530  0.00  0.00    -0.266 OA
ATOM     32  N   UNL     1      -3.595   2.668  25.102  0.00  0.00    -0.298 N 
ATOM     33  C   UNL     1      -3.318   3.182  25.429  0.00  0.00    +0.110 C 
ENDROOT
BRANCH   8   5
ATOM      1  F   UNL     1      -2.060   0.191  23.437  0.00  0.00    -0.204 F 
ATOM      2  C   UNL     1      -2.725   0.684  23.960  0.00  0.00    +0.140 A 
ATOM      3  C   UNL     1      -3.086   0.803  24.777  0.00  0.00    +0.030 A 
ATOM      4  C   UNL     1      -3.764   1.368  25.091  0.00  0.00    +0.007 A 
ATOM      5  C   UNL     1      -4.164   1.893  24.597  0.00  0.00    +0.054 A 
ATOM      6  C   UNL     1      -3.973   1.933  23.795  0.00  0.00    +0.007 A 
ATOM      7  C   UNL     1      -3.380   1.448  23.488  0.00  0.00    +0.030 A 
ENDBRANCH   8   5
BRANCH  19  20
ATOM     20  N   UNL     1      -3.331   0.752  23.987  0.00  0.00    -0.092 NA
BRANCH  20  21
ATOM     21  S   UNL     1      -3.211  -0.094  24.372  0.00  0.00    +0.093 S 
ATOM     22  O   UNL     1      -3.816  -0.467  23.827  0.00  0.00    -0.148 OA
ATOM     23  O   UNL     1      -2.592  -0.060  25.035  0.00  0.00    -0.148 OA
BRANCH  21  24
ATOM     24  C   UNL     1      -3.559  -1.043  24.280  0.00  0.00    +0.127 A 
ATOM     25  C   UNL     1      -3.111  -1.317  24.916  0.00  0.00    +0.020 A 
ATOM     26  C   UNL     1      -3.154  -2.110  25.138  0.00  0.00    +0.001 A 
ATOM     27  C   UNL     1      -3.645  -2.629  24.724  0.00  0.00    +0.000 A 
ATOM     28  C   UNL     1      -4.093  -2.354  24.089  0.00  0.00    +0.001 A 
ATOM     29  C   UNL     1      -4.050  -1.561  23.866  0.00  0.00    +0.020 A 
ENDBRANCH  21  24
ENDBRANCH  20  21
ENDBRANCH  19  20
TORSDOF 4
ENDMDL
MODEL 3
REMARK VINA RESULT:     -17.0      1.367      4.049
REMARK  Name = 
REMARK  4 active torsions:
REMARK  status: ('A' for Active; 'I' for Inactive)
REMARK    1  A    between atoms: C_5  and  C_8
REMARK    2  A    between atoms: C_19  and  N_20
REMARK    3  A    between atoms: N_20  and  S_21
REMARK    4  A    between atoms: S_21  and  C_24
REMARK                            x       y       z     vdW  Elec       q    Type
REMARK                         _______ _______ _______ _____ _____    ______ ____
ROOT
ATOM      8  C   UNL     1      -1.592  -0.559  24.637  0.00  0.00    +0.249 C 
ATOM      9  O   UNL     1      -0.768  -0.807  24.799  0.00  0.00    -0.270 OA
ATOM     10  N   UNL     1      -2.008  -1.283  24.683  0.00  0.00    -0.276 N 
ATOM     11  C   UNL     1      -2.004  -2.109  24.808  0.00  0.00    +0.096 C 
ATOM     12  C   UNL     1      -2.966  -2.299  24.691  0.00  0.00    +0.043 C 
ATOM     13  C   UNL     1      -3.714  -2.616  24.626  0.00  0.00    +0.011 C 
ATOM     14  C   UNL     1      -3.412  -1.984  24.576  0.00  0.00    +0.058 C 
ATOM     15  C   UNL     1      -2.479  -1.817  24.692  0.00  0.00    +0.099 C 
ATOM     16  C   UNL     1      -3.611  -1.102  24.413  0.00  0.00    +0.041 A 
ATOM     17  C   UNL     1      -4.250  -0.610  24.242  0.00  0.00    +0.014 A 
ATOM     18  C   UNL     1      -4.131   0.200  24.138  0.00  0.00    +0.024 A 
ATOM     19  C   UNL     1      -3.373   0.517  24.205  0.00  0.00    +0.147 A 
ATOM     30  C   UNL     1      -2.733   0.026  24.376  0.00  0.00    +0.277 A 
ATOM     31  O   UNL     1      -1.714   0.158  24.510  0.00  0.00    -0.266 OA
ATOM     32  N   UNL     1      -2.852  -0.784  24.480  0.00  0.00    -0.298 N 
ATOM     33  C   UNL     1      -3.164  -1.375  24.522  0.00  0.00    +0.110 C 
ENDROOT
BRANCH   8   5
ATOM      1  F   UNL     1      -4.119   2.191  23.564  0.00  0.00    -0.204 F 
ATOM      2  C   UNL     1      -3.566   1.509  23.996  0.00  0.00    +0.140 A 
ATOM      3  C   UNL     1      -3.408   1.055  24.758  0.00  0.00    +0.030 A 
ATOM      4  C   UNL     1      -2.784   0.393  24.981  0.00  0.00    +0.007 A 
ATOM      5  C   UNL     1      -2.232   0.108  24.439  0.00  0.00    +0.054 A 
ATOM      6  C   UNL     1      -2.216   0.406  23.671  0.00  0.00    +0.007 A 
ATOM      7  C   UNL     1      -2.753   0.990  23.443  0.00  0.00    +0.030 A 
ENDBRANCH   8   5
BRANCH  19  20
ATOM     20  N   UNL     1      -2.978   1.418  24.129  0.00  0.00    -0.092 NA
BRANCH  20  21
ATOM     21  S   UNL     1      -3.217   2.056  24.771  0.00  0.00    +0.093 S 
ATOM     22  O   UNL     1      -2.480   2.541  24.616  0.00  0.00    -0.148 OA
ATOM     23  O   UNL     1      -4.007   1.839  25.162  0.00  0.00    -0.148 OA
BRANCH  21  24
ATOM     24  C   UNL     1      -2.867   2.922  25.170  0.00  0.00    +0.127 A 
ATOM     25  C   UNL     1      -3.591   3.108  25.517  0.00  0.00    +0.020 A 
ATOM     26  C   UNL     1      -3.672   3.802  25.956  0.00  0.00    +0.001 A 
ATOM     27  C   UNL     1      -3.028   4.310  26.046  0.00  0.00    +0.000 A 
ATOM     28  C   UNL     1      -2.303   4.124  25.699  0.00  0.00    +0.001 A 
ATOM     29  C   UNL     1      -2.223   3.430  25.261  0.00  0.00    +0.020 A 
ENDBRANCH  21  24
ENDBRANCH  20  21
ENDBRANCH  19  20
TORSDOF 4
ENDMDL
