MODEL 1
REMARK VINA RESULT:     -12.2      0.000      0.000
REMARK  Name = 
REMARK  3 active torsions:
REMARK  status: ('A' for Active; 'I' for Inactive)
REMARK    1  A    between atoms: C_4  and  C_17
REMARK    2  A    between atoms: C_6  and  C_7
REMARK    3  A    between atoms: C_14  and  C_15
REMARK                            x       y       z     vdW  Elec       q    Type
REMARK                         _______ _______ _______ _____ _____    ______ ____
ROOT
ATOM      1  C   UNL     1      -3.253   1.571  23.379  0.00  0.00    +0.153 C 
ATOM      2  N   UNL     1      -3.518   0.953  23.857  0.00  0.00    -0.253 N 
ATOM      3  N   UNL     1      -3.357   0.151  23.747  0.00  0.00    -0.174 NA
ATOM      4  C   UNL     1      -3.730  -0.270  24.351  0.00  0.00    +0.079 A 
ATOM      5  C   UNL     1      -4.121   0.272  24.834  0.00  0.00    +0.031 A 
ATOM      6  C   UNL     1      -3.991   1.027  24.529  0.00  0.00    +0.058 A 
ENDROOT
BRANCH   6   7
ATOM      7  C   UNL     1      -4.282   1.734  24.842  0.00  0.00    +0.056 C 
ATOM      8  C   UNL     1      -3.764   2.292  25.004  0.00  0.00    +0.078 C 
ATOM      9  N   UNL     1      -4.581   2.338  25.115  0.00  0.00    -0.272 NA
ATOM     10  C   UNL     1      -4.988   1.425  24.800  0.00  0.00    +0.072 C 
ATOM     11  C   UNL     1      -5.504   1.036  24.704  0.00  0.00    +0.018 C 
ATOM     12  C   UNL     1      -5.082   1.787  24.954  0.00  0.00    +0.010 C 
ATOM     13  C   UNL     1      -5.591   2.430  25.266  0.00  0.00    +0.018 C 
ATOM     14  C   UNL     1      -5.116   3.002  25.439  0.00  0.00    +0.077 C 
BRANCH  14  15
ATOM     15  C   UNL     1      -5.098   3.769  25.740  0.00  0.00    +0.125 C 
ATOM     16  N   UNL     1      -5.788   4.221  25.761  0.00  0.00    -0.130 NA
ENDBRANCH  14  15
ENDBRANCH   6   7
BRANCH   4  17
ATOM     17  C   UNL     1      -3.714  -1.088  24.453  0.00  0.00    +0.042 C 
ATOM     18  C   UNL     1      -4.085  -1.579  23.904  0.00  0.00    +0.006 C 
ATOM     19  C   UNL     1      -4.068  -2.398  24.007  0.00  0.00    +0.000 C 
ATOM     20  C   UNL     1      -3.681  -2.725  24.658  0.00  0.00    +0.000 C 
ATOM     21  C   UNL     1      -3.310  -2.233  25.206  0.00  0.00    +0.000 C 
ATOM     22  C   UNL     1      -3.326  -1.415  25.104  0.00  0.00    +0.006 C 
ENDBRANCH   4  17
TORSDOF 3
ENDMDL
MODEL 2
REMARK VINA RESULT:     -11.9      1.189      1.779
REMARK  Name = 
REMARK  3 active torsions:
REMARK  status: ('A' for Active; 'I' for Inactive)
REMARK    1  A    between atoms: C_4  and  C_17
REMARK    2  A    between atoms: C_6  and  C_7
REMARK    3  A    between atoms: C_14  and  C_15
REMARK                            x       y       z     vdW  Elec       q    Type
REMARK                         _______ _______ _______ _____ _____    ______ ____
ROOT
ATOM      1  C   UNL     1      -5.397   1.666  24.887  0.00  0.00    +0.153 C 
ATOM      2  N   UNL     1      -4.790   1.111  24.832  0.00  0.00    -0.253 N 
ATOM      3  N   UNL     1      -4.885   0.293  24.768  0.00  0.00    -0.174 NA
ATOM      4  C   UNL     1      -4.135  -0.049  24.728  0.00  0.00    +0.079 A 
ATOM      5  C   UNL     1      -3.577   0.557  24.768  0.00  0.00    +0.031 A 
ATOM      6  C   UNL     1      -3.982   1.273  24.832  0.00  0.00    +0.058 A 
ENDROOT
BRANCH   6   7
ATOM      7  C   UNL     1      -3.637   2.022  24.886  0.00  0.00    +0.056 C 
ATOM      8  C   UNL     1      -3.766   2.427  25.538  0.00  0.00    +0.078 C 
ATOM      9  N   UNL     1      -3.316   2.674  24.892  0.00  0.00    -0.272 NA
ATOM     10  C   UNL     1      -3.340   1.901  24.184  0.00  0.00    +0.072 C 
ATOM     11  C   UNL     1      -3.167   1.658  23.603  0.00  0.00    +0.018 C 
ATOM     12  C   UNL     1      -3.193   2.271  24.256  0.00  0.00    +0.010 C 
ATOM     13  C   UNL     1      -2.749   3.013  24.107  0.00  0.00    +0.018 C 
ATOM     14  C   UNL     1      -2.851   3.443  24.730  0.00  0.00    +0.077 C 
BRANCH  14  15
ATOM     15  C   UNL     1      -2.657   4.172  25.061  0.00  0.00    +0.125 C 
ATOM     16  N   UNL     1      -1.868   4.413  25.096  0.00  0.00    -0.130 NA
ENDBRANCH  14  15
ENDBRANCH   6   7
BRANCH   4  17
ATOM     17  C   UNL     1      -3.973  -0.855  24.661  0.00  0.00    +0.042 C 
ATOM     18  C   UNL     1      -4.203  -1.266  23.984  0.00  0.00    +0.006 C 
ATOM     19  C   UNL     1      -4.040  -2.072  23.918  0.00  0.00    +0.000 C 
ATOM     20  C   UNL     1      -3.649  -2.466  24.527  0.00  0.00    +0.000 C 
ATOM     21  C   UNL     1      -3.419  -2.055  25.204  0.00  0.00    +0.000 C 
ATOM     22  C   UNL     1      -3.581  -1.249  25.271  0.00  0.00    +0.006 C 
ENDBRANCH   4  17
TORSDOF 3
ENDMDL
MODEL 3
REMARK VINA RESULT:     -11.0      1.046      4.185
REMARK  Name = 
REMARK  3 active torsions:
REMARK  status: ('A' for Active; 'I' for Inactive)
REMARK    1  A    between atoms: C_4  and  C_17
REMARK    2  A    between atoms: C_6  and  C_7
REMARK    3  A    between atoms: C_14  and  C_15
REMARK                            x       y       z     vdW  Elec       q    Type
REMARK                         _______ _______ _______ _____ _____    ______ ____
ROOT
ATOM      1  C   UNL     1      -2.867   0.675  23.400  0.00  0.00    +0.153 C 
ATOM      2  N   UNL     1      -3.457   0.892  23.934  0.00  0.00    -0.253 N 
ATOM      3  N   UNL     1      -3.685   1.664  24.118  0.00  0.00    -0.174 NA
ATOM      4  C   UNL     1      -4.292   1.625  24.676  0.00  0.00    +0.079 A 
ATOM      5  C   UNL     1      -4.439   0.830  24.837  0.00  0.00    +0.031 A 
ATOM      6  C   UNL     1      -3.923   0.377  24.379  0.00  0.00    +0.058 A 
ENDROOT
BRANCH   6   7
ATOM      7  C   UNL     1      -3.881  -0.448  24.367  0.00  0.00    +0.056 C 
ATOM      8  C   UNL     1      -4.112  -0.807  23.717  0.00  0.00    +0.078 C 
ATOM      9  N   UNL     1      -3.827  -1.172  24.401  0.00  0.00    -0.272 NA
ATOM     10  C   UNL     1      -3.605  -0.412  25.088  0.00  0.00    +0.072 C 
ATOM     11  C   UNL     1      -3.389  -0.222  25.674  0.00  0.00    +0.018 C 
ATOM     12  C   UNL     1      -3.603  -0.813  25.035  0.00  0.00    +0.010 C 
ATOM     13  C   UNL     1      -3.478  -1.659  25.234  0.00  0.00    +0.018 C 
ATOM     14  C   UNL     1      -3.695  -2.049  24.615  0.00  0.00    +0.077 C 
BRANCH  14  15
ATOM     15  C   UNL     1      -3.768  -2.814  24.316  0.00  0.00    +0.125 C 
ATOM     16  N   UNL     1      -3.338  -3.432  24.654  0.00  0.00    -0.130 NA
ENDBRANCH  14  15
ENDBRANCH   6   7
BRANCH   4  17
ATOM     17  C   UNL     1      -4.682   2.269  25.013  0.00  0.00    +0.042 C 
ATOM     18  C   UNL     1      -5.492   2.228  25.162  0.00  0.00    +0.006 C 
ATOM     19  C   UNL     1      -5.882   2.872  25.499  0.00  0.00    +0.000 C 
ATOM     20  C   UNL     1      -5.462   3.557  25.686  0.00  0.00    +0.000 C 
ATOM     21  C   UNL     1      -4.652   3.598  25.537  0.00  0.00    +0.000 C 
ATOM     22  C   UNL     1      -4.261   2.954  25.200  0.00  0.00    +0.006 C 
ENDBRANCH   4  17
TORSDOF 3
ENDMDL
MODEL 4
REMARK VINA RESULT:     -10.8      1.552      4.253
REMARK  Name = 
REMARK  3 active torsions:
REMARK  status: ('A' for Active; 'I' for Inactive)
REMARK    1  A    between atoms: C_4  and  C_17
REMARK    2  A    between atoms: C_6  and  C_7
REMARK    3  A    between atoms: C_14  and  C_15
REMARK                            x       y       z     vdW  Elec       q    Type
REMARK                         _______ _______ _______ _____ _____    ______ ____
ROOT
ATOM      1  C   UNL     1      -5.111   2.133  24.815  0.00  0.00    +0.153 C 
ATOM      2  N   UNL     1      -4.293   2.227  24.873  0.00  0.00    -0.253 N 
ATOM      3  N   UNL     1      -3.895   2.935  25.016  0.00  0.00    -0.174 NA
ATOM      4  C   UNL     1      -3.086   2.775  25.028  0.00  0.00    +0.079 A 
ATOM      5  C   UNL     1      -2.984   1.968  24.893  0.00  0.00    +0.031 A 
ATOM      6  C   UNL     1      -3.730   1.629  24.797  0.00  0.00    +0.058 A 
ENDROOT
BRANCH   6   7
ATOM      7  C   UNL     1      -3.885   0.831  24.650  0.00  0.00    +0.056 C 
ATOM      8  C   UNL     1      -4.286   0.441  25.192  0.00  0.00    +0.078 C 
ATOM      9  N   UNL     1      -3.999   0.134  24.481  0.00  0.00    -0.272 NA
ATOM     10  C   UNL     1      -3.507   0.913  23.982  0.00  0.00    +0.072 C 
ATOM     11  C   UNL     1      -3.170   1.136  23.468  0.00  0.00    +0.018 C 
ATOM     12  C   UNL     1      -3.607   0.522  23.955  0.00  0.00    +0.010 C 
ATOM     13  C   UNL     1      -3.658  -0.282  23.607  0.00  0.00    +0.018 C 
ATOM     14  C   UNL     1      -4.048  -0.700  24.113  0.00  0.00    +0.077 C 
BRANCH  14  15
ATOM     15  C   UNL     1      -4.341  -1.459  24.248  0.00  0.00    +0.125 C 
ATOM     16  N   UNL     1      -4.036  -2.100  23.826  0.00  0.00    -0.130 NA
ENDBRANCH  14  15
ENDBRANCH   6   7
BRANCH   4  17
ATOM     17  C   UNL     1      -2.485   3.326  25.154  0.00  0.00    +0.042 C 
ATOM     18  C   UNL     1      -2.584   4.107  24.910  0.00  0.00    +0.006 C 
ATOM     19  C   UNL     1      -1.982   4.657  25.036  0.00  0.00    +0.000 C 
ATOM     20  C   UNL     1      -1.282   4.427  25.407  0.00  0.00    +0.000 C 
ATOM     21  C   UNL     1      -1.184   3.645  25.651  0.00  0.00    +0.000 C 
ATOM     22  C   UNL     1      -1.785   3.095  25.525  0.00  0.00    +0.006 C 
ENDBRANCH   4  17
TORSDOF 3
ENDMDL
