MODEL 1
REMARK VINA RESULT:      -8.8      0.000      0.000
REMARK  Name = 
REMARK  2 active torsions:
REMARK  status: ('A' for Active; 'I' for Inactive)
REMARK    1  A    between atoms: N_8  and  C_9
REMARK    2  A    between atoms: C_9  and  C_10
REMARK                            x       y       z     vdW  Elec       q    Type
REMARK                         _______ _______ _______ _____ _____    ______ ____
ROOT
ATOM      1  C   UNL     1      -1.132   2.692  24.162  0.00  0.00    +0.090 C 
ATOM      2  N   UNL     1      -1.875   2.356  24.294  0.00  0.00    -0.269 NA
ATOM      3  C   UNL     1      -2.557   2.806  24.180  0.00  0.00    +0.094 C 
ATOM      4  C   UNL     1      -3.299   2.471  24.311  0.00  0.00    +0.112 C 
ATOM      5  N   UNL     1      -3.359   1.685  24.557  0.00  0.00    -0.261 N 
ATOM      6  C   UNL     1      -2.677   1.235  24.670  0.00  0.00    +0.113 C 
ATOM      7  C   UNL     1      -2.907   0.481  24.912  0.00  0.00    +0.116 C 
ATOM      8  N   UNL     1      -3.730   0.465  24.948  0.00  0.00    -0.258 N 
ATOM     16  C   UNL     1      -4.010   1.209  24.728  0.00  0.00    +0.308 C 
ATOM     17  O   UNL     1      -4.802   1.437  24.687  0.00  0.00    -0.252 OA
ATOM     18  C   UNL     1      -1.934   1.571  24.539  0.00  0.00    +0.094 C 
ENDROOT
BRANCH   8   9
ATOM      9  C   UNL     1      -4.194  -0.182  25.166  0.00  0.00    +0.123 C 
BRANCH   9  10
ATOM     10  C   UNL     1      -3.985  -0.941  24.919  0.00  0.00    +0.017 A 
ATOM     11  C   UNL     1      -4.228  -1.217  24.181  0.00  0.00    +0.001 A 
ATOM     12  C   UNL     1      -4.019  -1.977  23.935  0.00  0.00    +0.020 A 
ATOM     13  C   UNL     1      -3.566  -2.460  24.427  0.00  0.00    +0.099 A 
ATOM     14  N   UNL     1      -3.323  -2.184  25.165  0.00  0.00    -0.243 NA
ATOM     15  C   UNL     1      -3.532  -1.425  25.411  0.00  0.00    +0.096 A 
ENDBRANCH   9  10
ENDBRANCH   8   9
TORSDOF 2
ENDMDL
MODEL 2
REMARK VINA RESULT:      -8.7      1.324      1.951
REMARK  Name = 
REMARK  2 active torsions:
REMARK  status: ('A' for Active; 'I' for Inactive)
REMARK    1  A    between atoms: N_8  and  C_9
REMARK    2  A    between atoms: C_9  and  C_10
REMARK                            x       y       z     vdW  Elec       q    Type
REMARK                         _______ _______ _______ _____ _____    ______ ____
ROOT
ATOM      1  C   UNL     1      -5.467   3.408  25.673  0.00  0.00    +0.090 C 
ATOM      2  N   UNL     1      -4.928   2.986  25.210  0.00  0.00    -0.269 NA
ATOM      3  C   UNL     1      -4.343   3.387  24.789  0.00  0.00    +0.094 C 
ATOM      4  C   UNL     1      -3.806   2.965  24.327  0.00  0.00    +0.112 C 
ATOM      5  N   UNL     1      -3.853   2.142  24.286  0.00  0.00    -0.261 N 
ATOM      6  C   UNL     1      -4.439   1.742  24.707  0.00  0.00    +0.113 C 
ATOM      7  C   UNL     1      -4.351   0.935  24.561  0.00  0.00    +0.116 C 
ATOM      8  N   UNL     1      -3.711   0.837  24.050  0.00  0.00    -0.258 N 
ATOM     16  C   UNL     1      -3.404   1.583  23.880  0.00  0.00    +0.308 C 
ATOM     17  O   UNL     1      -2.760   1.742  23.389  0.00  0.00    -0.252 OA
ATOM     18  C   UNL     1      -4.977   2.164  25.170  0.00  0.00    +0.094 C 
ENDROOT
BRANCH   8   9
ATOM      9  C   UNL     1      -3.428   0.118  23.759  0.00  0.00    +0.123 C 
BRANCH   9  10
ATOM     10  C   UNL     1      -3.427  -0.551  24.242  0.00  0.00    +0.017 A 
ATOM     11  C   UNL     1      -4.001  -1.134  24.142  0.00  0.00    +0.001 A 
ATOM     12  C   UNL     1      -3.998  -1.803  24.625  0.00  0.00    +0.020 A 
ATOM     13  C   UNL     1      -3.422  -1.888  25.209  0.00  0.00    +0.099 A 
ATOM     14  N   UNL     1      -2.848  -1.304  25.310  0.00  0.00    -0.243 NA
ATOM     15  C   UNL     1      -2.850  -0.635  24.827  0.00  0.00    +0.096 A 
ENDBRANCH   9  10
ENDBRANCH   8   9
TORSDOF 2
ENDMDL
MODEL 3
REMARK VINA RESULT:      -8.5      1.098      1.276
REMARK  Name = 
REMARK  2 active torsions:
REMARK  status: ('A' for Active; 'I' for Inactive)
REMARK    1  A    between atoms: N_8  and  C_9
REMARK    2  A    between atoms: C_9  and  C_10
REMARK                            x       y       z     vdW  Elec       q    Type
REMARK                         _______ _______ _______ _____ _____    ______ ____
ROOT
ATOM      1  C   UNL     1       0.321   1.065  23.924  0.00  0.00    +0.090 C 
ATOM      2  N   UNL     1      -0.480   1.039  24.124  0.00  0.00    -0.269 NA
ATOM      3  C   UNL     1      -0.933   1.728  24.099  0.00  0.00    +0.094 C 
ATOM      4  C   UNL     1      -1.733   1.703  24.298  0.00  0.00    +0.112 C 
ATOM      5  N   UNL     1      -2.080   0.988  24.522  0.00  0.00    -0.261 N 
ATOM      6  C   UNL     1      -1.627   0.300  24.546  0.00  0.00    +0.113 C 
ATOM      7  C   UNL     1      -2.116  -0.319  24.786  0.00  0.00    +0.116 C 
ATOM      8  N   UNL     1      -2.872  -0.013  24.910  0.00  0.00    -0.258 N 
ATOM     16  C   UNL     1      -2.849   0.795  24.746  0.00  0.00    +0.308 C 
ATOM     17  O   UNL     1      -3.485   1.318  24.798  0.00  0.00    -0.252 OA
ATOM     18  C   UNL     1      -0.826   0.325  24.347  0.00  0.00    +0.094 C 
ENDROOT
BRANCH   8   9
ATOM      9  C   UNL     1      -3.534  -0.440  25.154  0.00  0.00    +0.123 C 
BRANCH   9  10
ATOM     10  C   UNL     1      -3.666  -1.201  24.862  0.00  0.00    +0.017 A 
ATOM     11  C   UNL     1      -4.072  -1.306  24.152  0.00  0.00    +0.001 A 
ATOM     12  C   UNL     1      -4.203  -2.067  23.861  0.00  0.00    +0.020 A 
ATOM     13  C   UNL     1      -3.929  -2.722  24.280  0.00  0.00    +0.099 A 
ATOM     14  N   UNL     1      -3.523  -2.617  24.990  0.00  0.00    -0.243 NA
ATOM     15  C   UNL     1      -3.391  -1.856  25.282  0.00  0.00    +0.096 A 
ENDBRANCH   9  10
ENDBRANCH   8   9
TORSDOF 2
ENDMDL
MODEL 4
REMARK VINA RESULT:      -8.3      2.908      4.175
REMARK  Name = 
REMARK  2 active torsions:
REMARK  status: ('A' for Active; 'I' for Inactive)
REMARK    1  A    between atoms: N_8  and  C_9
REMARK    2  A    between atoms: C_9  and  C_10
REMARK                            x       y       z     vdW  Elec       q    Type
REMARK                         _______ _______ _______ _____ _____    ______ ____
ROOT
ATOM      1  C   UNL     1      -5.581   1.941  24.778  0.00  0.00    +0.090 C 
ATOM      2  N   UNL     1      -4.986   2.445  25.049  0.00  0.00    -0.269 NA
ATOM      3  C   UNL     1      -5.157   3.012  25.624  0.00  0.00    +0.094 C 
ATOM      4  C   UNL     1      -4.562   3.516  25.894  0.00  0.00    +0.112 C 
ATOM      5  N   UNL     1      -3.797   3.453  25.591  0.00  0.00    -0.261 N 
ATOM      6  C   UNL     1      -3.627   2.885  25.017  0.00  0.00    +0.113 C 
ATOM      7  C   UNL     1      -2.829   2.952  24.822  0.00  0.00    +0.116 C 
ATOM      8  N   UNL     1      -2.505   3.560  25.275  0.00  0.00    -0.258 N 
ATOM     16  C   UNL     1      -3.104   3.869  25.750  0.00  0.00    +0.308 C 
ATOM     17  O   UNL     1      -3.024   4.488  26.291  0.00  0.00    -0.252 OA
ATOM     18  C   UNL     1      -4.222   2.381  24.746  0.00  0.00    +0.094 C 
ENDROOT
BRANCH   8   9
ATOM      9  C   UNL     1      -1.721   3.814  25.256  0.00  0.00    +0.123 C 
BRANCH   9  10
ATOM     10  C   UNL     1      -1.109   3.262  25.221  0.00  0.00    +0.017 A 
ATOM     11  C   UNL     1      -0.819   2.921  25.914  0.00  0.00    +0.001 A 
ATOM     12  C   UNL     1      -0.207   2.369  25.877  0.00  0.00    +0.020 A 
ATOM     13  C   UNL     1       0.116   2.159  25.148  0.00  0.00    +0.099 A 
ATOM     14  N   UNL     1      -0.173   2.500  24.455  0.00  0.00    -0.243 NA
ATOM     15  C   UNL     1      -0.785   3.052  24.490  0.00  0.00    +0.096 A 
ENDBRANCH   9  10
ENDBRANCH   8   9
TORSDOF 2
ENDMDL
MODEL 5
REMARK VINA RESULT:      -8.2      1.895      3.254
REMARK  Name = 
REMARK  2 active torsions:
REMARK  status: ('A' for Active; 'I' for Inactive)
REMARK    1  A    between atoms: N_8  and  C_9
REMARK    2  A    between atoms: C_9  and  C_10
REMARK                            x       y       z     vdW  Elec       q    Type
REMARK                         _______ _______ _______ _____ _____    ______ ____
ROOT
ATOM      1  C   UNL     1      -0.983  -0.680  25.297  0.00  0.00    +0.090 C 
ATOM      2  N   UNL     1      -1.349  -0.063  24.887  0.00  0.00    -0.269 NA
ATOM      3  C   UNL     1      -0.925   0.367  24.325  0.00  0.00    +0.094 C 
ATOM      4  C   UNL     1      -1.290   0.983  23.916  0.00  0.00    +0.112 C 
ATOM      5  N   UNL     1      -2.080   1.168  24.068  0.00  0.00    -0.261 N 
ATOM      6  C   UNL     1      -2.504   0.738  24.629  0.00  0.00    +0.113 C 
ATOM      7  C   UNL     1      -3.268   1.044  24.661  0.00  0.00    +0.116 C 
ATOM      8  N   UNL     1      -3.318   1.664  24.120  0.00  0.00    -0.258 N 
ATOM     16  C   UNL     1      -2.583   1.740  23.753  0.00  0.00    +0.308 C 
ATOM     17  O   UNL     1      -2.385   2.293  23.173  0.00  0.00    -0.252 OA
ATOM     18  C   UNL     1      -2.138   0.121  25.039  0.00  0.00    +0.094 C 
ENDROOT
BRANCH   8   9
ATOM      9  C   UNL     1      -3.984   2.127  23.971  0.00  0.00    +0.123 C 
BRANCH   9  10
ATOM     10  C   UNL     1      -4.474   2.357  24.593  0.00  0.00    +0.017 A 
ATOM     11  C   UNL     1      -5.165   1.934  24.754  0.00  0.00    +0.001 A 
ATOM     12  C   UNL     1      -5.654   2.165  25.376  0.00  0.00    +0.020 A 
ATOM     13  C   UNL     1      -5.454   2.818  25.838  0.00  0.00    +0.099 A 
ATOM     14  N   UNL     1      -4.764   3.241  25.678  0.00  0.00    -0.243 NA
ATOM     15  C   UNL     1      -4.274   3.011  25.056  0.00  0.00    +0.096 A 
ENDBRANCH   9  10
ENDBRANCH   8   9
TORSDOF 2
ENDMDL
MODEL 6
REMARK VINA RESULT:      -7.9      1.205      3.924
REMARK  Name = 
REMARK  2 active torsions:
REMARK  status: ('A' for Active; 'I' for Inactive)
REMARK    1  A    between atoms: N_8  and  C_9
REMARK    2  A    between atoms: C_9  and  C_10
REMARK                            x       y       z     vdW  Elec       q    Type
REMARK                         _______ _______ _______ _____ _____    ______ ____
ROOT
ATOM      1  C   UNL     1      -2.646  -1.218  24.809  0.00  0.00    +0.090 C 
ATOM      2  N   UNL     1      -3.131  -0.550  24.782  0.00  0.00    -0.269 NA
ATOM      3  C   UNL     1      -3.951  -0.635  24.808  0.00  0.00    +0.094 C 
ATOM      4  C   UNL     1      -4.435   0.032  24.782  0.00  0.00    +0.112 C 
ATOM      5  N   UNL     1      -4.100   0.784  24.730  0.00  0.00    -0.261 N 
ATOM      6  C   UNL     1      -3.280   0.869  24.704  0.00  0.00    +0.113 C 
ATOM      7  C   UNL     1      -3.108   1.673  24.654  0.00  0.00    +0.116 C 
ATOM      8  N   UNL     1      -3.822   2.087  24.648  0.00  0.00    -0.258 N 
ATOM     16  C   UNL     1      -4.434   1.537  24.695  0.00  0.00    +0.308 C 
ATOM     17  O   UNL     1      -5.241   1.709  24.706  0.00  0.00    -0.252 OA
ATOM     18  C   UNL     1      -2.795   0.201  24.731  0.00  0.00    +0.094 C 
ENDROOT
BRANCH   8   9
ATOM      9  C   UNL     1      -3.908   2.906  24.603  0.00  0.00    +0.123 C 
BRANCH   9  10
ATOM     10  C   UNL     1      -3.372   3.399  24.991  0.00  0.00    +0.017 A 
ATOM     11  C   UNL     1      -3.519   3.638  25.767  0.00  0.00    +0.001 A 
ATOM     12  C   UNL     1      -2.982   4.132  26.154  0.00  0.00    +0.020 A 
ATOM     13  C   UNL     1      -2.301   4.386  25.766  0.00  0.00    +0.099 A 
ATOM     14  N   UNL     1      -2.155   4.147  24.990  0.00  0.00    -0.243 NA
ATOM     15  C   UNL     1      -2.690   3.654  24.602  0.00  0.00    +0.096 A 
ENDBRANCH   9  10
ENDBRANCH   8   9
TORSDOF 2
ENDMDL
