MODEL 1
REMARK VINA RESULT:     -10.1      0.000      0.000
REMARK  Name = 
REMARK  6 active torsions:
REMARK  status: ('A' for Active; 'I' for Inactive)
REMARK    1  A    between atoms: N_2  and  C_4
REMARK    2  A    between atoms: C_7  and  C_10
REMARK    3  A    between atoms: C_15  and  C_17
REMARK    4  A    between atoms: C_24  and  C_25
REMARK    5  A    between atoms: C_25  and  N_26
REMARK    6  A    between atoms: C_27  and  C_29
REMARK                            x       y       z     vdW  Elec       q    Type
REMARK                         _______ _______ _______ _____ _____    ______ ____
ROOT
ATOM     10  C   UNL     1      -4.583   0.395  24.921  0.00  0.00    +0.084 A 
ATOM     11  N   UNL     1      -5.399   0.442  25.029  0.00  0.00    -0.231 NA
ATOM     12  C   UNL     1      -5.761   1.177  25.127  0.00  0.00    +0.139 A 
ATOM     13  C   UNL     1      -6.577   1.225  25.236  0.00  0.00    +0.074 C 
ATOM     14  N   UNL     1      -5.305   1.865  25.117  0.00  0.00    -0.235 NA
ATOM     15  C   UNL     1      -4.488   1.817  25.009  0.00  0.00    +0.063 A 
ATOM     16  C   UNL     1      -4.127   1.083  24.911  0.00  0.00    +0.034 A 
ENDROOT
BRANCH  15  17
ATOM     17  C   UNL     1      -4.032   2.506  24.999  0.00  0.00    +0.056 C 
ATOM     18  C   UNL     1      -3.608   2.661  25.633  0.00  0.00    +0.078 C 
ATOM     19  N   UNL     1      -3.647   3.120  24.948  0.00  0.00    -0.272 NA
ATOM     20  C   UNL     1      -4.304   2.637  24.289  0.00  0.00    +0.072 C 
ATOM     21  C   UNL     1      -4.614   2.610  23.714  0.00  0.00    +0.018 C 
ATOM     22  C   UNL     1      -4.066   2.962  24.331  0.00  0.00    +0.010 C 
ATOM     23  C   UNL     1      -3.672   3.715  24.112  0.00  0.00    +0.018 C 
ATOM     24  C   UNL     1      -3.242   3.903  24.714  0.00  0.00    +0.079 C 
BRANCH  24  25
ATOM     25  C   UNL     1      -2.718   4.477  24.989  0.00  0.00    +0.131 C 
BRANCH  25  26
ATOM     26  N   UNL     1      -1.921   4.444  24.778  0.00  0.00    -0.204 NA
ATOM     27  C   UNL     1      -1.405   5.041  25.016  0.00  0.00    +0.240 C 
ATOM     28  O   UNL     1      -1.686   5.673  25.466  0.00  0.00    -0.273 OA
BRANCH  27  29
ATOM     29  C   UNL     1      -0.608   5.007  24.805  0.00  0.00    +0.071 C 
ATOM     30  C   UNL     1       0.189   4.973  24.594  0.00  0.00    +0.009 C 
ATOM     31  C   UNL     1      -0.670   5.749  24.451  0.00  0.00    +0.009 C 
ATOM     32  C   UNL     1      -0.546   4.265  25.159  0.00  0.00    +0.009 C 
ENDBRANCH  27  29
ENDBRANCH  25  26
ENDBRANCH  24  25
ENDBRANCH  15  17
BRANCH  10   7
ATOM      4  C   UNL     1      -3.502  -1.812  24.627  0.00  0.00    +0.048 A 
ATOM      5  C   UNL     1      -3.479  -1.437  25.360  0.00  0.00    +0.015 A 
ATOM      6  C   UNL     1      -3.839  -0.701  25.459  0.00  0.00    +0.003 A 
ATOM      7  C   UNL     1      -4.222  -0.340  24.823  0.00  0.00    +0.018 A 
ATOM      8  C   UNL     1      -4.245  -0.716  24.089  0.00  0.00    +0.003 A 
ATOM      9  C   UNL     1      -3.885  -1.452  23.990  0.00  0.00    +0.015 A 
BRANCH   4   2
ATOM      1  C   UNL     1      -3.601  -3.233  24.502  0.00  0.00    +0.112 C 
ATOM      2  N   UNL     1      -3.141  -2.548  24.528  0.00  0.00    -0.304 N 
ATOM      3  C   UNL     1      -2.322  -2.599  24.455  0.00  0.00    +0.112 C 
ENDBRANCH   4   2
ENDBRANCH  10   7
TORSDOF 6
ENDMDL
MODEL 2
REMARK VINA RESULT:      -9.7      1.761      5.475
REMARK  Name = 
REMARK  6 active torsions:
REMARK  status: ('A' for Active; 'I' for Inactive)
REMARK    1  A    between atoms: N_2  and  C_4
REMARK    2  A    between atoms: C_7  and  C_10
REMARK    3  A    between atoms: C_15  and  C_17
REMARK    4  A    between atoms: C_24  and  C_25
REMARK    5  A    between atoms: C_25  and  N_26
REMARK    6  A    between atoms: C_27  and  C_29
REMARK                            x       y       z     vdW  Elec       q    Type
REMARK                         _______ _______ _______ _____ _____    ______ ____
ROOT
ATOM     10  C   UNL     1      -3.835   3.109  25.322  0.00  0.00    +0.084 A 
ATOM     11  N   UNL     1      -4.578   3.409  25.521  0.00  0.00    -0.231 NA
ATOM     12  C   UNL     1      -5.222   2.899  25.597  0.00  0.00    +0.139 A 
ATOM     13  C   UNL     1      -5.964   3.198  25.797  0.00  0.00    +0.074 C 
ATOM     14  N   UNL     1      -5.123   2.089  25.474  0.00  0.00    -0.235 NA
ATOM     15  C   UNL     1      -4.380   1.790  25.275  0.00  0.00    +0.063 A 
ATOM     16  C   UNL     1      -3.736   2.300  25.199  0.00  0.00    +0.034 A 
ENDROOT
BRANCH  15  17
ATOM     17  C   UNL     1      -4.281   0.979  25.152  0.00  0.00    +0.056 C 
ATOM     18  C   UNL     1      -3.996   0.561  25.743  0.00  0.00    +0.078 C 
ATOM     19  N   UNL     1      -4.210   0.272  25.000  0.00  0.00    -0.272 NA
ATOM     20  C   UNL     1      -4.554   1.087  24.438  0.00  0.00    +0.072 C 
ATOM     21  C   UNL     1      -4.795   1.332  23.882  0.00  0.00    +0.018 C 
ATOM     22  C   UNL     1      -4.488   0.688  24.425  0.00  0.00    +0.010 C 
ATOM     23  C   UNL     1      -4.465  -0.122  24.088  0.00  0.00    +0.018 C 
ATOM     24  C   UNL     1      -4.189  -0.568  24.643  0.00  0.00    +0.079 C 
BRANCH  24  25
ATOM     25  C   UNL     1      -3.989  -1.348  24.817  0.00  0.00    +0.131 C 
BRANCH  25  26
ATOM     26  N   UNL     1      -3.295  -1.673  24.513  0.00  0.00    -0.204 NA
ATOM     27  C   UNL     1      -3.041  -2.416  24.766  0.00  0.00    +0.240 C 
ATOM     28  O   UNL     1      -3.483  -2.835  25.323  0.00  0.00    -0.273 OA
BRANCH  27  29
ATOM     29  C   UNL     1      -2.347  -2.742  24.463  0.00  0.00    +0.071 C 
ATOM     30  C   UNL     1      -1.652  -3.067  24.159  0.00  0.00    +0.009 C 
ATOM     31  C   UNL     1      -2.791  -3.246  23.984  0.00  0.00    +0.009 C 
ATOM     32  C   UNL     1      -1.902  -2.237  24.941  0.00  0.00    +0.009 C 
ENDBRANCH  27  29
ENDBRANCH  25  26
ENDBRANCH  24  25
ENDBRANCH  15  17
BRANCH  10   7
ATOM      4  C   UNL     1      -1.906   4.643  25.095  0.00  0.00    +0.048 A 
ATOM      5  C   UNL     1      -2.424   4.535  24.463  0.00  0.00    +0.015 A 
ATOM      6  C   UNL     1      -3.067   4.024  24.538  0.00  0.00    +0.003 A 
ATOM      7  C   UNL     1      -3.192   3.621  25.246  0.00  0.00    +0.018 A 
ATOM      8  C   UNL     1      -2.674   3.728  25.879  0.00  0.00    +0.003 A 
ATOM      9  C   UNL     1      -2.030   4.239  25.804  0.00  0.00    +0.015 A 
BRANCH   4   2
ATOM      1  C   UNL     1      -0.498   4.849  24.957  0.00  0.00    +0.112 C 
ATOM      2  N   UNL     1      -1.262   5.154  25.020  0.00  0.00    -0.304 N 
ATOM      3  C   UNL     1      -1.383   5.970  25.007  0.00  0.00    +0.112 C 
ENDBRANCH   4   2
ENDBRANCH  10   7
TORSDOF 6
ENDMDL
MODEL 3
REMARK VINA RESULT:      -9.2      3.185      5.138
REMARK  Name = 
REMARK  6 active torsions:
REMARK  status: ('A' for Active; 'I' for Inactive)
REMARK    1  A    between atoms: N_2  and  C_4
REMARK    2  A    between atoms: C_7  and  C_10
REMARK    3  A    between atoms: C_15  and  C_17
REMARK    4  A    between atoms: C_24  and  C_25
REMARK    5  A    between atoms: C_25  and  N_26
REMARK    6  A    between atoms: C_27  and  C_29
REMARK                            x       y       z     vdW  Elec       q    Type
REMARK                         _______ _______ _______ _____ _____    ______ ____
ROOT
ATOM     10  C   UNL     1      -2.359   3.460  24.883  0.00  0.00    +0.084 A 
ATOM     11  N   UNL     1      -2.116   4.233  25.035  0.00  0.00    -0.231 NA
ATOM     12  C   UNL     1      -1.325   4.444  24.930  0.00  0.00    +0.139 A 
ATOM     13  C   UNL     1      -1.080   5.218  25.082  0.00  0.00    +0.074 C 
ATOM     14  N   UNL     1      -0.779   3.882  24.674  0.00  0.00    -0.235 NA
ATOM     15  C   UNL     1      -1.023   3.109  24.522  0.00  0.00    +0.063 A 
ATOM     16  C   UNL     1      -1.813   2.898  24.626  0.00  0.00    +0.034 A 
ENDROOT
BRANCH  15  17
ATOM     17  C   UNL     1      -0.476   2.546  24.265  0.00  0.00    +0.056 C 
ATOM     18  C   UNL     1      -0.454   2.392  23.503  0.00  0.00    +0.078 C 
ATOM     19  N   UNL     1       0.019   2.045  24.084  0.00  0.00    -0.272 NA
ATOM     20  C   UNL     1      -0.258   2.468  25.002  0.00  0.00    +0.072 C 
ATOM     21  C   UNL     1      -0.188   2.516  25.650  0.00  0.00    +0.018 C 
ATOM     22  C   UNL     1      -0.008   2.201  24.829  0.00  0.00    +0.010 C 
ATOM     23  C   UNL     1       0.624   1.595  24.779  0.00  0.00    +0.018 C 
ATOM     24  C   UNL     1       0.677   1.415  24.039  0.00  0.00    +0.079 C 
BRANCH  24  25
ATOM     25  C   UNL     1       1.088   0.934  23.510  0.00  0.00    +0.131 C 
BRANCH  25  26
ATOM     26  N   UNL     1       1.912   0.951  23.492  0.00  0.00    -0.204 NA
ATOM     27  C   UNL     1       2.323   0.504  22.934  0.00  0.00    +0.240 C 
ATOM     28  O   UNL     1       1.909   0.038  22.394  0.00  0.00    -0.273 OA
BRANCH  27  29
ATOM     29  C   UNL     1       3.148   0.521  22.916  0.00  0.00    +0.071 C 
ATOM     30  C   UNL     1       3.972   0.539  22.897  0.00  0.00    +0.009 C 
ATOM     31  C   UNL     1       3.170  -0.274  23.133  0.00  0.00    +0.009 C 
ATOM     32  C   UNL     1       3.126   1.317  22.698  0.00  0.00    +0.009 C 
ENDBRANCH  27  29
ENDBRANCH  25  26
ENDBRANCH  24  25
ENDBRANCH  15  17
BRANCH  10   7
ATOM      4  C   UNL     1      -4.732   2.829  25.198  0.00  0.00    +0.048 A 
ATOM      5  C   UNL     1      -4.391   2.788  24.448  0.00  0.00    +0.015 A 
ATOM      6  C   UNL     1      -3.600   2.998  24.343  0.00  0.00    +0.003 A 
ATOM      7  C   UNL     1      -3.150   3.250  24.987  0.00  0.00    +0.018 A 
ATOM      8  C   UNL     1      -3.492   3.291  25.737  0.00  0.00    +0.003 A 
ATOM      9  C   UNL     1      -4.283   3.081  25.843  0.00  0.00    +0.015 A 
BRANCH   4   2
ATOM      1  C   UNL     1      -6.029   3.114  25.729  0.00  0.00    +0.112 C 
ATOM      2  N   UNL     1      -5.523   2.619  25.303  0.00  0.00    -0.304 N 
ATOM      3  C   UNL     1      -5.809   1.915  24.983  0.00  0.00    +0.112 C 
ENDBRANCH   4   2
ENDBRANCH  10   7
TORSDOF 6
ENDMDL
MODEL 4
REMARK VINA RESULT:      -8.7      3.566      5.072
REMARK  Name = 
REMARK  6 active torsions:
REMARK  status: ('A' for Active; 'I' for Inactive)
REMARK    1  A    between atoms: N_2  and  C_4
REMARK    2  A    between atoms: C_7  and  C_10
REMARK    3  A    between atoms: C_15  and  C_17
REMARK    4  A    between atoms: C_24  and  C_25
REMARK    5  A    between atoms: C_25  and  N_26
REMARK    6  A    between atoms: C_27  and  C_29
REMARK                            x       y       z     vdW  Elec       q    Type
REMARK                         _______ _______ _______ _____ _____    ______ ____
ROOT
ATOM     10  C   UNL     1      -2.917   0.722  24.645  0.00  0.00    +0.084 A 
ATOM     11  N   UNL     1      -3.276   0.018  24.881  0.00  0.00    -0.231 NA
ATOM     12  C   UNL     1      -2.880  -0.700  24.785  0.00  0.00    +0.139 A 
ATOM     13  C   UNL     1      -3.238  -1.404  25.021  0.00  0.00    +0.074 C 
ATOM     14  N   UNL     1      -2.124  -0.712  24.454  0.00  0.00    -0.235 NA
ATOM     15  C   UNL     1      -1.766  -0.007  24.218  0.00  0.00    +0.063 A 
ATOM     16  C   UNL     1      -2.162   0.709  24.313  0.00  0.00    +0.034 A 
ENDROOT
BRANCH  15  17
ATOM     17  C   UNL     1      -1.009  -0.020  23.887  0.00  0.00    +0.056 C 
ATOM     18  C   UNL     1      -0.947   0.172  23.135  0.00  0.00    +0.078 C 
ATOM     19  N   UNL     1      -0.327  -0.044  23.636  0.00  0.00    -0.272 NA
ATOM     20  C   UNL     1      -0.745  -0.240  24.578  0.00  0.00    +0.072 C 
ATOM     21  C   UNL     1      -0.678  -0.416  25.203  0.00  0.00    +0.018 C 
ATOM     22  C   UNL     1      -0.397  -0.232  24.372  0.00  0.00    +0.010 C 
ATOM     23  C   UNL     1       0.466  -0.309  24.230  0.00  0.00    +0.018 C 
ATOM     24  C   UNL     1       0.570  -0.127  23.496  0.00  0.00    +0.079 C 
BRANCH  24  25
ATOM     25  C   UNL     1       1.153  -0.051  22.917  0.00  0.00    +0.131 C 
BRANCH  25  26
ATOM     26  N   UNL     1       1.921   0.162  23.131  0.00  0.00    -0.204 NA
ATOM     27  C   UNL     1       2.515   0.192  22.560  0.00  0.00    +0.240 C 
ATOM     28  O   UNL     1       2.341   0.009  21.775  0.00  0.00    -0.273 OA
BRANCH  27  29
ATOM     29  C   UNL     1       3.283   0.405  22.774  0.00  0.00    +0.071 C 
ATOM     30  C   UNL     1       4.051   0.617  22.988  0.00  0.00    +0.009 C 
ATOM     31  C   UNL     1       3.079   1.202  22.714  0.00  0.00    +0.009 C 
ATOM     32  C   UNL     1       3.487  -0.392  22.834  0.00  0.00    +0.009 C 
ENDBRANCH  27  29
ENDBRANCH  25  26
ENDBRANCH  24  25
ENDBRANCH  15  17
BRANCH  10   7
ATOM      4  C   UNL     1      -4.110   2.872  24.931  0.00  0.00    +0.048 A 
ATOM      5  C   UNL     1      -3.463   2.692  25.410  0.00  0.00    +0.015 A 
ATOM      6  C   UNL     1      -3.065   1.975  25.315  0.00  0.00    +0.003 A 
ATOM      7  C   UNL     1      -3.314   1.439  24.740  0.00  0.00    +0.018 A 
ATOM      8  C   UNL     1      -3.961   1.619  24.261  0.00  0.00    +0.003 A 
ATOM      9  C   UNL     1      -4.359   2.335  24.356  0.00  0.00    +0.015 A 
BRANCH   4   2
ATOM      1  C   UNL     1      -4.234   4.267  24.644  0.00  0.00    +0.112 C 
ATOM      2  N   UNL     1      -4.508   3.589  25.026  0.00  0.00    -0.304 N 
ATOM      3  C   UNL     1      -5.180   3.627  25.503  0.00  0.00    +0.112 C 
ENDBRANCH   4   2
ENDBRANCH  10   7
TORSDOF 6
ENDMDL
MODEL 5
REMARK VINA RESULT:      -8.6      2.435      5.789
REMARK  Name = 
REMARK  6 active torsions:
REMARK  status: ('A' for Active; 'I' for Inactive)
REMARK    1  A    between atoms: N_2  and  C_4
REMARK    2  A    between atoms: C_7  and  C_10
REMARK    3  A    between atoms: C_15  and  C_17
REMARK    4  A    between atoms: C_24  and  C_25
REMARK    5  A    between atoms: C_25  and  N_26
REMARK    6  A    between atoms: C_27  and  C_29
REMARK                            x       y       z     vdW  Elec       q    Type
REMARK                         _______ _______ _______ _____ _____    ______ ____
ROOT
ATOM     10  C   UNL     1      -2.588   2.936  24.843  0.00  0.00    +0.084 A 
ATOM     11  N   UNL     1      -1.952   3.428  24.656  0.00  0.00    -0.231 NA
ATOM     12  C   UNL     1      -1.214   3.102  24.485  0.00  0.00    +0.139 A 
ATOM     13  C   UNL     1      -0.578   3.593  24.298  0.00  0.00    +0.074 C 
ATOM     14  N   UNL     1      -1.112   2.283  24.500  0.00  0.00    -0.235 NA
ATOM     15  C   UNL     1      -1.748   1.792  24.686  0.00  0.00    +0.063 A 
ATOM     16  C   UNL     1      -2.486   2.118  24.858  0.00  0.00    +0.034 A 
ENDROOT
BRANCH  15  17
ATOM     17  C   UNL     1      -1.646   0.972  24.701  0.00  0.00    +0.056 C 
ATOM     18  C   UNL     1      -2.021   0.557  24.160  0.00  0.00    +0.078 C 
ATOM     19  N   UNL     1      -1.528   0.257  24.751  0.00  0.00    -0.272 NA
ATOM     20  C   UNL     1      -1.183   1.073  25.311  0.00  0.00    +0.072 C 
ATOM     21  C   UNL     1      -0.827   1.315  25.802  0.00  0.00    +0.018 C 
ATOM     22  C   UNL     1      -1.164   0.670  25.278  0.00  0.00    +0.010 C 
ATOM     23  C   UNL     1      -0.923  -0.151  25.472  0.00  0.00    +0.018 C 
ATOM     24  C   UNL     1      -1.273  -0.595  24.958  0.00  0.00    +0.079 C 
BRANCH  24  25
ATOM     25  C   UNL     1      -1.365  -1.381  24.728  0.00  0.00    +0.131 C 
BRANCH  25  26
ATOM     26  N   UNL     1      -2.106  -1.741  24.779  0.00  0.00    -0.204 NA
ATOM     27  C   UNL     1      -2.213  -2.507  24.494  0.00  0.00    +0.240 C 
ATOM     28  O   UNL     1      -1.579  -2.913  24.156  0.00  0.00    -0.273 OA
BRANCH  27  29
ATOM     29  C   UNL     1      -2.953  -2.867  24.545  0.00  0.00    +0.071 C 
ATOM     30  C   UNL     1      -3.694  -3.227  24.596  0.00  0.00    +0.009 C 
ATOM     31  C   UNL     1      -3.015  -2.857  23.722  0.00  0.00    +0.009 C 
ATOM     32  C   UNL     1      -2.891  -2.877  25.368  0.00  0.00    +0.009 C 
ENDBRANCH  27  29
ENDBRANCH  25  26
ENDBRANCH  24  25
ENDBRANCH  15  17
BRANCH  10   7
ATOM      4  C   UNL     1      -4.801   3.919  25.356  0.00  0.00    +0.048 A 
ATOM      5  C   UNL     1      -4.210   3.910  25.931  0.00  0.00    +0.015 A 
ATOM      6  C   UNL     1      -3.472   3.582  25.761  0.00  0.00    +0.003 A 
ATOM      7  C   UNL     1      -3.325   3.264  25.014  0.00  0.00    +0.018 A 
ATOM      8  C   UNL     1      -3.916   3.273  24.438  0.00  0.00    +0.003 A 
ATOM      9  C   UNL     1      -4.654   3.601  24.608  0.00  0.00    +0.015 A 
BRANCH   4   2
ATOM      1  C   UNL     1      -5.660   5.059  25.443  0.00  0.00    +0.112 C 
ATOM      2  N   UNL     1      -5.539   4.247  25.526  0.00  0.00    -0.304 N 
ATOM      3  C   UNL     1      -6.156   3.762  25.780  0.00  0.00    +0.112 C 
ENDBRANCH   4   2
ENDBRANCH  10   7
TORSDOF 6
ENDMDL
MODEL 6
REMARK VINA RESULT:      -8.6      3.516      4.998
REMARK  Name = 
REMARK  6 active torsions:
REMARK  status: ('A' for Active; 'I' for Inactive)
REMARK    1  A    between atoms: N_2  and  C_4
REMARK    2  A    between atoms: C_7  and  C_10
REMARK    3  A    between atoms: C_15  and  C_17
REMARK    4  A    between atoms: C_24  and  C_25
REMARK    5  A    between atoms: C_25  and  N_26
REMARK    6  A    between atoms: C_27  and  C_29
REMARK                            x       y       z     vdW  Elec       q    Type
REMARK                         _______ _______ _______ _____ _____    ______ ____
ROOT
ATOM     10  C   UNL     1       0.169  -0.137  23.822  0.00  0.00    +0.084 A 
ATOM     11  N   UNL     1       0.005  -0.887  24.124  0.00  0.00    -0.231 NA
ATOM     12  C   UNL     1      -0.706  -1.025  24.520  0.00  0.00    +0.139 A 
ATOM     13  C   UNL     1      -0.872  -1.774  24.823  0.00  0.00    +0.074 C 
ATOM     14  N   UNL     1      -1.252  -0.413  24.612  0.00  0.00    -0.235 NA
ATOM     15  C   UNL     1      -1.086   0.336  24.310  0.00  0.00    +0.063 A 
ATOM     16  C   UNL     1      -0.376   0.474  23.915  0.00  0.00    +0.034 A 
ENDROOT
BRANCH  15  17
ATOM     17  C   UNL     1      -1.633   0.949  24.402  0.00  0.00    +0.056 C 
ATOM     18  C   UNL     1      -2.149   1.056  23.829  0.00  0.00    +0.078 C 
ATOM     19  N   UNL     1      -2.094   1.497  24.525  0.00  0.00    -0.272 NA
ATOM     20  C   UNL     1      -1.300   1.100  25.082  0.00  0.00    +0.072 C 
ATOM     21  C   UNL     1      -0.923   1.104  25.616  0.00  0.00    +0.018 C 
ATOM     22  C   UNL     1      -1.586   1.386  25.082  0.00  0.00    +0.010 C 
ATOM     23  C   UNL     1      -2.056   2.066  25.377  0.00  0.00    +0.018 C 
ATOM     24  C   UNL     1      -2.578   2.204  24.838  0.00  0.00    +0.079 C 
BRANCH  24  25
ATOM     25  C   UNL     1      -3.209   2.701  24.650  0.00  0.00    +0.131 C 
BRANCH  25  26
ATOM     26  N   UNL     1      -3.918   2.643  25.068  0.00  0.00    -0.204 NA
ATOM     27  C   UNL     1      -4.555   3.128  24.871  0.00  0.00    +0.240 C 
ATOM     28  O   UNL     1      -4.482   3.673  24.255  0.00  0.00    -0.273 OA
BRANCH  27  29
ATOM     29  C   UNL     1      -5.264   3.070  25.289  0.00  0.00    +0.071 C 
ATOM     30  C   UNL     1      -5.973   3.012  25.706  0.00  0.00    +0.009 C 
ATOM     31  C   UNL     1      -5.439   2.368  24.892  0.00  0.00    +0.009 C 
ATOM     32  C   UNL     1      -5.088   3.772  25.685  0.00  0.00    +0.009 C 
ENDBRANCH  27  29
ENDBRANCH  25  26
ENDBRANCH  24  25
ENDBRANCH  15  17
BRANCH  10   7
ATOM      4  C   UNL     1       2.303   0.275  22.637  0.00  0.00    +0.048 A 
ATOM      5  C   UNL     1       1.729  -0.210  22.297  0.00  0.00    +0.015 A 
ATOM      6  C   UNL     1       1.018  -0.347  22.691  0.00  0.00    +0.003 A 
ATOM      7  C   UNL     1       0.880  -0.000  23.427  0.00  0.00    +0.018 A 
ATOM      8  C   UNL     1       1.455   0.485  23.768  0.00  0.00    +0.003 A 
ATOM      9  C   UNL     1       2.166   0.622  23.373  0.00  0.00    +0.015 A 
BRANCH   4   2
ATOM      1  C   UNL     1       3.597   0.881  22.592  0.00  0.00    +0.112 C 
ATOM      2  N   UNL     1       3.015   0.412  22.242  0.00  0.00    -0.304 N 
ATOM      3  C   UNL     1       3.144   0.081  21.498  0.00  0.00    +0.112 C 
ENDBRANCH   4   2
ENDBRANCH  10   7
TORSDOF 6
ENDMDL
MODEL 7
REMARK VINA RESULT:      -8.3      2.640      4.373
REMARK  Name = 
REMARK  6 active torsions:
REMARK  status: ('A' for Active; 'I' for Inactive)
REMARK    1  A    between atoms: N_2  and  C_4
REMARK    2  A    between atoms: C_7  and  C_10
REMARK    3  A    between atoms: C_15  and  C_17
REMARK    4  A    between atoms: C_24  and  C_25
REMARK    5  A    between atoms: C_25  and  N_26
REMARK    6  A    between atoms: C_27  and  C_29
REMARK                            x       y       z     vdW  Elec       q    Type
REMARK                         _______ _______ _______ _____ _____    ______ ____
ROOT
ATOM     10  C   UNL     1      -1.308  -0.794  24.314  0.00  0.00    +0.084 A 
ATOM     11  N   UNL     1      -1.379  -1.607  24.433  0.00  0.00    -0.231 NA
ATOM     12  C   UNL     1      -2.082  -1.921  24.730  0.00  0.00    +0.139 A 
ATOM     13  C   UNL     1      -2.154  -2.734  24.850  0.00  0.00    +0.074 C 
ATOM     14  N   UNL     1      -2.714  -1.421  24.907  0.00  0.00    -0.235 NA
ATOM     15  C   UNL     1      -2.642  -0.608  24.787  0.00  0.00    +0.063 A 
ATOM     16  C   UNL     1      -1.940  -0.294  24.490  0.00  0.00    +0.034 A 
ENDROOT
BRANCH  15  17
ATOM     17  C   UNL     1      -3.275  -0.107  24.964  0.00  0.00    +0.056 C 
ATOM     18  C   UNL     1      -3.232   0.302  25.625  0.00  0.00    +0.078 C 
ATOM     19  N   UNL     1      -3.852   0.319  25.080  0.00  0.00    -0.272 NA
ATOM     20  C   UNL     1      -3.603  -0.342  24.306  0.00  0.00    +0.072 C 
ATOM     21  C   UNL     1      -3.746  -0.630  23.737  0.00  0.00    +0.018 C 
ATOM     22  C   UNL     1      -3.888  -0.084  24.435  0.00  0.00    +0.010 C 
ATOM     23  C   UNL     1      -4.641   0.366  24.426  0.00  0.00    +0.018 C 
ATOM     24  C   UNL     1      -4.637   0.785  25.065  0.00  0.00    +0.079 C 
BRANCH  24  25
ATOM     25  C   UNL     1      -5.081   1.334  25.489  0.00  0.00    +0.131 C 
BRANCH  25  26
ATOM     26  N   UNL     1      -5.029   2.137  25.306  0.00  0.00    -0.204 NA
ATOM     27  C   UNL     1      -5.397   2.695  25.788  0.00  0.00    +0.240 C 
ATOM     28  O   UNL     1      -5.818   2.451  26.454  0.00  0.00    -0.273 OA
BRANCH  27  29
ATOM     29  C   UNL     1      -5.344   3.498  25.605  0.00  0.00    +0.071 C 
ATOM     30  C   UNL     1      -5.292   4.301  25.422  0.00  0.00    +0.009 C 
ATOM     31  C   UNL     1      -6.139   3.500  25.384  0.00  0.00    +0.009 C 
ATOM     32  C   UNL     1      -4.550   3.497  25.826  0.00  0.00    +0.009 C 
ENDBRANCH  27  29
ENDBRANCH  25  26
ENDBRANCH  24  25
ENDBRANCH  15  17
BRANCH  10   7
ATOM      4  C   UNL     1       0.803   0.143  23.423  0.00  0.00    +0.048 A 
ATOM      5  C   UNL     1       0.409   0.525  24.038  0.00  0.00    +0.015 A 
ATOM      6  C   UNL     1      -0.295   0.213  24.335  0.00  0.00    +0.003 A 
ATOM      7  C   UNL     1      -0.605  -0.482  24.017  0.00  0.00    +0.018 A 
ATOM      8  C   UNL     1      -0.211  -0.865  23.401  0.00  0.00    +0.003 A 
ATOM      9  C   UNL     1       0.493  -0.553  23.104  0.00  0.00    +0.015 A 
BRANCH   4   2
ATOM      1  C   UNL     1       1.936   0.037  22.557  0.00  0.00    +0.112 C 
ATOM      2  N   UNL     1       1.507   0.455  23.125  0.00  0.00    -0.304 N 
ATOM      3  C   UNL     1       1.781   1.184  23.396  0.00  0.00    +0.112 C 
ENDBRANCH   4   2
ENDBRANCH  10   7
TORSDOF 6
ENDMDL
MODEL 8
REMARK VINA RESULT:      -8.3      2.755      4.648
REMARK  Name = 
REMARK  6 active torsions:
REMARK  status: ('A' for Active; 'I' for Inactive)
REMARK    1  A    between atoms: N_2  and  C_4
REMARK    2  A    between atoms: C_7  and  C_10
REMARK    3  A    between atoms: C_15  and  C_17
REMARK    4  A    between atoms: C_24  and  C_25
REMARK    5  A    between atoms: C_25  and  N_26
REMARK    6  A    between atoms: C_27  and  C_29
REMARK                            x       y       z     vdW  Elec       q    Type
REMARK                         _______ _______ _______ _____ _____    ______ ____
ROOT
ATOM     10  C   UNL     1      -0.060   1.866  25.071  0.00  0.00    +0.084 A 
ATOM     11  N   UNL     1       0.410   2.054  25.722  0.00  0.00    -0.231 NA
ATOM     12  C   UNL     1       0.109   2.532  26.324  0.00  0.00    +0.139 A 
ATOM     13  C   UNL     1       0.579   2.721  26.976  0.00  0.00    +0.074 C 
ATOM     14  N   UNL     1      -0.661   2.822  26.274  0.00  0.00    -0.235 NA
ATOM     15  C   UNL     1      -1.131   2.633  25.622  0.00  0.00    +0.063 A 
ATOM     16  C   UNL     1      -0.831   2.156  25.021  0.00  0.00    +0.034 A 
ENDROOT
BRANCH  15  17
ATOM     17  C   UNL     1      -1.903   2.924  25.572  0.00  0.00    +0.056 C 
ATOM     18  C   UNL     1      -2.479   2.438  25.766  0.00  0.00    +0.078 C 
ATOM     19  N   UNL     1      -2.564   3.219  25.513  0.00  0.00    -0.272 NA
ATOM     20  C   UNL     1      -1.602   3.593  25.333  0.00  0.00    +0.072 C 
ATOM     21  C   UNL     1      -1.207   4.080  25.149  0.00  0.00    +0.018 C 
ATOM     22  C   UNL     1      -1.995   3.689  25.324  0.00  0.00    +0.010 C 
ATOM     23  C   UNL     1      -2.707   4.186  25.202  0.00  0.00    +0.018 C 
ATOM     24  C   UNL     1      -3.301   3.742  25.384  0.00  0.00    +0.079 C 
BRANCH  24  25
ATOM     25  C   UNL     1      -4.124   3.738  25.434  0.00  0.00    +0.131 C 
BRANCH  25  26
ATOM     26  N   UNL     1      -4.538   3.030  25.347  0.00  0.00    -0.204 NA
ATOM     27  C   UNL     1      -5.361   3.024  25.399  0.00  0.00    +0.240 C 
ATOM     28  O   UNL     1      -5.770   3.726  25.540  0.00  0.00    -0.273 OA
BRANCH  27  29
ATOM     29  C   UNL     1      -5.776   2.316  25.312  0.00  0.00    +0.071 C 
ATOM     30  C   UNL     1      -6.190   1.608  25.224  0.00  0.00    +0.009 C 
ATOM     31  C   UNL     1      -5.952   2.319  26.118  0.00  0.00    +0.009 C 
ATOM     32  C   UNL     1      -5.600   2.313  24.506  0.00  0.00    +0.009 C 
ENDBRANCH  27  29
ENDBRANCH  25  26
ENDBRANCH  24  25
ENDBRANCH  15  17
BRANCH  10   7
ATOM      4  C   UNL     1       0.845   0.431  23.269  0.00  0.00    +0.048 A 
ATOM      5  C   UNL     1       1.163   1.181  23.398  0.00  0.00    +0.015 A 
ATOM      6  C   UNL     1       0.861   1.660  23.999  0.00  0.00    +0.003 A 
ATOM      7  C   UNL     1       0.242   1.388  24.470  0.00  0.00    +0.018 A 
ATOM      8  C   UNL     1      -0.077   0.638  24.341  0.00  0.00    +0.003 A 
ATOM      9  C   UNL     1       0.224   0.159  23.740  0.00  0.00    +0.015 A 
BRANCH   4   2
ATOM      1  C   UNL     1       0.634  -0.496  22.201  0.00  0.00    +0.112 C 
ATOM      2  N   UNL     1       1.146  -0.048  22.668  0.00  0.00    -0.304 N 
ATOM      3  C   UNL     1       1.959  -0.078  22.534  0.00  0.00    +0.112 C 
ENDBRANCH   4   2
ENDBRANCH  10   7
TORSDOF 6
ENDMDL
