MODEL 1
REMARK VINA RESULT:      -8.9      0.000      0.000
REMARK  Name = 
REMARK  9 active torsions:
REMARK  status: ('A' for Active; 'I' for Inactive)
REMARK    1  A    between atoms: C_2  and  N_4
REMARK    2  A    between atoms: N_7  and  C_8
REMARK    3  A    between atoms: C_8  and  C_9
REMARK    4  A    between atoms: C_13  and  C_14
REMARK    5  A    between atoms: C_14  and  C_15
REMARK    6  A    between atoms: N_17  and  C_18
REMARK    7  A    between atoms: C_18  and  C_19
REMARK    8  A    between atoms: C_22  and  C_25
REMARK    9  A    between atoms: C_28  and  C_29
REMARK                            x       y       z     vdW  Elec       q    Type
REMARK                         _______ _______ _______ _____ _____    ______ ____
ROOT
ATOM      9  C   UNL     1      -0.300   0.370  24.091  0.00  0.00    +0.043 C 
ATOM     10  C   UNL     1      -0.428  -0.441  24.168  0.00  0.00    -0.033 C 
ATOM     11  C   UNL     1      -1.150  -0.718  24.458  0.00  0.00    -0.048 C 
ATOM     12  C   UNL     1      -1.279  -1.529  24.535  0.00  0.00    +0.026 C 
ATOM     13  C   UNL     1      -1.743  -0.184  24.668  0.00  0.00    +0.027 C 
ATOM     27  C   UNL     1      -1.613   0.627  24.590  0.00  0.00    +0.005 C 
ATOM     28  C   UNL     1      -0.892   0.904  24.301  0.00  0.00    +0.006 C 
ENDROOT
BRANCH  28  29
ATOM     29  C   UNL     1      -0.762   1.715  24.223  0.00  0.00    +0.000 C 
ATOM     30  C   UNL     1      -0.440   2.144  24.849  0.00  0.00    +0.000 C 
ATOM     31  C   UNL     1      -0.955   2.097  23.518  0.00  0.00    +0.000 C 
ENDBRANCH  28  29
BRANCH   9   8
ATOM      8  C   UNL     1       0.422   0.647  23.802  0.00  0.00    +0.121 C 
BRANCH   8   7
ATOM      4  N   UNL     1       2.166  -0.132  22.745  0.00  0.00    -0.189 NA
ATOM      5  C   UNL     1       1.685   0.365  23.195  0.00  0.00    +0.339 C 
ATOM      6  O   UNL     1       1.985   1.073  23.490  0.00  0.00    -0.249 OA
ATOM      7  N   UNL     1       0.903   0.151  23.351  0.00  0.00    -0.187 NA
BRANCH   4   2
ATOM      1  C   UNL     1       3.137   0.467  21.884  0.00  0.00    +0.023 C 
ATOM      2  C   UNL     1       2.948   0.082  22.589  0.00  0.00    +0.097 C 
ATOM      3  C   UNL     1       3.539  -0.089  23.137  0.00  0.00    +0.023 C 
ENDBRANCH   4   2
ENDBRANCH   8   7
ENDBRANCH   9   8
BRANCH  13  14
ATOM     14  C   UNL     1      -2.464  -0.461  24.957  0.00  0.00    +0.091 C 
BRANCH  14  15
ATOM     15  C   UNL     1      -3.170  -0.212  24.611  0.00  0.00    +0.242 C 
ATOM     16  O   UNL     1      -3.416  -0.541  23.895  0.00  0.00    -0.273 OA
ATOM     17  N   UNL     1      -3.631   0.363  24.980  0.00  0.00    -0.201 NA
BRANCH  17  18
ATOM     18  C   UNL     1      -4.336   0.611  24.634  0.00  0.00    +0.141 C 
BRANCH  18  19
ATOM     19  C   UNL     1      -4.680   1.326  24.862  0.00  0.00    -0.001 A 
ATOM     20  C   UNL     1      -4.495   2.022  24.458  0.00  0.00    -0.002 A 
ATOM     21  C   UNL     1      -4.838   2.736  24.687  0.00  0.00    +0.010 A 
ATOM     22  C   UNL     1      -5.367   2.755  25.319  0.00  0.00    +0.068 A 
ATOM     23  C   UNL     1      -5.553   2.060  25.724  0.00  0.00    +0.010 A 
ATOM     24  C   UNL     1      -5.209   1.346  25.495  0.00  0.00    -0.002 A 
BRANCH  22  25
ATOM     25  C   UNL     1      -5.711   3.469  25.549  0.00  0.00    +0.100 C 
ATOM     26  N   UNL     1      -6.055   4.183  25.778  0.00  0.00    -0.191 NA
ENDBRANCH  22  25
ENDBRANCH  18  19
ENDBRANCH  17  18
ENDBRANCH  14  15
ENDBRANCH  13  14
TORSDOF 9
ENDMDL
MODEL 2
REMARK VINA RESULT:      -8.3      1.419      6.542
REMARK  Name = 
REMARK  9 active torsions:
REMARK  status: ('A' for Active; 'I' for Inactive)
REMARK    1  A    between atoms: C_2  and  N_4
REMARK    2  A    between atoms: N_7  and  C_8
REMARK    3  A    between atoms: C_8  and  C_9
REMARK    4  A    between atoms: C_13  and  C_14
REMARK    5  A    between atoms: C_14  and  C_15
REMARK    6  A    between atoms: N_17  and  C_18
REMARK    7  A    between atoms: C_18  and  C_19
REMARK    8  A    between atoms: C_22  and  C_25
REMARK    9  A    between atoms: C_28  and  C_29
REMARK                            x       y       z     vdW  Elec       q    Type
REMARK                         _______ _______ _______ _____ _____    ______ ____
ROOT
ATOM      9  C   UNL     1      -1.617   1.602  24.759  0.00  0.00    +0.043 C 
ATOM     10  C   UNL     1      -1.876   0.836  24.593  0.00  0.00    -0.033 C 
ATOM     11  C   UNL     1      -1.337   0.265  24.340  0.00  0.00    -0.048 C 
ATOM     12  C   UNL     1      -1.596  -0.501  24.173  0.00  0.00    +0.026 C 
ATOM     13  C   UNL     1      -0.540   0.459  24.253  0.00  0.00    +0.027 C 
ATOM     27  C   UNL     1      -0.282   1.225  24.420  0.00  0.00    +0.005 C 
ATOM     28  C   UNL     1      -0.820   1.796  24.672  0.00  0.00    +0.006 C 
ENDROOT
BRANCH  28  29
ATOM     29  C   UNL     1      -0.563   2.562  24.839  0.00  0.00    +0.000 C 
ATOM     30  C   UNL     1      -0.603   3.146  24.259  0.00  0.00    +0.000 C 
ATOM     31  C   UNL     1      -0.265   2.743  25.587  0.00  0.00    +0.000 C 
ENDBRANCH  28  29
BRANCH   9   8
ATOM      8  C   UNL     1      -2.157   2.173  25.012  0.00  0.00    +0.121 C 
BRANCH   8   7
ATOM      4  N   UNL     1      -4.312   2.514  24.953  0.00  0.00    -0.189 NA
ATOM      5  C   UNL     1      -3.521   2.565  25.181  0.00  0.00    +0.339 C 
ATOM      6  O   UNL     1      -3.302   3.057  25.805  0.00  0.00    -0.249 OA
ATOM      7  N   UNL     1      -2.948   2.122  24.784  0.00  0.00    -0.187 NA
BRANCH   4   2
ATOM      1  C   UNL     1      -4.877   3.780  25.299  0.00  0.00    +0.023 C 
ATOM      2  C   UNL     1      -4.884   2.957  25.350  0.00  0.00    +0.097 C 
ATOM      3  C   UNL     1      -5.462   2.577  25.798  0.00  0.00    +0.023 C 
ENDBRANCH   4   2
ENDBRANCH   8   7
ENDBRANCH   9   8
BRANCH  13  14
ATOM     14  C   UNL     1      -0.001  -0.112  24.000  0.00  0.00    +0.091 C 
BRANCH  14  15
ATOM     15  C   UNL     1       0.489   0.040  23.354  0.00  0.00    +0.242 C 
ATOM     16  O   UNL     1       0.159   0.206  22.617  0.00  0.00    -0.273 OA
ATOM     17  N   UNL     1       1.308   0.024  23.445  0.00  0.00    -0.201 NA
BRANCH  17  18
ATOM     18  C   UNL     1       1.798   0.176  22.800  0.00  0.00    +0.141 C 
BRANCH  18  19
ATOM     19  C   UNL     1       2.617   0.183  22.895  0.00  0.00    -0.001 A 
ATOM     20  C   UNL     1       3.041   0.883  22.786  0.00  0.00    -0.002 A 
ATOM     21  C   UNL     1       3.860   0.889  22.881  0.00  0.00    +0.010 A 
ATOM     22  C   UNL     1       4.256   0.195  23.086  0.00  0.00    +0.068 A 
ATOM     23  C   UNL     1       3.834  -0.505  23.195  0.00  0.00    +0.010 A 
ATOM     24  C   UNL     1       3.014  -0.511  23.100  0.00  0.00    -0.002 A 
BRANCH  22  25
ATOM     25  C   UNL     1       5.076   0.201  23.182  0.00  0.00    +0.100 C 
ATOM     26  N   UNL     1       5.896   0.207  23.278  0.00  0.00    -0.191 NA
ENDBRANCH  22  25
ENDBRANCH  18  19
ENDBRANCH  17  18
ENDBRANCH  14  15
ENDBRANCH  13  14
TORSDOF 9
ENDMDL
MODEL 3
REMARK VINA RESULT:      -8.1      3.147      5.139
REMARK  Name = 
REMARK  9 active torsions:
REMARK  status: ('A' for Active; 'I' for Inactive)
REMARK    1  A    between atoms: C_2  and  N_4
REMARK    2  A    between atoms: N_7  and  C_8
REMARK    3  A    between atoms: C_8  and  C_9
REMARK    4  A    between atoms: C_13  and  C_14
REMARK    5  A    between atoms: C_14  and  C_15
REMARK    6  A    between atoms: N_17  and  C_18
REMARK    7  A    between atoms: C_18  and  C_19
REMARK    8  A    between atoms: C_22  and  C_25
REMARK    9  A    between atoms: C_28  and  C_29
REMARK                            x       y       z     vdW  Elec       q    Type
REMARK                         _______ _______ _______ _____ _____    ______ ____
ROOT
ATOM      9  C   UNL     1      -4.294   0.867  24.189  0.00  0.00    +0.043 C 
ATOM     10  C   UNL     1      -3.728   0.997  23.602  0.00  0.00    -0.033 C 
ATOM     11  C   UNL     1      -3.519   1.768  23.396  0.00  0.00    -0.048 C 
ATOM     12  C   UNL     1      -2.953   1.898  22.809  0.00  0.00    +0.026 C 
ATOM     13  C   UNL     1      -3.875   2.408  23.775  0.00  0.00    +0.027 C 
ATOM     27  C   UNL     1      -4.440   2.277  24.362  0.00  0.00    +0.005 C 
ATOM     28  C   UNL     1      -4.650   1.507  24.568  0.00  0.00    +0.006 C 
ENDROOT
BRANCH  28  29
ATOM     29  C   UNL     1      -5.215   1.376  25.155  0.00  0.00    +0.000 C 
ATOM     30  C   UNL     1      -4.980   1.252  25.935  0.00  0.00    +0.000 C 
ATOM     31  C   UNL     1      -6.017   1.368  24.959  0.00  0.00    +0.000 C 
ENDBRANCH  28  29
BRANCH   9   8
ATOM      8  C   UNL     1      -4.503   0.095  24.395  0.00  0.00    +0.121 C 
BRANCH   8   7
ATOM      4  N   UNL     1      -3.754  -1.888  23.878  0.00  0.00    -0.189 NA
ATOM      5  C   UNL     1      -4.034  -1.252  24.323  0.00  0.00    +0.339 C 
ATOM      6  O   UNL     1      -4.124  -1.327  25.139  0.00  0.00    -0.249 OA
ATOM      7  N   UNL     1      -4.224  -0.540  23.950  0.00  0.00    -0.187 NA
BRANCH   4   2
ATOM      1  C   UNL     1      -4.097  -3.230  24.231  0.00  0.00    +0.023 C 
ATOM      2  C   UNL     1      -3.565  -2.600  24.251  0.00  0.00    +0.097 C 
ATOM      3  C   UNL     1      -2.844  -2.681  24.642  0.00  0.00    +0.023 C 
ENDBRANCH   4   2
ENDBRANCH   8   7
ENDBRANCH   9   8
BRANCH  13  14
ATOM     14  C   UNL     1      -3.665   3.178  23.569  0.00  0.00    +0.091 C 
BRANCH  14  15
ATOM     15  C   UNL     1      -3.283   3.664  24.115  0.00  0.00    +0.242 C 
ATOM     16  O   UNL     1      -3.675   4.316  24.433  0.00  0.00    -0.273 OA
ATOM     17  N   UNL     1      -2.508   3.497  24.344  0.00  0.00    -0.201 NA
BRANCH  17  18
ATOM     18  C   UNL     1      -2.127   3.982  24.891  0.00  0.00    +0.141 C 
BRANCH  18  19
ATOM     19  C   UNL     1      -1.490   3.691  25.328  0.00  0.00    -0.001 A 
ATOM     20  C   UNL     1      -0.725   3.730  25.020  0.00  0.00    -0.002 A 
ATOM     21  C   UNL     1      -0.089   3.439  25.456  0.00  0.00    +0.010 A 
ATOM     22  C   UNL     1      -0.217   3.110  26.202  0.00  0.00    +0.068 A 
ATOM     23  C   UNL     1      -0.981   3.071  26.511  0.00  0.00    +0.010 A 
ATOM     24  C   UNL     1      -1.618   3.362  26.073  0.00  0.00    -0.002 A 
BRANCH  22  25
ATOM     25  C   UNL     1       0.419   2.819  26.640  0.00  0.00    +0.100 C 
ATOM     26  N   UNL     1       1.055   2.527  27.078  0.00  0.00    -0.191 NA
ENDBRANCH  22  25
ENDBRANCH  18  19
ENDBRANCH  17  18
ENDBRANCH  14  15
ENDBRANCH  13  14
TORSDOF 9
ENDMDL
MODEL 4
REMARK VINA RESULT:      -8.1      1.607      2.547
REMARK  Name = 
REMARK  9 active torsions:
REMARK  status: ('A' for Active; 'I' for Inactive)
REMARK    1  A    between atoms: C_2  and  N_4
REMARK    2  A    between atoms: N_7  and  C_8
REMARK    3  A    between atoms: C_8  and  C_9
REMARK    4  A    between atoms: C_13  and  C_14
REMARK    5  A    between atoms: C_14  and  C_15
REMARK    6  A    between atoms: N_17  and  C_18
REMARK    7  A    between atoms: C_18  and  C_19
REMARK    8  A    between atoms: C_22  and  C_25
REMARK    9  A    between atoms: C_28  and  C_29
REMARK                            x       y       z     vdW  Elec       q    Type
REMARK                         _______ _______ _______ _____ _____    ______ ____
ROOT
ATOM      9  C   UNL     1      -0.265   1.583  24.628  0.00  0.00    +0.043 C 
ATOM     10  C   UNL     1       0.067   2.338  24.654  0.00  0.00    -0.033 C 
ATOM     11  C   UNL     1      -0.319   2.944  25.060  0.00  0.00    -0.048 C 
ATOM     12  C   UNL     1       0.012   3.699  25.087  0.00  0.00    +0.026 C 
ATOM     13  C   UNL     1      -1.037   2.795  25.439  0.00  0.00    +0.027 C 
ATOM     27  C   UNL     1      -1.368   2.039  25.411  0.00  0.00    +0.005 C 
ATOM     28  C   UNL     1      -0.982   1.434  25.006  0.00  0.00    +0.006 C 
ENDROOT
BRANCH  28  29
ATOM     29  C   UNL     1      -1.313   0.679  24.979  0.00  0.00    +0.000 C 
ATOM     30  C   UNL     1      -1.161   0.139  25.583  0.00  0.00    +0.000 C 
ATOM     31  C   UNL     1      -1.797   0.463  24.347  0.00  0.00    +0.000 C 
ENDBRANCH  28  29
BRANCH   9   8
ATOM      8  C   UNL     1       0.122   0.977  24.222  0.00  0.00    +0.121 C 
BRANCH   8   7
ATOM      4  N   UNL     1       1.874   0.700  22.951  0.00  0.00    -0.189 NA
ATOM      5  C   UNL     1       1.186   0.538  23.375  0.00  0.00    +0.339 C 
ATOM      6  O   UNL     1       0.871  -0.224  23.375  0.00  0.00    -0.249 OA
ATOM      7  N   UNL     1       0.811   1.139  23.798  0.00  0.00    -0.187 NA
BRANCH   4   2
ATOM      1  C   UNL     1       3.000  -0.158  22.752  0.00  0.00    +0.023 C 
ATOM      2  C   UNL     1       2.249   0.098  22.527  0.00  0.00    +0.097 C 
ATOM      3  C   UNL     1       1.873  -0.246  21.880  0.00  0.00    +0.023 C 
ENDBRANCH   4   2
ENDBRANCH   8   7
ENDBRANCH   9   8
BRANCH  13  14
ATOM     14  C   UNL     1      -1.423   3.400  25.844  0.00  0.00    +0.091 C 
BRANCH  14  15
ATOM     15  C   UNL     1      -2.103   3.743  25.525  0.00  0.00    +0.242 C 
ATOM     16  O   UNL     1      -2.040   4.406  25.038  0.00  0.00    -0.273 OA
ATOM     17  N   UNL     1      -2.844   3.424  25.693  0.00  0.00    -0.201 NA
BRANCH  17  18
ATOM     18  C   UNL     1      -3.522   3.767  25.374  0.00  0.00    +0.141 C 
BRANCH  18  19
ATOM     19  C   UNL     1      -4.211   3.319  25.289  0.00  0.00    -0.001 A 
ATOM     20  C   UNL     1      -4.729   3.232  25.925  0.00  0.00    -0.002 A 
ATOM     21  C   UNL     1      -5.416   2.785  25.840  0.00  0.00    +0.010 A 
ATOM     22  C   UNL     1      -5.586   2.425  25.118  0.00  0.00    +0.068 A 
ATOM     23  C   UNL     1      -5.069   2.511  24.481  0.00  0.00    +0.010 A 
ATOM     24  C   UNL     1      -4.381   2.959  24.567  0.00  0.00    -0.002 A 
BRANCH  22  25
ATOM     25  C   UNL     1      -6.274   1.977  25.031  0.00  0.00    +0.100 C 
ATOM     26  N   UNL     1      -6.962   1.529  24.945  0.00  0.00    -0.191 NA
ENDBRANCH  22  25
ENDBRANCH  18  19
ENDBRANCH  17  18
ENDBRANCH  14  15
ENDBRANCH  13  14
TORSDOF 9
ENDMDL
MODEL 5
REMARK VINA RESULT:      -8.1      1.679      2.993
REMARK  Name = 
REMARK  9 active torsions:
REMARK  status: ('A' for Active; 'I' for Inactive)
REMARK    1  A    between atoms: C_2  and  N_4
REMARK    2  A    between atoms: N_7  and  C_8
REMARK    3  A    between atoms: C_8  and  C_9
REMARK    4  A    between atoms: C_13  and  C_14
REMARK    5  A    between atoms: C_14  and  C_15
REMARK    6  A    between atoms: N_17  and  C_18
REMARK    7  A    between atoms: C_18  and  C_19
REMARK    8  A    between atoms: C_22  and  C_25
REMARK    9  A    between atoms: C_28  and  C_29
REMARK                            x       y       z     vdW  Elec       q    Type
REMARK                         _______ _______ _______ _____ _____    ______ ____
ROOT
ATOM      9  C   UNL     1      -0.610   1.776  24.125  0.00  0.00    +0.043 C 
ATOM     10  C   UNL     1      -1.037   1.820  23.421  0.00  0.00    -0.033 C 
ATOM     11  C   UNL     1      -1.846   1.987  23.440  0.00  0.00    -0.048 C 
ATOM     12  C   UNL     1      -2.273   2.031  22.736  0.00  0.00    +0.026 C 
ATOM     13  C   UNL     1      -2.225   2.109  24.162  0.00  0.00    +0.027 C 
ATOM     27  C   UNL     1      -1.796   2.065  24.866  0.00  0.00    +0.005 C 
ATOM     28  C   UNL     1      -0.989   1.898  24.848  0.00  0.00    +0.006 C 
ENDROOT
BRANCH  28  29
ATOM     29  C   UNL     1      -0.560   1.854  25.551  0.00  0.00    +0.000 C 
ATOM     30  C   UNL     1      -0.177   2.523  25.844  0.00  0.00    +0.000 C 
ATOM     31  C   UNL     1      -0.515   1.140  25.962  0.00  0.00    +0.000 C 
ENDBRANCH  28  29
BRANCH   9   8
ATOM      8  C   UNL     1       0.199   1.610  24.107  0.00  0.00    +0.121 C 
BRANCH   8   7
ATOM      4  N   UNL     1       1.524   0.261  23.016  0.00  0.00    -0.189 NA
ATOM      5  C   UNL     1       1.249   0.926  23.420  0.00  0.00    +0.339 C 
ATOM      6  O   UNL     1       1.749   1.569  23.543  0.00  0.00    -0.249 OA
ATOM      7  N   UNL     1       0.473   0.945  23.702  0.00  0.00    -0.187 NA
BRANCH   4   2
ATOM      1  C   UNL     1       2.929   0.361  23.254  0.00  0.00    +0.023 C 
ATOM      2  C   UNL     1       2.299   0.241  22.734  0.00  0.00    +0.097 C 
ATOM      3  C   UNL     1       2.444   0.102  21.935  0.00  0.00    +0.023 C 
ENDBRANCH   4   2
ENDBRANCH   8   7
ENDBRANCH   9   8
BRANCH  13  14
ATOM     14  C   UNL     1      -3.033   2.275  24.181  0.00  0.00    +0.091 C 
BRANCH  14  15
ATOM     15  C   UNL     1      -3.548   1.774  24.586  0.00  0.00    +0.242 C 
ATOM     16  O   UNL     1      -3.959   2.052  25.245  0.00  0.00    -0.273 OA
ATOM     17  N   UNL     1      -3.654   0.997  24.333  0.00  0.00    -0.201 NA
BRANCH  17  18
ATOM     18  C   UNL     1      -4.169   0.497  24.738  0.00  0.00    +0.141 C 
BRANCH  18  19
ATOM     19  C   UNL     1      -4.066  -0.321  24.700  0.00  0.00    -0.001 A 
ATOM     20  C   UNL     1      -3.740  -0.726  25.341  0.00  0.00    -0.002 A 
ATOM     21  C   UNL     1      -3.638  -1.543  25.303  0.00  0.00    +0.010 A 
ATOM     22  C   UNL     1      -3.862  -1.956  24.625  0.00  0.00    +0.068 A 
ATOM     23  C   UNL     1      -4.188  -1.552  23.984  0.00  0.00    +0.010 A 
ATOM     24  C   UNL     1      -4.290  -0.733  24.022  0.00  0.00    -0.002 A 
BRANCH  22  25
ATOM     25  C   UNL     1      -3.760  -2.774  24.586  0.00  0.00    +0.100 C 
ATOM     26  N   UNL     1      -3.657  -3.592  24.548  0.00  0.00    -0.191 NA
ENDBRANCH  22  25
ENDBRANCH  18  19
ENDBRANCH  17  18
ENDBRANCH  14  15
ENDBRANCH  13  14
TORSDOF 9
ENDMDL
MODEL 6
REMARK VINA RESULT:      -8.0      3.080      4.914
REMARK  Name = 
REMARK  9 active torsions:
REMARK  status: ('A' for Active; 'I' for Inactive)
REMARK    1  A    between atoms: C_2  and  N_4
REMARK    2  A    between atoms: N_7  and  C_8
REMARK    3  A    between atoms: C_8  and  C_9
REMARK    4  A    between atoms: C_13  and  C_14
REMARK    5  A    between atoms: C_14  and  C_15
REMARK    6  A    between atoms: N_17  and  C_18
REMARK    7  A    between atoms: C_18  and  C_19
REMARK    8  A    between atoms: C_22  and  C_25
REMARK    9  A    between atoms: C_28  and  C_29
REMARK                            x       y       z     vdW  Elec       q    Type
REMARK                         _______ _______ _______ _____ _____    ______ ____
ROOT
ATOM      9  C   UNL     1      -4.269   0.635  24.371  0.00  0.00    +0.043 C 
ATOM     10  C   UNL     1      -4.937   0.658  24.855  0.00  0.00    -0.033 C 
ATOM     11  C   UNL     1      -5.225   1.384  25.125  0.00  0.00    -0.048 C 
ATOM     12  C   UNL     1      -5.892   1.408  25.609  0.00  0.00    +0.026 C 
ATOM     13  C   UNL     1      -4.845   2.084  24.910  0.00  0.00    +0.027 C 
ATOM     27  C   UNL     1      -4.177   2.059  24.426  0.00  0.00    +0.005 C 
ATOM     28  C   UNL     1      -3.889   1.335  24.157  0.00  0.00    +0.006 C 
ENDROOT
BRANCH  28  29
ATOM     29  C   UNL     1      -3.222   1.310  23.673  0.00  0.00    +0.000 C 
ATOM     30  C   UNL     1      -2.486   1.121  23.993  0.00  0.00    +0.000 C 
ATOM     31  C   UNL     1      -3.291   1.473  22.867  0.00  0.00    +0.000 C 
ENDBRANCH  28  29
BRANCH   9   8
ATOM      8  C   UNL     1      -3.981  -0.091  24.102  0.00  0.00    +0.121 C 
BRANCH   8   7
ATOM      4  N   UNL     1      -3.883  -2.169  24.761  0.00  0.00    -0.189 NA
ATOM      5  C   UNL     1      -3.826  -1.500  24.282  0.00  0.00    +0.339 C 
ATOM      6  O   UNL     1      -3.558  -1.569  23.506  0.00  0.00    -0.249 OA
ATOM      7  N   UNL     1      -4.038  -0.760  24.581  0.00  0.00    -0.187 NA
BRANCH   4   2
ATOM      1  C   UNL     1      -4.180  -3.308  23.950  0.00  0.00    +0.023 C 
ATOM      2  C   UNL     1      -3.671  -2.909  24.462  0.00  0.00    +0.097 C 
ATOM      3  C   UNL     1      -2.951  -3.249  24.675  0.00  0.00    +0.023 C 
ENDBRANCH   4   2
ENDBRANCH   8   7
ENDBRANCH   9   8
BRANCH  13  14
ATOM     14  C   UNL     1      -5.133   2.808  25.180  0.00  0.00    +0.091 C 
BRANCH  14  15
ATOM     15  C   UNL     1      -4.668   3.281  25.671  0.00  0.00    +0.242 C 
ATOM     16  O   UNL     1      -4.802   3.285  26.485  0.00  0.00    -0.273 OA
ATOM     17  N   UNL     1      -4.070   3.748  25.350  0.00  0.00    -0.201 NA
BRANCH  17  18
ATOM     18  C   UNL     1      -3.606   4.220  25.841  0.00  0.00    +0.141 C 
BRANCH  18  19
ATOM     19  C   UNL     1      -2.854   4.456  25.598  0.00  0.00    -0.001 A 
ATOM     20  C   UNL     1      -2.185   4.076  25.898  0.00  0.00    -0.002 A 
ATOM     21  C   UNL     1      -1.433   4.312  25.654  0.00  0.00    +0.010 A 
ATOM     22  C   UNL     1      -1.349   4.927  25.111  0.00  0.00    +0.068 A 
ATOM     23  C   UNL     1      -2.017   5.307  24.811  0.00  0.00    +0.010 A 
ATOM     24  C   UNL     1      -2.770   5.071  25.055  0.00  0.00    -0.002 A 
BRANCH  22  25
ATOM     25  C   UNL     1      -0.598   5.163  24.867  0.00  0.00    +0.100 C 
ATOM     26  N   UNL     1       0.155   5.400  24.624  0.00  0.00    -0.191 NA
ENDBRANCH  22  25
ENDBRANCH  18  19
ENDBRANCH  17  18
ENDBRANCH  14  15
ENDBRANCH  13  14
TORSDOF 9
ENDMDL
MODEL 7
REMARK VINA RESULT:      -7.9      1.983      5.519
REMARK  Name = 
REMARK  9 active torsions:
REMARK  status: ('A' for Active; 'I' for Inactive)
REMARK    1  A    between atoms: C_2  and  N_4
REMARK    2  A    between atoms: N_7  and  C_8
REMARK    3  A    between atoms: C_8  and  C_9
REMARK    4  A    between atoms: C_13  and  C_14
REMARK    5  A    between atoms: C_14  and  C_15
REMARK    6  A    between atoms: N_17  and  C_18
REMARK    7  A    between atoms: C_18  and  C_19
REMARK    8  A    between atoms: C_22  and  C_25
REMARK    9  A    between atoms: C_28  and  C_29
REMARK                            x       y       z     vdW  Elec       q    Type
REMARK                         _______ _______ _______ _____ _____    ______ ____
ROOT
ATOM      9  C   UNL     1      -2.398   2.540  24.264  0.00  0.00    +0.043 C 
ATOM     10  C   UNL     1      -1.932   2.667  24.933  0.00  0.00    -0.033 C 
ATOM     11  C   UNL     1      -1.200   2.291  25.002  0.00  0.00    -0.048 C 
ATOM     12  C   UNL     1      -0.734   2.417  25.670  0.00  0.00    +0.026 C 
ATOM     13  C   UNL     1      -0.936   1.790  24.402  0.00  0.00    +0.027 C 
ATOM     27  C   UNL     1      -1.403   1.664  23.734  0.00  0.00    +0.005 C 
ATOM     28  C   UNL     1      -2.134   2.039  23.665  0.00  0.00    +0.006 C 
ENDROOT
BRANCH  28  29
ATOM     29  C   UNL     1      -2.601   1.914  22.997  0.00  0.00    +0.000 C 
ATOM     30  C   UNL     1      -2.503   2.387  22.329  0.00  0.00    +0.000 C 
ATOM     31  C   UNL     1      -3.168   1.314  22.997  0.00  0.00    +0.000 C 
ENDBRANCH  28  29
BRANCH   9   8
ATOM      8  C   UNL     1      -3.130   2.916  24.196  0.00  0.00    +0.121 C 
BRANCH   8   7
ATOM      4  N   UNL     1      -4.641   3.699  25.562  0.00  0.00    -0.189 NA
ATOM      5  C   UNL     1      -4.296   3.346  24.901  0.00  0.00    +0.339 C 
ATOM      6  O   UNL     1      -4.770   3.068  24.287  0.00  0.00    -0.249 OA
ATOM      7  N   UNL     1      -3.475   3.270  24.856  0.00  0.00    -0.187 NA
BRANCH   4   2
ATOM      1  C   UNL     1      -5.928   3.115  25.774  0.00  0.00    +0.023 C 
ATOM      2  C   UNL     1      -5.462   3.775  25.607  0.00  0.00    +0.097 C 
ATOM      3  C   UNL     1      -5.816   4.509  25.486  0.00  0.00    +0.023 C 
ENDBRANCH   4   2
ENDBRANCH   8   7
ENDBRANCH   9   8
BRANCH  13  14
ATOM     14  C   UNL     1      -0.205   1.415  24.471  0.00  0.00    +0.091 C 
BRANCH  14  15
ATOM     15  C   UNL     1      -0.129   0.617  24.273  0.00  0.00    +0.242 C 
ATOM     16  O   UNL     1       0.308   0.398  23.609  0.00  0.00    -0.273 OA
ATOM     17  N   UNL     1      -0.489   0.040  24.738  0.00  0.00    -0.201 NA
BRANCH  17  18
ATOM     18  C   UNL     1      -0.413  -0.757  24.540  0.00  0.00    +0.141 C 
BRANCH  18  19
ATOM     19  C   UNL     1      -1.055  -1.268  24.628  0.00  0.00    -0.001 A 
ATOM     20  C   UNL     1      -1.519  -1.235  25.310  0.00  0.00    -0.002 A 
ATOM     21  C   UNL     1      -2.160  -1.746  25.398  0.00  0.00    +0.010 A 
ATOM     22  C   UNL     1      -2.338  -2.290  24.804  0.00  0.00    +0.068 A 
ATOM     23  C   UNL     1      -1.875  -2.324  24.122  0.00  0.00    +0.010 A 
ATOM     24  C   UNL     1      -1.233  -1.812  24.035  0.00  0.00    -0.002 A 
BRANCH  22  25
ATOM     25  C   UNL     1      -2.979  -2.802  24.891  0.00  0.00    +0.100 C 
ATOM     26  N   UNL     1      -3.621  -3.314  24.979  0.00  0.00    -0.191 NA
ENDBRANCH  22  25
ENDBRANCH  18  19
ENDBRANCH  17  18
ENDBRANCH  14  15
ENDBRANCH  13  14
TORSDOF 9
ENDMDL
MODEL 8
REMARK VINA RESULT:      -7.6      1.339      6.403
REMARK  Name = 
REMARK  9 active torsions:
REMARK  status: ('A' for Active; 'I' for Inactive)
REMARK    1  A    between atoms: C_2  and  N_4
REMARK    2  A    between atoms: N_7  and  C_8
REMARK    3  A    between atoms: C_8  and  C_9
REMARK    4  A    between atoms: C_13  and  C_14
REMARK    5  A    between atoms: C_14  and  C_15
REMARK    6  A    between atoms: N_17  and  C_18
REMARK    7  A    between atoms: C_18  and  C_19
REMARK    8  A    between atoms: C_22  and  C_25
REMARK    9  A    between atoms: C_28  and  C_29
REMARK                            x       y       z     vdW  Elec       q    Type
REMARK                         _______ _______ _______ _____ _____    ______ ____
ROOT
ATOM      9  C   UNL     1      -3.120   0.030  24.967  0.00  0.00    +0.043 C 
ATOM     10  C   UNL     1      -2.559   0.597  25.178  0.00  0.00    -0.033 C 
ATOM     11  C   UNL     1      -1.755   0.409  25.155  0.00  0.00    -0.048 C 
ATOM     12  C   UNL     1      -1.194   0.976  25.366  0.00  0.00    +0.026 C 
ATOM     13  C   UNL     1      -1.513  -0.344  24.922  0.00  0.00    +0.027 C 
ATOM     27  C   UNL     1      -2.076  -0.910  24.711  0.00  0.00    +0.005 C 
ATOM     28  C   UNL     1      -2.878  -0.724  24.734  0.00  0.00    +0.006 C 
ENDROOT
BRANCH  28  29
ATOM     29  C   UNL     1      -3.440  -1.290  24.523  0.00  0.00    +0.000 C 
ATOM     30  C   UNL     1      -3.667  -1.868  25.065  0.00  0.00    +0.000 C 
ATOM     31  C   UNL     1      -3.776  -1.277  23.769  0.00  0.00    +0.000 C 
ENDBRANCH  28  29
BRANCH   9   8
ATOM      8  C   UNL     1      -3.924   0.217  24.990  0.00  0.00    +0.121 C 
BRANCH   8   7
ATOM      4  N   UNL     1      -5.116   2.041  24.868  0.00  0.00    -0.189 NA
ATOM      5  C   UNL     1      -4.862   1.290  25.095  0.00  0.00    +0.339 C 
ATOM      6  O   UNL     1      -5.290   0.860  25.653  0.00  0.00    -0.249 OA
ATOM      7  N   UNL     1      -4.178   0.968  24.763  0.00  0.00    -0.187 NA
BRANCH   4   2
ATOM      1  C   UNL     1      -5.742   2.973  25.752  0.00  0.00    +0.023 C 
ATOM      2  C   UNL     1      -5.800   2.363  25.201  0.00  0.00    +0.097 C 
ATOM      3  C   UNL     1      -6.540   2.074  24.982  0.00  0.00    +0.023 C 
ENDBRANCH   4   2
ENDBRANCH   8   7
ENDBRANCH   9   8
BRANCH  13  14
ATOM     14  C   UNL     1      -0.711  -0.531  24.899  0.00  0.00    +0.091 C 
BRANCH  14  15
ATOM     15  C   UNL     1      -0.342  -0.684  24.177  0.00  0.00    +0.242 C 
ATOM     16  O   UNL     1      -0.530  -1.367  23.755  0.00  0.00    -0.273 OA
ATOM     17  N   UNL     1       0.214  -0.154  23.877  0.00  0.00    -0.201 NA
BRANCH  17  18
ATOM     18  C   UNL     1       0.582  -0.307  23.156  0.00  0.00    +0.141 C 
BRANCH  18  19
ATOM     19  C   UNL     1       1.344  -0.025  23.012  0.00  0.00    -0.001 A 
ATOM     20  C   UNL     1       1.609   0.660  23.389  0.00  0.00    -0.002 A 
ATOM     21  C   UNL     1       2.370   0.942  23.245  0.00  0.00    +0.010 A 
ATOM     22  C   UNL     1       2.868   0.539  22.724  0.00  0.00    +0.068 A 
ATOM     23  C   UNL     1       2.604  -0.145  22.347  0.00  0.00    +0.010 A 
ATOM     24  C   UNL     1       1.841  -0.427  22.491  0.00  0.00    -0.002 A 
BRANCH  22  25
ATOM     25  C   UNL     1       3.629   0.821  22.580  0.00  0.00    +0.100 C 
ATOM     26  N   UNL     1       4.392   1.102  22.436  0.00  0.00    -0.191 NA
ENDBRANCH  22  25
ENDBRANCH  18  19
ENDBRANCH  17  18
ENDBRANCH  14  15
ENDBRANCH  13  14
TORSDOF 9
ENDMDL
MODEL 9
REMARK VINA RESULT:      -7.6      2.618      4.919
REMARK  Name = 
REMARK  9 active torsions:
REMARK  status: ('A' for Active; 'I' for Inactive)
REMARK    1  A    between atoms: C_2  and  N_4
REMARK    2  A    between atoms: N_7  and  C_8
REMARK    3  A    between atoms: C_8  and  C_9
REMARK    4  A    between atoms: C_13  and  C_14
REMARK    5  A    between atoms: C_14  and  C_15
REMARK    6  A    between atoms: N_17  and  C_18
REMARK    7  A    between atoms: C_18  and  C_19
REMARK    8  A    between atoms: C_22  and  C_25
REMARK    9  A    between atoms: C_28  and  C_29
REMARK                            x       y       z     vdW  Elec       q    Type
REMARK                         _______ _______ _______ _____ _____    ______ ____
ROOT
ATOM      9  C   UNL     1      -3.464   2.252  24.258  0.00  0.00    +0.043 C 
ATOM     10  C   UNL     1      -4.015   2.225  24.872  0.00  0.00    -0.033 C 
ATOM     11  C   UNL     1      -4.460   1.541  24.995  0.00  0.00    -0.048 C 
ATOM     12  C   UNL     1      -5.011   1.513  25.608  0.00  0.00    +0.026 C 
ATOM     13  C   UNL     1      -4.355   0.886  24.505  0.00  0.00    +0.027 C 
ATOM     27  C   UNL     1      -3.803   0.914  23.892  0.00  0.00    +0.005 C 
ATOM     28  C   UNL     1      -3.358   1.597  23.768  0.00  0.00    +0.006 C 
ENDROOT
BRANCH  28  29
ATOM     29  C   UNL     1      -2.807   1.626  23.155  0.00  0.00    +0.000 C 
ATOM     30  C   UNL     1      -3.031   1.902  22.411  0.00  0.00    +0.000 C 
ATOM     31  C   UNL     1      -2.031   1.378  23.286  0.00  0.00    +0.000 C 
ENDBRANCH  28  29
BRANCH   9   8
ATOM      8  C   UNL     1      -3.018   2.936  24.135  0.00  0.00    +0.121 C 
BRANCH   8   7
ATOM      4  N   UNL     1      -1.926   4.421  25.303  0.00  0.00    -0.189 NA
ATOM      5  C   UNL     1      -2.280   4.040  24.663  0.00  0.00    +0.339 C 
ATOM      6  O   UNL     1      -2.253   4.381  23.913  0.00  0.00    -0.249 OA
ATOM      7  N   UNL     1      -2.663   3.317  24.775  0.00  0.00    -0.187 NA
BRANCH   4   2
ATOM      1  C   UNL     1      -0.742   5.160  24.994  0.00  0.00    +0.023 C 
ATOM      2  C   UNL     1      -1.543   5.145  25.191  0.00  0.00    +0.097 C 
ATOM      3  C   UNL     1      -1.961   5.850  25.277  0.00  0.00    +0.023 C 
ENDBRANCH   4   2
ENDBRANCH   8   7
ENDBRANCH   9   8
BRANCH  13  14
ATOM     14  C   UNL     1      -4.800   0.203  24.628  0.00  0.00    +0.091 C 
BRANCH  14  15
ATOM     15  C   UNL     1      -4.474  -0.538  24.468  0.00  0.00    +0.242 C 
ATOM     16  O   UNL     1      -4.685  -0.941  23.779  0.00  0.00    -0.273 OA
ATOM     17  N   UNL     1      -3.937  -0.876  24.994  0.00  0.00    -0.201 NA
BRANCH  17  18
ATOM     18  C   UNL     1      -3.611  -1.616  24.833  0.00  0.00    +0.141 C 
BRANCH  18  19
ATOM     19  C   UNL     1      -2.807  -1.751  24.961  0.00  0.00    -0.001 A 
ATOM     20  C   UNL     1      -2.436  -1.437  25.628  0.00  0.00    -0.002 A 
ATOM     21  C   UNL     1      -1.633  -1.572  25.756  0.00  0.00    +0.010 A 
ATOM     22  C   UNL     1      -1.200  -2.020  25.216  0.00  0.00    +0.068 A 
ATOM     23  C   UNL     1      -1.569  -2.334  24.548  0.00  0.00    +0.010 A 
ATOM     24  C   UNL     1      -2.374  -2.199  24.421  0.00  0.00    -0.002 A 
BRANCH  22  25
ATOM     25  C   UNL     1      -0.396  -2.156  25.342  0.00  0.00    +0.100 C 
ATOM     26  N   UNL     1       0.409  -2.292  25.469  0.00  0.00    -0.191 NA
ENDBRANCH  22  25
ENDBRANCH  18  19
ENDBRANCH  17  18
ENDBRANCH  14  15
ENDBRANCH  13  14
TORSDOF 9
ENDMDL
MODEL 10
REMARK VINA RESULT:      -7.3      2.150      3.225
REMARK  Name = 
REMARK  9 active torsions:
REMARK  status: ('A' for Active; 'I' for Inactive)
REMARK    1  A    between atoms: C_2  and  N_4
REMARK    2  A    between atoms: N_7  and  C_8
REMARK    3  A    between atoms: C_8  and  C_9
REMARK    4  A    between atoms: C_13  and  C_14
REMARK    5  A    between atoms: C_14  and  C_15
REMARK    6  A    between atoms: N_17  and  C_18
REMARK    7  A    between atoms: C_18  and  C_19
REMARK    8  A    between atoms: C_22  and  C_25
REMARK    9  A    between atoms: C_28  and  C_29
REMARK                            x       y       z     vdW  Elec       q    Type
REMARK                         _______ _______ _______ _____ _____    ______ ____
ROOT
ATOM      9  C   UNL     1      -0.628   1.420  24.843  0.00  0.00    +0.043 C 
ATOM     10  C   UNL     1      -0.439   1.651  25.613  0.00  0.00    -0.033 C 
ATOM     11  C   UNL     1      -0.557   2.434  25.848  0.00  0.00    -0.048 C 
ATOM     12  C   UNL     1      -0.369   2.665  26.618  0.00  0.00    +0.026 C 
ATOM     13  C   UNL     1      -0.862   2.984  25.315  0.00  0.00    +0.027 C 
ATOM     27  C   UNL     1      -1.050   2.752  24.546  0.00  0.00    +0.005 C 
ATOM     28  C   UNL     1      -0.933   1.971  24.310  0.00  0.00    +0.006 C 
ENDROOT
BRANCH  28  29
ATOM     29  C   UNL     1      -1.120   1.739  23.541  0.00  0.00    +0.000 C 
ATOM     30  C   UNL     1      -1.884   1.487  23.360  0.00  0.00    +0.000 C 
ATOM     31  C   UNL     1      -0.543   1.759  22.952  0.00  0.00    +0.000 C 
ENDBRANCH  28  29
BRANCH   9   8
ATOM      8  C   UNL     1      -0.510   0.638  24.607  0.00  0.00    +0.121 C 
BRANCH   8   7
ATOM      4  N   UNL     1      -0.785  -1.380  25.393  0.00  0.00    -0.189 NA
ATOM      5  C   UNL     1      -0.576  -0.762  24.888  0.00  0.00    +0.339 C 
ATOM      6  O   UNL     1      -0.225  -0.924  24.161  0.00  0.00    -0.249 OA
ATOM      7  N   UNL     1      -0.719   0.020  25.112  0.00  0.00    -0.187 NA
BRANCH   4   2
ATOM      1  C   UNL     1      -1.209  -2.576  24.735  0.00  0.00    +0.023 C 
ATOM      2  C   UNL     1      -0.642  -2.161  25.169  0.00  0.00    +0.097 C 
ATOM      3  C   UNL     1       0.066  -2.527  25.378  0.00  0.00    +0.023 C 
ENDBRANCH   4   2
ENDBRANCH   8   7
ENDBRANCH   9   8
BRANCH  13  14
ATOM     14  C   UNL     1      -0.979   3.765  25.551  0.00  0.00    +0.091 C 
BRANCH  14  15
ATOM     15  C   UNL     1      -1.689   4.148  25.375  0.00  0.00    +0.242 C 
ATOM     16  O   UNL     1      -1.689   4.813  24.887  0.00  0.00    -0.273 OA
ATOM     17  N   UNL     1      -2.398   3.867  25.688  0.00  0.00    -0.201 NA
BRANCH  17  18
ATOM     18  C   UNL     1      -3.107   4.249  25.512  0.00  0.00    +0.141 C 
BRANCH  18  19
ATOM     19  C   UNL     1      -3.808   3.817  25.459  0.00  0.00    -0.001 A 
ATOM     20  C   UNL     1      -4.176   3.714  24.728  0.00  0.00    -0.002 A 
ATOM     21  C   UNL     1      -4.876   3.282  24.675  0.00  0.00    +0.010 A 
ATOM     22  C   UNL     1      -5.209   2.953  25.354  0.00  0.00    +0.068 A 
ATOM     23  C   UNL     1      -4.842   3.055  26.086  0.00  0.00    +0.010 A 
ATOM     24  C   UNL     1      -4.141   3.488  26.138  0.00  0.00    -0.002 A 
BRANCH  22  25
ATOM     25  C   UNL     1      -5.910   2.520  25.302  0.00  0.00    +0.100 C 
ATOM     26  N   UNL     1      -6.612   2.088  25.251  0.00  0.00    -0.191 NA
ENDBRANCH  22  25
ENDBRANCH  18  19
ENDBRANCH  17  18
ENDBRANCH  14  15
ENDBRANCH  13  14
TORSDOF 9
ENDMDL
