MODEL 1
REMARK VINA RESULT:     -10.2      0.000      0.000
REMARK  Name = 
REMARK  7 active torsions:
REMARK  status: ('A' for Active; 'I' for Inactive)
REMARK    1  A    between atoms: C_2  and  N_4
REMARK    2  A    between atoms: C_11  and  C_13
REMARK    3  A    between atoms: N_15  and  C_16
REMARK    4  A    between atoms: C_16  and  C_17
REMARK    5  A    between atoms: C_16  and  C_24
REMARK    6  A    between atoms: C_17  and  C_18
REMARK    7  A    between atoms: C_27  and  C_29
REMARK                            x       y       z     vdW  Elec       q    Type
REMARK                         _______ _______ _______ _____ _____    ______ ____
ROOT
ATOM      4  N   UNL     1       0.607  -0.286  23.218  0.00  0.00    -0.190 NA
ATOM      5  C   UNL     1       0.172   0.344  23.528  0.00  0.00    +0.323 C 
ATOM      6  O   UNL     1       0.479   1.110  23.504  0.00  0.00    -0.251 OA
ATOM      7  N   UNL     1      -0.571   0.208  23.862  0.00  0.00    -0.259 N 
ATOM      8  C   UNL     1      -0.878  -0.558  23.887  0.00  0.00    +0.117 C 
ATOM      9  C   UNL     1      -1.620  -0.694  24.220  0.00  0.00    +0.116 C 
ATOM     10  N   UNL     1      -2.055  -0.064  24.530  0.00  0.00    -0.266 N 
ATOM     11  C   UNL     1      -1.748   0.701  24.505  0.00  0.00    +0.174 C 
ATOM     12  C   UNL     1      -1.006   0.837  24.172  0.00  0.00    +0.124 C 
ATOM     27  C   UNL     1      -2.797  -0.200  24.864  0.00  0.00    +0.255 C 
ATOM     28  O   UNL     1      -3.232   0.429  25.173  0.00  0.00    -0.269 OA
ENDROOT
BRANCH  27  29
ATOM     29  C   UNL     1      -3.105  -0.966  24.888  0.00  0.00    +0.083 A 
ATOM     30  C   UNL     1      -3.542  -1.331  24.292  0.00  0.00    +0.012 A 
ATOM     31  C   UNL     1      -3.736  -2.091  24.548  0.00  0.00    +0.008 A 
ATOM     32  C   UNL     1      -3.419  -2.194  25.302  0.00  0.00    +0.036 A 
ATOM     33  S   UNL     1      -3.029  -1.499  25.513  0.00  0.00    -0.082 S 
ENDBRANCH  27  29
BRANCH   4   2
ATOM      1  C   UNL     1       1.457  -0.236  22.072  0.00  0.00    +0.023 C 
ATOM      2  C   UNL     1       1.349  -0.150  22.885  0.00  0.00    +0.097 C 
ATOM      3  C   UNL     1       1.982   0.072  23.365  0.00  0.00    +0.023 C 
ENDBRANCH   4   2
BRANCH  11  13
ATOM     13  C   UNL     1      -2.182   1.330  24.815  0.00  0.00    +0.262 C 
ATOM     14  O   UNL     1      -2.609   1.233  25.513  0.00  0.00    -0.271 OA
ATOM     15  N   UNL     1      -2.189   2.057  24.425  0.00  0.00    -0.196 NA
BRANCH  15  16
ATOM     16  C   UNL     1      -2.624   2.687  24.733  0.00  0.00    +0.179 C 
BRANCH  16  24
ATOM     24  C   UNL     1      -3.352   2.888  24.400  0.00  0.00    +0.281 C 
ATOM     25  N   UNL     1      -4.005   3.021  24.886  0.00  0.00    -0.086 NA
ATOM     26  O   UNL     1      -3.426   2.956  23.581  0.00  0.00    -0.270 OA
ENDBRANCH  16  24
BRANCH  16  17
ATOM     17  C   UNL     1      -2.331   3.115  25.374  0.00  0.00    +0.059 C 
BRANCH  17  18
ATOM     18  C   UNL     1      -1.878   3.793  25.245  0.00  0.00    -0.001 A 
ATOM     19  C   UNL     1      -2.196   4.538  25.401  0.00  0.00    -0.001 A 
ATOM     20  C   UNL     1      -1.743   5.215  25.272  0.00  0.00    +0.020 A 
ATOM     21  C   UNL     1      -0.971   5.148  24.987  0.00  0.00    +0.099 A 
ATOM     22  N   UNL     1      -0.653   4.403  24.831  0.00  0.00    -0.243 NA
ATOM     23  C   UNL     1      -1.107   3.725  24.960  0.00  0.00    +0.095 A 
ENDBRANCH  17  18
ENDBRANCH  16  17
ENDBRANCH  15  16
ENDBRANCH  11  13
TORSDOF 7
ENDMDL
MODEL 2
REMARK VINA RESULT:     -10.2      2.076      5.522
REMARK  Name = 
REMARK  7 active torsions:
REMARK  status: ('A' for Active; 'I' for Inactive)
REMARK    1  A    between atoms: C_2  and  N_4
REMARK    2  A    between atoms: C_11  and  C_13
REMARK    3  A    between atoms: N_15  and  C_16
REMARK    4  A    between atoms: C_16  and  C_17
REMARK    5  A    between atoms: C_16  and  C_24
REMARK    6  A    between atoms: C_17  and  C_18
REMARK    7  A    between atoms: C_27  and  C_29
REMARK                            x       y       z     vdW  Elec       q    Type
REMARK                         _______ _______ _______ _____ _____    ______ ____
ROOT
ATOM      4  N   UNL     1      -5.154   2.334  25.320  0.00  0.00    -0.190 NA
ATOM      5  C   UNL     1      -4.683   1.670  25.178  0.00  0.00    +0.323 C 
ATOM      6  O   UNL     1      -5.028   0.922  25.135  0.00  0.00    -0.251 OA
ATOM      7  N   UNL     1      -3.869   1.756  25.079  0.00  0.00    -0.259 N 
ATOM      8  C   UNL     1      -3.524   2.505  25.123  0.00  0.00    +0.117 C 
ATOM      9  C   UNL     1      -2.709   2.590  25.024  0.00  0.00    +0.116 C 
ATOM     10  N   UNL     1      -2.239   1.927  24.882  0.00  0.00    -0.266 N 
ATOM     11  C   UNL     1      -2.583   1.178  24.838  0.00  0.00    +0.174 C 
ATOM     12  C   UNL     1      -3.398   1.092  24.937  0.00  0.00    +0.124 C 
ATOM     27  C   UNL     1      -1.425   2.012  24.783  0.00  0.00    +0.255 C 
ATOM     28  O   UNL     1      -0.954   1.348  24.641  0.00  0.00    -0.269 OA
ENDROOT
BRANCH  27  29
ATOM     29  C   UNL     1      -1.080   2.761  24.827  0.00  0.00    +0.083 A 
ATOM     30  C   UNL     1      -0.868   3.157  25.518  0.00  0.00    +0.012 A 
ATOM     31  C   UNL     1      -0.544   3.885  25.305  0.00  0.00    +0.008 A 
ATOM     32  C   UNL     1      -0.555   3.938  24.483  0.00  0.00    +0.036 A 
ATOM     33  S   UNL     1      -0.886   3.243  24.186  0.00  0.00    -0.082 S 
ENDBRANCH  27  29
BRANCH   4   2
ATOM      1  C   UNL     1      -6.448   2.094  24.767  0.00  0.00    +0.023 C 
ATOM      2  C   UNL     1      -5.968   2.249  25.419  0.00  0.00    +0.097 C 
ATOM      3  C   UNL     1      -6.302   2.318  26.170  0.00  0.00    +0.023 C 
ENDBRANCH   4   2
BRANCH  11  13
ATOM     13  C   UNL     1      -2.114   0.515  24.696  0.00  0.00    +0.262 C 
ATOM     14  O   UNL     1      -1.514   0.548  24.132  0.00  0.00    -0.271 OA
ATOM     15  N   UNL     1      -2.244  -0.181  25.120  0.00  0.00    -0.196 NA
BRANCH  15  16
ATOM     16  C   UNL     1      -1.775  -0.844  24.978  0.00  0.00    +0.179 C 
BRANCH  16  24
ATOM     24  C   UNL     1      -1.125  -1.000  25.463  0.00  0.00    +0.281 C 
ATOM     25  N   UNL     1      -0.413  -1.249  25.130  0.00  0.00    -0.086 NA
ATOM     26  O   UNL     1      -1.189  -0.908  26.281  0.00  0.00    -0.270 OA
ENDBRANCH  16  24
BRANCH  16  17
ATOM     17  C   UNL     1      -1.954  -1.351  24.354  0.00  0.00    +0.059 C 
BRANCH  17  18
ATOM     18  C   UNL     1      -2.585  -1.880  24.419  0.00  0.00    -0.001 A 
ATOM     19  C   UNL     1      -3.235  -1.811  23.916  0.00  0.00    -0.001 A 
ATOM     20  C   UNL     1      -3.864  -2.339  23.981  0.00  0.00    +0.020 A 
ATOM     21  C   UNL     1      -3.845  -2.937  24.549  0.00  0.00    +0.099 A 
ATOM     22  N   UNL     1      -3.194  -3.006  25.052  0.00  0.00    -0.243 NA
ATOM     23  C   UNL     1      -2.564  -2.477  24.987  0.00  0.00    +0.095 A 
ENDBRANCH  17  18
ENDBRANCH  16  17
ENDBRANCH  15  16
ENDBRANCH  11  13
TORSDOF 7
ENDMDL
MODEL 3
REMARK VINA RESULT:     -10.1      1.523      3.722
REMARK  Name = 
REMARK  7 active torsions:
REMARK  status: ('A' for Active; 'I' for Inactive)
REMARK    1  A    between atoms: C_2  and  N_4
REMARK    2  A    between atoms: C_11  and  C_13
REMARK    3  A    between atoms: N_15  and  C_16
REMARK    4  A    between atoms: C_16  and  C_17
REMARK    5  A    between atoms: C_16  and  C_24
REMARK    6  A    between atoms: C_17  and  C_18
REMARK    7  A    between atoms: C_27  and  C_29
REMARK                            x       y       z     vdW  Elec       q    Type
REMARK                         _______ _______ _______ _____ _____    ______ ____
ROOT
ATOM      4  N   UNL     1      -5.376   1.457  25.238  0.00  0.00    -0.190 NA
ATOM      5  C   UNL     1      -4.556   1.533  25.175  0.00  0.00    +0.323 C 
ATOM      6  O   UNL     1      -4.206   2.279  25.221  0.00  0.00    -0.251 OA
ATOM      7  N   UNL     1      -4.087   0.862  25.066  0.00  0.00    -0.259 N 
ATOM      8  C   UNL     1      -4.438   0.116  25.020  0.00  0.00    +0.117 C 
ATOM      9  C   UNL     1      -3.969  -0.554  24.912  0.00  0.00    +0.116 C 
ATOM     10  N   UNL     1      -3.150  -0.478  24.849  0.00  0.00    -0.266 N 
ATOM     11  C   UNL     1      -2.799   0.268  24.895  0.00  0.00    +0.174 C 
ATOM     12  C   UNL     1      -3.267   0.938  25.004  0.00  0.00    +0.124 C 
ATOM     27  C   UNL     1      -2.681  -1.148  24.741  0.00  0.00    +0.255 C 
ATOM     28  O   UNL     1      -1.861  -1.073  24.678  0.00  0.00    -0.269 OA
ENDROOT
BRANCH  27  29
ATOM     29  C   UNL     1      -3.031  -1.894  24.695  0.00  0.00    +0.083 A 
ATOM     30  C   UNL     1      -3.360  -2.234  24.019  0.00  0.00    +0.012 A 
ATOM     31  C   UNL     1      -3.646  -2.980  24.223  0.00  0.00    +0.008 A 
ATOM     32  C   UNL     1      -3.494  -3.101  25.024  0.00  0.00    +0.036 A 
ATOM     33  S   UNL     1      -3.114  -2.430  25.316  0.00  0.00    -0.082 S 
ENDBRANCH  27  29
BRANCH   4   2
ATOM      1  C   UNL     1      -5.906   2.471  26.093  0.00  0.00    +0.023 C 
ATOM      2  C   UNL     1      -5.845   2.127  25.346  0.00  0.00    +0.097 C 
ATOM      3  C   UNL     1      -6.252   2.453  24.707  0.00  0.00    +0.023 C 
ENDBRANCH   4   2
BRANCH  11  13
ATOM     13  C   UNL     1      -1.980   0.343  24.832  0.00  0.00    +0.262 C 
ATOM     14  O   UNL     1      -1.486  -0.193  25.216  0.00  0.00    -0.271 OA
ATOM     15  N   UNL     1      -1.656   0.956  24.385  0.00  0.00    -0.196 NA
BRANCH  15  16
ATOM     16  C   UNL     1      -0.837   1.032  24.322  0.00  0.00    +0.179 C 
BRANCH  16  24
ATOM     24  C   UNL     1      -0.444   0.724  23.665  0.00  0.00    +0.281 C 
ATOM     25  N   UNL     1       0.252   0.292  23.766  0.00  0.00    -0.086 NA
ATOM     26  O   UNL     1      -0.746   0.848  22.907  0.00  0.00    -0.270 OA
ENDBRANCH  16  24
BRANCH  16  17
ATOM     17  C   UNL     1      -0.411   1.416  24.915  0.00  0.00    +0.059 C 
BRANCH  17  18
ATOM     18  C   UNL     1      -0.447   2.238  24.983  0.00  0.00    -0.001 A 
ATOM     19  C   UNL     1      -0.548   2.586  25.724  0.00  0.00    -0.001 A 
ATOM     20  C   UNL     1      -0.584   3.407  25.792  0.00  0.00    +0.020 A 
ATOM     21  C   UNL     1      -0.518   3.880  25.119  0.00  0.00    +0.099 A 
ATOM     22  N   UNL     1      -0.417   3.532  24.378  0.00  0.00    -0.243 NA
ATOM     23  C   UNL     1      -0.381   2.710  24.310  0.00  0.00    +0.095 A 
ENDBRANCH  17  18
ENDBRANCH  16  17
ENDBRANCH  15  16
ENDBRANCH  11  13
TORSDOF 7
ENDMDL
MODEL 4
REMARK VINA RESULT:     -10.1      2.084      3.522
REMARK  Name = 
REMARK  7 active torsions:
REMARK  status: ('A' for Active; 'I' for Inactive)
REMARK    1  A    between atoms: C_2  and  N_4
REMARK    2  A    between atoms: C_11  and  C_13
REMARK    3  A    between atoms: N_15  and  C_16
REMARK    4  A    between atoms: C_16  and  C_17
REMARK    5  A    between atoms: C_16  and  C_24
REMARK    6  A    between atoms: C_17  and  C_18
REMARK    7  A    between atoms: C_27  and  C_29
REMARK                            x       y       z     vdW  Elec       q    Type
REMARK                         _______ _______ _______ _____ _____    ______ ____
ROOT
ATOM      4  N   UNL     1      -3.862  -1.791  24.824  0.00  0.00    -0.190 NA
ATOM      5  C   UNL     1      -3.366  -1.185  24.561  0.00  0.00    +0.323 C 
ATOM      6  O   UNL     1      -2.627  -1.366  24.241  0.00  0.00    -0.251 OA
ATOM      7  N   UNL     1      -3.610  -0.399  24.618  0.00  0.00    -0.259 N 
ATOM      8  C   UNL     1      -4.350  -0.218  24.938  0.00  0.00    +0.117 C 
ATOM      9  C   UNL     1      -4.594   0.568  24.995  0.00  0.00    +0.116 C 
ATOM     10  N   UNL     1      -4.098   1.173  24.732  0.00  0.00    -0.266 N 
ATOM     11  C   UNL     1      -3.359   0.993  24.412  0.00  0.00    +0.174 C 
ATOM     12  C   UNL     1      -3.115   0.207  24.355  0.00  0.00    +0.124 C 
ATOM     27  C   UNL     1      -4.342   1.959  24.789  0.00  0.00    +0.255 C 
ATOM     28  O   UNL     1      -3.847   2.565  24.526  0.00  0.00    -0.269 OA
ENDROOT
BRANCH  27  29
ATOM     29  C   UNL     1      -5.081   2.140  25.109  0.00  0.00    +0.083 A 
ATOM     30  C   UNL     1      -5.812   1.960  24.771  0.00  0.00    +0.012 A 
ATOM     31  C   UNL     1      -6.401   2.241  25.275  0.00  0.00    +0.008 A 
ATOM     32  C   UNL     1      -6.035   2.595  25.923  0.00  0.00    +0.036 A 
ATOM     33  S   UNL     1      -5.219   2.532  25.821  0.00  0.00    -0.082 S 
ENDBRANCH  27  29
BRANCH   4   2
ATOM      1  C   UNL     1      -3.791  -3.014  24.090  0.00  0.00    +0.023 C 
ATOM      2  C   UNL     1      -3.618  -2.577  24.767  0.00  0.00    +0.097 C 
ATOM      3  C   UNL     1      -3.201  -2.925  25.388  0.00  0.00    +0.023 C 
ENDBRANCH   4   2
BRANCH  11  13
ATOM     13  C   UNL     1      -2.864   1.598  24.150  0.00  0.00    +0.262 C 
ATOM     14  O   UNL     1      -3.163   2.195  23.666  0.00  0.00    -0.271 OA
ATOM     15  N   UNL     1      -2.069   1.606  24.371  0.00  0.00    -0.196 NA
BRANCH  15  16
ATOM     16  C   UNL     1      -1.574   2.211  24.108  0.00  0.00    +0.179 C 
BRANCH  16  24
ATOM     24  C   UNL     1      -1.276   2.195  23.338  0.00  0.00    +0.281 C 
ATOM     25  N   UNL     1      -0.934   1.505  23.043  0.00  0.00    -0.086 NA
ATOM     26  O   UNL     1      -1.322   2.869  22.865  0.00  0.00    -0.270 OA
ENDBRANCH  16  24
BRANCH  16  17
ATOM     17  C   UNL     1      -1.375   2.830  24.614  0.00  0.00    +0.059 C 
BRANCH  17  18
ATOM     18  C   UNL     1      -0.824   2.711  25.217  0.00  0.00    -0.001 A 
ATOM     19  C   UNL     1      -1.028   2.869  26.001  0.00  0.00    -0.001 A 
ATOM     20  C   UNL     1      -0.477   2.749  26.602  0.00  0.00    +0.020 A 
ATOM     21  C   UNL     1       0.279   2.472  26.421  0.00  0.00    +0.099 A 
ATOM     22  N   UNL     1       0.483   2.314  25.637  0.00  0.00    -0.243 NA
ATOM     23  C   UNL     1      -0.068   2.433  25.035  0.00  0.00    +0.095 A 
ENDBRANCH  17  18
ENDBRANCH  16  17
ENDBRANCH  15  16
ENDBRANCH  11  13
TORSDOF 7
ENDMDL
MODEL 5
REMARK VINA RESULT:      -9.9      1.445      4.102
REMARK  Name = 
REMARK  7 active torsions:
REMARK  status: ('A' for Active; 'I' for Inactive)
REMARK    1  A    between atoms: C_2  and  N_4
REMARK    2  A    between atoms: C_11  and  C_13
REMARK    3  A    between atoms: N_15  and  C_16
REMARK    4  A    between atoms: C_16  and  C_17
REMARK    5  A    between atoms: C_16  and  C_24
REMARK    6  A    between atoms: C_17  and  C_18
REMARK    7  A    between atoms: C_27  and  C_29
REMARK                            x       y       z     vdW  Elec       q    Type
REMARK                         _______ _______ _______ _____ _____    ______ ____
ROOT
ATOM      4  N   UNL     1       0.916   0.485  23.178  0.00  0.00    -0.190 NA
ATOM      5  C   UNL     1       0.201   0.230  23.502  0.00  0.00    +0.323 C 
ATOM      6  O   UNL     1      -0.021  -0.563  23.436  0.00  0.00    -0.251 OA
ATOM      7  N   UNL     1      -0.291   0.766  23.890  0.00  0.00    -0.259 N 
ATOM      8  C   UNL     1      -0.069   1.558  23.955  0.00  0.00    +0.117 C 
ATOM      9  C   UNL     1      -0.561   2.094  24.344  0.00  0.00    +0.116 C 
ATOM     10  N   UNL     1      -1.275   1.838  24.667  0.00  0.00    -0.266 N 
ATOM     11  C   UNL     1      -1.499   1.046  24.602  0.00  0.00    +0.174 C 
ATOM     12  C   UNL     1      -1.006   0.510  24.214  0.00  0.00    +0.124 C 
ATOM     27  C   UNL     1      -1.768   2.374  25.056  0.00  0.00    +0.255 C 
ATOM     28  O   UNL     1      -2.483   2.118  25.379  0.00  0.00    -0.269 OA
ENDROOT
BRANCH  27  29
ATOM     29  C   UNL     1      -1.545   3.166  25.121  0.00  0.00    +0.083 A 
ATOM     30  C   UNL     1      -0.949   3.463  25.607  0.00  0.00    +0.012 A 
ATOM     31  C   UNL     1      -0.915   4.280  25.498  0.00  0.00    +0.008 A 
ATOM     32  C   UNL     1      -1.491   4.488  24.945  0.00  0.00    +0.036 A 
ATOM     33  S   UNL     1      -1.880   3.799  24.712  0.00  0.00    -0.082 S 
ENDBRANCH  27  29
BRANCH   4   2
ATOM      1  C   UNL     1       1.210  -0.321  22.036  0.00  0.00    +0.023 C 
ATOM      2  C   UNL     1       1.409  -0.051  22.789  0.00  0.00    +0.097 C 
ATOM      3  C   UNL     1       2.099  -0.316  23.155  0.00  0.00    +0.023 C 
ENDBRANCH   4   2
BRANCH  11  13
ATOM     13  C   UNL     1      -2.213   0.790  24.925  0.00  0.00    +0.262 C 
ATOM     14  O   UNL     1      -2.384   0.939  25.718  0.00  0.00    -0.271 OA
ATOM     15  N   UNL     1      -2.756   0.385  24.455  0.00  0.00    -0.196 NA
BRANCH  15  16
ATOM     16  C   UNL     1      -3.471   0.129  24.778  0.00  0.00    +0.179 C 
BRANCH  16  24
ATOM     24  C   UNL     1      -4.164   0.554  24.633  0.00  0.00    +0.281 C 
ATOM     25  N   UNL     1      -4.695   0.697  25.248  0.00  0.00    -0.086 NA
ATOM     26  O   UNL     1      -4.325   0.835  23.874  0.00  0.00    -0.270 OA
ENDBRANCH  16  24
BRANCH  16  17
ATOM     17  C   UNL     1      -3.493  -0.550  25.244  0.00  0.00    +0.059 C 
BRANCH  17  18
ATOM     18  C   UNL     1      -3.585  -1.291  24.891  0.00  0.00    -0.001 A 
ATOM     19  C   UNL     1      -3.232  -1.956  25.228  0.00  0.00    -0.001 A 
ATOM     20  C   UNL     1      -3.323  -2.695  24.875  0.00  0.00    +0.020 A 
ATOM     21  C   UNL     1      -3.767  -2.771  24.184  0.00  0.00    +0.099 A 
ATOM     22  N   UNL     1      -4.121  -2.106  23.846  0.00  0.00    -0.243 NA
ATOM     23  C   UNL     1      -4.029  -1.365  24.200  0.00  0.00    +0.095 A 
ENDBRANCH  17  18
ENDBRANCH  16  17
ENDBRANCH  15  16
ENDBRANCH  11  13
TORSDOF 7
ENDMDL
MODEL 6
REMARK VINA RESULT:      -9.8      1.634      3.767
REMARK  Name = 
REMARK  7 active torsions:
REMARK  status: ('A' for Active; 'I' for Inactive)
REMARK    1  A    between atoms: C_2  and  N_4
REMARK    2  A    between atoms: C_11  and  C_13
REMARK    3  A    between atoms: N_15  and  C_16
REMARK    4  A    between atoms: C_16  and  C_17
REMARK    5  A    between atoms: C_16  and  C_24
REMARK    6  A    between atoms: C_17  and  C_18
REMARK    7  A    between atoms: C_27  and  C_29
REMARK                            x       y       z     vdW  Elec       q    Type
REMARK                         _______ _______ _______ _____ _____    ______ ____
ROOT
ATOM      4  N   UNL     1      -2.741  -1.804  24.761  0.00  0.00    -0.190 NA
ATOM      5  C   UNL     1      -3.041  -1.035  24.732  0.00  0.00    +0.323 C 
ATOM      6  O   UNL     1      -3.844  -0.899  24.867  0.00  0.00    -0.251 OA
ATOM      7  N   UNL     1      -2.537  -0.402  24.569  0.00  0.00    -0.259 N 
ATOM      8  C   UNL     1      -1.734  -0.537  24.434  0.00  0.00    +0.117 C 
ATOM      9  C   UNL     1      -1.230   0.095  24.271  0.00  0.00    +0.116 C 
ATOM     10  N   UNL     1      -1.530   0.864  24.243  0.00  0.00    -0.266 N 
ATOM     11  C   UNL     1      -2.332   1.000  24.378  0.00  0.00    +0.174 C 
ATOM     12  C   UNL     1      -2.836   0.367  24.541  0.00  0.00    +0.124 C 
ATOM     27  C   UNL     1      -1.026   1.497  24.080  0.00  0.00    +0.255 C 
ATOM     28  O   UNL     1      -1.325   2.266  24.051  0.00  0.00    -0.269 OA
ENDROOT
BRANCH  27  29
ATOM     29  C   UNL     1      -0.223   1.361  23.945  0.00  0.00    +0.083 A 
ATOM     30  C   UNL     1       0.096   0.927  23.321  0.00  0.00    +0.012 A 
ATOM     31  C   UNL     1       0.917   0.933  23.400  0.00  0.00    +0.008 A 
ATOM     32  C   UNL     1       1.105   1.371  24.073  0.00  0.00    +0.036 A 
ATOM     33  S   UNL     1       0.400   1.636  24.410  0.00  0.00    -0.082 S 
ENDBRANCH  27  29
BRANCH   4   2
ATOM      1  C   UNL     1      -3.664  -2.797  24.313  0.00  0.00    +0.023 C 
ATOM      2  C   UNL     1      -3.245  -2.437  24.924  0.00  0.00    +0.097 C 
ATOM      3  C   UNL     1      -3.328  -2.707  25.699  0.00  0.00    +0.023 C 
ENDBRANCH   4   2
BRANCH  11  13
ATOM     13  C   UNL     1      -2.631   1.768  24.349  0.00  0.00    +0.262 C 
ATOM     14  O   UNL     1      -2.508   2.234  23.681  0.00  0.00    -0.271 OA
ATOM     15  N   UNL     1      -3.054   2.069  24.990  0.00  0.00    -0.196 NA
BRANCH  15  16
ATOM     16  C   UNL     1      -3.354   2.838  24.963  0.00  0.00    +0.179 C 
BRANCH  16  24
ATOM     24  C   UNL     1      -2.929   3.458  25.304  0.00  0.00    +0.281 C 
ATOM     25  N   UNL     1      -2.817   4.160  24.885  0.00  0.00    -0.086 NA
ATOM     26  O   UNL     1      -2.615   3.376  26.063  0.00  0.00    -0.270 OA
ENDBRANCH  16  24
BRANCH  16  17
ATOM     17  C   UNL     1      -4.076   2.986  24.596  0.00  0.00    +0.059 C 
BRANCH  17  18
ATOM     18  C   UNL     1      -4.782   2.804  24.984  0.00  0.00    -0.001 A 
ATOM     19  C   UNL     1      -5.297   2.245  24.664  0.00  0.00    -0.001 A 
ATOM     20  C   UNL     1      -6.002   2.064  25.052  0.00  0.00    +0.020 A 
ATOM     21  C   UNL     1      -6.192   2.441  25.761  0.00  0.00    +0.099 A 
ATOM     22  N   UNL     1      -5.677   3.000  26.081  0.00  0.00    -0.243 NA
ATOM     23  C   UNL     1      -4.971   3.182  25.693  0.00  0.00    +0.095 A 
ENDBRANCH  17  18
ENDBRANCH  16  17
ENDBRANCH  15  16
ENDBRANCH  11  13
TORSDOF 7
ENDMDL
MODEL 7
REMARK VINA RESULT:      -8.7     14.896     17.456
REMARK  Name = 
REMARK  7 active torsions:
REMARK  status: ('A' for Active; 'I' for Inactive)
REMARK    1  A    between atoms: C_2  and  N_4
REMARK    2  A    between atoms: C_11  and  C_13
REMARK    3  A    between atoms: N_15  and  C_16
REMARK    4  A    between atoms: C_16  and  C_17
REMARK    5  A    between atoms: C_16  and  C_24
REMARK    6  A    between atoms: C_17  and  C_18
REMARK    7  A    between atoms: C_27  and  C_29
REMARK                            x       y       z     vdW  Elec       q    Type
REMARK                         _______ _______ _______ _____ _____    ______ ____
ROOT
ATOM      4  N   UNL     1      11.445   8.591  17.705  0.00  0.00    -0.190 NA
ATOM      5  C   UNL     1      12.118   8.294  18.079  0.00  0.00    +0.323 C 
ATOM      6  O   UNL     1      12.782   8.089  17.633  0.00  0.00    -0.251 OA
ATOM      7  N   UNL     1      12.128   8.202  18.899  0.00  0.00    -0.259 N 
ATOM      8  C   UNL     1      11.464   8.407  19.346  0.00  0.00    +0.117 C 
ATOM      9  C   UNL     1      11.474   8.315  20.165  0.00  0.00    +0.116 C 
ATOM     10  N   UNL     1      12.148   8.018  20.539  0.00  0.00    -0.266 N 
ATOM     11  C   UNL     1      12.811   7.813  20.093  0.00  0.00    +0.174 C 
ATOM     12  C   UNL     1      12.801   7.905  19.273  0.00  0.00    +0.124 C 
ATOM     27  C   UNL     1      12.157   7.926  21.358  0.00  0.00    +0.255 C 
ATOM     28  O   UNL     1      12.831   7.629  21.733  0.00  0.00    -0.269 OA
ENDROOT
BRANCH  27  29
ATOM     29  C   UNL     1      11.494   8.131  21.805  0.00  0.00    +0.083 A 
ATOM     30  C   UNL     1      11.331   8.877  22.116  0.00  0.00    +0.012 A 
ATOM     31  C   UNL     1      10.614   8.833  22.521  0.00  0.00    +0.008 A 
ATOM     32  C   UNL     1      10.334   8.060  22.461  0.00  0.00    +0.036 A 
ATOM     33  S   UNL     1      10.878   7.626  22.018  0.00  0.00    -0.082 S 
ENDBRANCH  27  29
BRANCH   4   2
ATOM      1  C   UNL     1      10.815   8.367  16.443  0.00  0.00    +0.023 C 
ATOM      2  C   UNL     1      11.435   8.682  16.885  0.00  0.00    +0.097 C 
ATOM      3  C   UNL     1      12.046   9.090  16.509  0.00  0.00    +0.023 C 
ENDBRANCH   4   2
BRANCH  11  13
ATOM     13  C   UNL     1      13.484   7.516  20.467  0.00  0.00    +0.262 C 
ATOM     14  O   UNL     1      13.408   6.978  21.086  0.00  0.00    -0.271 OA
ATOM     15  N   UNL     1      14.233   7.758  20.220  0.00  0.00    -0.196 NA
BRANCH  15  16
ATOM     16  C   UNL     1      14.906   7.462  20.593  0.00  0.00    +0.179 C 
BRANCH  16  24
ATOM     24  C   UNL     1      15.362   7.955  21.073  0.00  0.00    +0.281 C 
ATOM     25  N   UNL     1      15.598   8.696  20.797  0.00  0.00    -0.086 NA
ATOM     26  O   UNL     1      15.581   7.707  21.829  0.00  0.00    -0.270 OA
ENDBRANCH  16  24
BRANCH  16  17
ATOM     17  C   UNL     1      15.124   6.675  20.486  0.00  0.00    +0.059 C 
BRANCH  17  18
ATOM     18  C   UNL     1      15.719   6.480  19.948  0.00  0.00    -0.001 A 
ATOM     19  C   UNL     1      16.478   6.300  20.218  0.00  0.00    -0.001 A 
ATOM     20  C   UNL     1      17.072   6.106  19.680  0.00  0.00    +0.020 A 
ATOM     21  C   UNL     1      16.908   6.092  18.871  0.00  0.00    +0.099 A 
ATOM     22  N   UNL     1      16.150   6.272  18.601  0.00  0.00    -0.243 NA
ATOM     23  C   UNL     1      15.555   6.466  19.140  0.00  0.00    +0.095 A 
ENDBRANCH  17  18
ENDBRANCH  16  17
ENDBRANCH  15  16
ENDBRANCH  11  13
TORSDOF 7
ENDMDL
MODEL 8
REMARK VINA RESULT:      -7.6     14.181     16.795
REMARK  Name = 
REMARK  7 active torsions:
REMARK  status: ('A' for Active; 'I' for Inactive)
REMARK    1  A    between atoms: C_2  and  N_4
REMARK    2  A    between atoms: C_11  and  C_13
REMARK    3  A    between atoms: N_15  and  C_16
REMARK    4  A    between atoms: C_16  and  C_17
REMARK    5  A    between atoms: C_16  and  C_24
REMARK    6  A    between atoms: C_17  and  C_18
REMARK    7  A    between atoms: C_27  and  C_29
REMARK                            x       y       z     vdW  Elec       q    Type
REMARK                         _______ _______ _______ _____ _____    ______ ____
ROOT
ATOM      4  N   UNL     1      12.039   8.537  16.757  0.00  0.00    -0.190 NA
ATOM      5  C   UNL     1      11.841   8.574  17.558  0.00  0.00    +0.323 C 
ATOM      6  O   UNL     1      11.090   8.830  17.786  0.00  0.00    -0.251 OA
ATOM      7  N   UNL     1      12.394   8.356  18.130  0.00  0.00    -0.259 N 
ATOM      8  C   UNL     1      13.145   8.100  17.902  0.00  0.00    +0.117 C 
ATOM      9  C   UNL     1      13.699   7.882  18.474  0.00  0.00    +0.116 C 
ATOM     10  N   UNL     1      13.500   7.920  19.274  0.00  0.00    -0.266 N 
ATOM     11  C   UNL     1      12.750   8.175  19.503  0.00  0.00    +0.174 C 
ATOM     12  C   UNL     1      12.197   8.393  18.931  0.00  0.00    +0.124 C 
ATOM     27  C   UNL     1      14.054   7.702  19.846  0.00  0.00    +0.255 C 
ATOM     28  O   UNL     1      13.856   7.739  20.647  0.00  0.00    -0.269 OA
ENDROOT
BRANCH  27  29
ATOM     29  C   UNL     1      14.805   7.446  19.618  0.00  0.00    +0.083 A 
ATOM     30  C   UNL     1      14.993   6.700  19.321  0.00  0.00    +0.012 A 
ATOM     31  C   UNL     1      15.803   6.685  19.166  0.00  0.00    +0.008 A 
ATOM     32  C   UNL     1      16.115   7.421  19.367  0.00  0.00    +0.036 A 
ATOM     33  S   UNL     1      15.498   7.892  19.646  0.00  0.00    -0.082 S 
ENDBRANCH  27  29
BRANCH   4   2
ATOM      1  C   UNL     1      11.737   9.093  15.477  0.00  0.00    +0.023 C 
ATOM      2  C   UNL     1      11.485   8.755  16.185  0.00  0.00    +0.097 C 
ATOM      3  C   UNL     1      10.681   8.634  16.323  0.00  0.00    +0.023 C 
ENDBRANCH   4   2
BRANCH  11  13
ATOM     13  C   UNL     1      12.553   8.213  20.302  0.00  0.00    +0.262 C 
ATOM     14  O   UNL     1      13.068   8.568  20.838  0.00  0.00    -0.271 OA
ATOM     15  N   UNL     1      11.838   7.895  20.566  0.00  0.00    -0.196 NA
BRANCH  15  16
ATOM     16  C   UNL     1      11.640   7.932  21.366  0.00  0.00    +0.179 C 
BRANCH  16  24
ATOM     24  C   UNL     1      11.296   8.617  21.674  0.00  0.00    +0.281 C 
ATOM     25  N   UNL     1      11.577   8.936  22.380  0.00  0.00    -0.086 NA
ATOM     26  O   UNL     1      10.672   8.980  21.275  0.00  0.00    -0.270 OA
ENDBRANCH  16  24
BRANCH  16  17
ATOM     17  C   UNL     1      11.785   7.287  21.857  0.00  0.00    +0.059 C 
BRANCH  17  18
ATOM     18  C   UNL     1      11.305   6.616  21.810  0.00  0.00    -0.001 A 
ATOM     19  C   UNL     1      11.635   5.886  21.610  0.00  0.00    -0.001 A 
ATOM     20  C   UNL     1      11.156   5.217  21.562  0.00  0.00    +0.020 A 
ATOM     21  C   UNL     1      10.347   5.276  21.715  0.00  0.00    +0.099 A 
ATOM     22  N   UNL     1      10.018   6.005  21.915  0.00  0.00    -0.243 NA
ATOM     23  C   UNL     1      10.497   6.676  21.963  0.00  0.00    +0.095 A 
ENDBRANCH  17  18
ENDBRANCH  16  17
ENDBRANCH  15  16
ENDBRANCH  11  13
TORSDOF 7
ENDMDL
