MODEL 1
REMARK VINA RESULT:     -13.0      0.000      0.000
REMARK  Name = 
REMARK  10 active torsions:
REMARK  status: ('A' for Active; 'I' for Inactive)
REMARK    1  A    between atoms: O_2  and  C_3
REMARK    2  A    between atoms: C_3  and  C_5
REMARK    3  A    between atoms: C_5  and  C_6
REMARK    4  A    between atoms: C_5  and  N_15
REMARK    5  A    between atoms: C_6  and  C_7
REMARK    6  A    between atoms: C_10  and  O_11
REMARK    7  A    between atoms: C_16  and  C_18
REMARK    8  A    between atoms: N_20  and  S_33
REMARK    9  A    between atoms: N_26  and  C_27
REMARK   10  A    between atoms: S_33  and  C_36
REMARK                            x       y       z     vdW  Elec       q    Type
REMARK                         _______ _______ _______ _____ _____    ______ ____
ROOT
ATOM     18  C   UNL     1      -1.893   1.601  24.815  0.00  0.00    +0.173 C 
ATOM     19  C   UNL     1      -2.537   1.598  24.298  0.00  0.00    +0.125 C 
ATOM     20  N   UNL     1      -2.856   2.311  24.034  0.00  0.00    -0.152 NA
ATOM     21  C   UNL     1      -2.532   3.027  24.285  0.00  0.00    +0.117 C 
ATOM     22  C   UNL     1      -1.889   3.030  24.801  0.00  0.00    +0.115 C 
ATOM     23  N   UNL     1      -1.569   2.317  25.066  0.00  0.00    -0.253 N 
ATOM     24  C   UNL     1      -0.926   2.320  25.582  0.00  0.00    +0.324 C 
ATOM     25  O   UNL     1      -0.606   1.607  25.847  0.00  0.00    -0.251 OA
ATOM     26  N   UNL     1      -0.602   3.035  25.833  0.00  0.00    -0.190 NA
ENDROOT
BRANCH  26  27
ATOM     27  C   UNL     1      -0.921   3.749  25.568  0.00  0.00    +0.097 C 
ATOM     28  C   UNL     1      -1.534   4.107  25.989  0.00  0.00    +0.022 C 
ATOM     29  C   UNL     1      -1.853   4.820  25.724  0.00  0.00    +0.002 C 
ATOM     30  C   UNL     1      -1.559   5.175  25.040  0.00  0.00    +0.000 C 
ATOM     31  C   UNL     1      -0.947   4.817  24.620  0.00  0.00    +0.002 C 
ATOM     32  C   UNL     1      -0.627   4.104  24.884  0.00  0.00    +0.022 C 
ENDBRANCH  26  27
BRANCH  18  16
ATOM     15  N   UNL     1      -1.538   0.238  24.573  0.00  0.00    -0.194 NA
ATOM     16  C   UNL     1      -1.574   0.888  25.079  0.00  0.00    +0.261 C 
ATOM     17  O   UNL     1      -1.291   0.825  25.852  0.00  0.00    -0.271 OA
BRANCH  15   5
ATOM      5  C   UNL     1      -1.219  -0.475  24.838  0.00  0.00    +0.198 C 
BRANCH   5   3
ATOM      3  C   UNL     1      -0.485  -0.727  24.562  0.00  0.00    +0.337 C 
ATOM      4  O   UNL     1       0.019  -1.152  25.058  0.00  0.00    -0.248 OA
BRANCH   3   2
ATOM      1  C   UNL     1       0.531  -0.666  23.558  0.00  0.00    +0.256 C 
ATOM      2  O   UNL     1      -0.253  -0.554  23.790  0.00  0.00    -0.443 OA
ENDBRANCH   3   2
ENDBRANCH   5   3
BRANCH   5   6
ATOM      6  C   UNL     1      -1.636  -0.936  25.381  0.00  0.00    +0.059 C 
BRANCH   6   7
ATOM      7  C   UNL     1      -2.231  -1.444  25.121  0.00  0.00    -0.020 A 
ATOM      8  C   UNL     1      -2.993  -1.378  25.430  0.00  0.00    -0.001 A 
ATOM      9  C   UNL     1      -3.589  -1.887  25.170  0.00  0.00    +0.037 A 
ATOM     10  C   UNL     1      -3.422  -2.460  24.601  0.00  0.00    +0.139 A 
ATOM     13  C   UNL     1      -2.660  -2.525  24.292  0.00  0.00    +0.037 A 
ATOM     14  C   UNL     1      -2.064  -2.018  24.552  0.00  0.00    -0.001 A 
BRANCH  10  11
ATOM     11  O   UNL     1      -4.017  -2.968  24.341  0.00  0.00    -0.471 OA
ATOM     12  C   UNL     1      -4.470  -2.769  23.680  0.00  0.00    +0.252 C 
ENDBRANCH  10  11
ENDBRANCH   6   7
ENDBRANCH   5   6
ENDBRANCH  15   5
ENDBRANCH  18  16
BRANCH  20  33
ATOM     33  S   UNL     1      -3.500   2.308  23.517  0.00  0.00    +0.063 S 
ATOM     34  O   UNL     1      -4.143   2.305  23.001  0.00  0.00    -0.153 OA
ATOM     35  O   UNL     1      -2.983   2.269  22.875  0.00  0.00    -0.153 OA
BRANCH  33  36
ATOM     36  C   UNL     1      -4.015   2.347  24.160  0.00  0.00    +0.122 A 
ATOM     37  C   UNL     1      -4.292   1.653  24.510  0.00  0.00    +0.020 A 
ATOM     38  C   UNL     1      -4.808   1.693  25.153  0.00  0.00    +0.001 A 
ATOM     39  C   UNL     1      -5.046   2.426  25.446  0.00  0.00    +0.000 A 
ATOM     40  C   UNL     1      -4.769   3.120  25.096  0.00  0.00    +0.001 A 
ATOM     41  C   UNL     1      -4.254   3.081  24.453  0.00  0.00    +0.020 A 
ENDBRANCH  33  36
ENDBRANCH  20  33
TORSDOF 10
ENDMDL
MODEL 2
REMARK VINA RESULT:     -11.2      1.520      5.618
REMARK  Name = 
REMARK  10 active torsions:
REMARK  status: ('A' for Active; 'I' for Inactive)
REMARK    1  A    between atoms: O_2  and  C_3
REMARK    2  A    between atoms: C_3  and  C_5
REMARK    3  A    between atoms: C_5  and  C_6
REMARK    4  A    between atoms: C_5  and  N_15
REMARK    5  A    between atoms: C_6  and  C_7
REMARK    6  A    between atoms: C_10  and  O_11
REMARK    7  A    between atoms: C_16  and  C_18
REMARK    8  A    between atoms: N_20  and  S_33
REMARK    9  A    between atoms: N_26  and  C_27
REMARK   10  A    between atoms: S_33  and  C_36
REMARK                            x       y       z     vdW  Elec       q    Type
REMARK                         _______ _______ _______ _____ _____    ______ ____
ROOT
ATOM     18  C   UNL     1      -3.100   0.338  24.705  0.00  0.00    +0.173 C 
ATOM     19  C   UNL     1      -2.372   0.470  25.071  0.00  0.00    +0.125 C 
ATOM     20  N   UNL     1      -1.900  -0.169  25.293  0.00  0.00    -0.152 NA
ATOM     21  C   UNL     1      -2.156  -0.940  25.150  0.00  0.00    +0.117 C 
ATOM     22  C   UNL     1      -2.884  -1.072  24.785  0.00  0.00    +0.115 C 
ATOM     23  N   UNL     1      -3.356  -0.433  24.562  0.00  0.00    -0.253 N 
ATOM     24  C   UNL     1      -4.083  -0.565  24.197  0.00  0.00    +0.324 C 
ATOM     25  O   UNL     1      -4.556   0.074  23.975  0.00  0.00    -0.251 OA
ATOM     26  N   UNL     1      -4.339  -1.336  24.054  0.00  0.00    -0.190 NA
ENDROOT
BRANCH  26  27
ATOM     27  C   UNL     1      -3.868  -1.976  24.276  0.00  0.00    +0.097 C 
ATOM     28  C   UNL     1      -3.378  -2.339  23.720  0.00  0.00    +0.022 C 
ATOM     29  C   UNL     1      -2.906  -2.978  23.942  0.00  0.00    +0.002 C 
ATOM     30  C   UNL     1      -2.924  -3.255  24.719  0.00  0.00    +0.000 C 
ATOM     31  C   UNL     1      -3.414  -2.892  25.274  0.00  0.00    +0.002 C 
ATOM     32  C   UNL     1      -3.886  -2.252  25.054  0.00  0.00    +0.022 C 
ENDBRANCH  26  27
BRANCH  18  16
ATOM     15  N   UNL     1      -3.731   1.580  25.023  0.00  0.00    -0.194 NA
ATOM     16  C   UNL     1      -3.572   0.977  24.483  0.00  0.00    +0.261 C 
ATOM     17  O   UNL     1      -3.884   1.014  23.720  0.00  0.00    -0.271 OA
BRANCH  15   5
ATOM      5  C   UNL     1      -4.203   2.219  24.800  0.00  0.00    +0.198 C 
BRANCH   5   3
ATOM      3  C   UNL     1      -4.986   2.263  25.053  0.00  0.00    +0.337 C 
ATOM      4  O   UNL     1      -5.582   2.457  24.518  0.00  0.00    -0.248 OA
BRANCH   3   2
ATOM      1  C   UNL     1      -5.958   2.145  26.094  0.00  0.00    +0.256 C 
ATOM      2  O   UNL     1      -5.173   2.111  25.842  0.00  0.00    -0.443 OA
ENDBRANCH   3   2
ENDBRANCH   5   3
BRANCH   5   6
ATOM      6  C   UNL     1      -3.890   2.815  24.323  0.00  0.00    +0.059 C 
BRANCH   6   7
ATOM      7  C   UNL     1      -3.341   3.347  24.633  0.00  0.00    -0.020 A 
ATOM      8  C   UNL     1      -2.671   3.548  24.195  0.00  0.00    -0.001 A 
ATOM      9  C   UNL     1      -2.121   4.080  24.505  0.00  0.00    +0.037 A 
ATOM     10  C   UNL     1      -2.241   4.410  25.252  0.00  0.00    +0.139 A 
ATOM     13  C   UNL     1      -2.911   4.208  25.688  0.00  0.00    +0.037 A 
ATOM     14  C   UNL     1      -3.461   3.677  25.379  0.00  0.00    -0.001 A 
BRANCH  10  11
ATOM     11  O   UNL     1      -1.692   4.941  25.560  0.00  0.00    -0.471 OA
ATOM     12  C   UNL     1      -1.117   5.272  25.070  0.00  0.00    +0.252 C 
ENDBRANCH  10  11
ENDBRANCH   6   7
ENDBRANCH   5   6
ENDBRANCH  15   5
ENDBRANCH  18  16
BRANCH  20  33
ATOM     33  S   UNL     1      -1.172  -0.037  25.658  0.00  0.00    +0.063 S 
ATOM     34  O   UNL     1      -0.445   0.095  26.023  0.00  0.00    -0.153 OA
ATOM     35  O   UNL     1      -1.541  -0.050  26.396  0.00  0.00    -0.153 OA
BRANCH  33  36
ATOM     36  C   UNL     1      -0.804  -0.024  24.920  0.00  0.00    +0.122 A 
ATOM     37  C   UNL     1      -0.721   0.688  24.512  0.00  0.00    +0.020 A 
ATOM     38  C   UNL     1      -0.353   0.700  23.773  0.00  0.00    +0.001 A 
ATOM     39  C   UNL     1      -0.069   0.000  23.443  0.00  0.00    +0.000 A 
ATOM     40  C   UNL     1      -0.152  -0.712  23.851  0.00  0.00    +0.001 A 
ATOM     41  C   UNL     1      -0.519  -0.725  24.589  0.00  0.00    +0.020 A 
ENDBRANCH  33  36
ENDBRANCH  20  33
TORSDOF 10
ENDMDL
MODEL 3
REMARK VINA RESULT:     -10.6      1.189      4.510
REMARK  Name = 
REMARK  10 active torsions:
REMARK  status: ('A' for Active; 'I' for Inactive)
REMARK    1  A    between atoms: O_2  and  C_3
REMARK    2  A    between atoms: C_3  and  C_5
REMARK    3  A    between atoms: C_5  and  C_6
REMARK    4  A    between atoms: C_5  and  N_15
REMARK    5  A    between atoms: C_6  and  C_7
REMARK    6  A    between atoms: C_10  and  O_11
REMARK    7  A    between atoms: C_16  and  C_18
REMARK    8  A    between atoms: N_20  and  S_33
REMARK    9  A    between atoms: N_26  and  C_27
REMARK   10  A    between atoms: S_33  and  C_36
REMARK                            x       y       z     vdW  Elec       q    Type
REMARK                         _______ _______ _______ _____ _____    ______ ____
ROOT
ATOM     18  C   UNL     1      -2.066   0.751  24.848  0.00  0.00    +0.173 C 
ATOM     19  C   UNL     1      -2.605   1.189  24.401  0.00  0.00    +0.125 C 
ATOM     20  N   UNL     1      -3.266   0.818  24.076  0.00  0.00    -0.152 NA
ATOM     21  C   UNL     1      -3.389   0.011  24.197  0.00  0.00    +0.117 C 
ATOM     22  C   UNL     1      -2.851  -0.425  24.643  0.00  0.00    +0.115 C 
ATOM     23  N   UNL     1      -2.189  -0.055  24.969  0.00  0.00    -0.253 N 
ATOM     24  C   UNL     1      -1.650  -0.492  25.416  0.00  0.00    +0.324 C 
ATOM     25  O   UNL     1      -0.988  -0.122  25.742  0.00  0.00    -0.251 OA
ATOM     26  N   UNL     1      -1.773  -1.299  25.537  0.00  0.00    -0.190 NA
ENDROOT
BRANCH  26  27
ATOM     27  C   UNL     1      -2.434  -1.669  25.212  0.00  0.00    +0.097 C 
ATOM     28  C   UNL     1      -2.401  -1.972  24.444  0.00  0.00    +0.022 C 
ATOM     29  C   UNL     1      -3.063  -2.342  24.119  0.00  0.00    +0.002 C 
ATOM     30  C   UNL     1      -3.757  -2.410  24.560  0.00  0.00    +0.000 C 
ATOM     31  C   UNL     1      -3.789  -2.108  25.326  0.00  0.00    +0.002 C 
ATOM     32  C   UNL     1      -3.129  -1.737  25.652  0.00  0.00    +0.022 C 
ENDBRANCH  26  27
BRANCH  18  16
ATOM     15  N   UNL     1      -1.022   1.723  24.759  0.00  0.00    -0.194 NA
ATOM     16  C   UNL     1      -1.404   1.122  25.174  0.00  0.00    +0.261 C 
ATOM     17  O   UNL     1      -1.125   0.890  25.915  0.00  0.00    -0.271 OA
BRANCH  15   5
ATOM      5  C   UNL     1      -0.360   2.093  25.085  0.00  0.00    +0.198 C 
BRANCH   5   3
ATOM      3  C   UNL     1       0.394   1.911  24.807  0.00  0.00    +0.337 C 
ATOM      4  O   UNL     1       1.031   1.886  25.329  0.00  0.00    -0.248 OA
BRANCH   3   2
ATOM      1  C   UNL     1       1.245   1.487  23.740  0.00  0.00    +0.256 C 
ATOM      2  O   UNL     1       0.511   1.754  24.006  0.00  0.00    -0.443 OA
ENDBRANCH   3   2
ENDBRANCH   5   3
BRANCH   5   6
ATOM      6  C   UNL     1      -0.454   2.646  25.691  0.00  0.00    +0.059 C 
BRANCH   6   7
ATOM      7  C   UNL     1      -0.721   3.407  25.518  0.00  0.00    -0.020 A 
ATOM      8  C   UNL     1      -1.373   3.715  25.918  0.00  0.00    -0.001 A 
ATOM      9  C   UNL     1      -1.640   4.477  25.746  0.00  0.00    +0.037 A 
ATOM     10  C   UNL     1      -1.256   4.929  25.173  0.00  0.00    +0.139 A 
ATOM     13  C   UNL     1      -0.604   4.619  24.772  0.00  0.00    +0.037 A 
ATOM     14  C   UNL     1      -0.337   3.859  24.945  0.00  0.00    -0.001 A 
BRANCH  10  11
ATOM     11  O   UNL     1      -1.523   5.690  25.000  0.00  0.00    -0.471 OA
ATOM     12  C   UNL     1      -2.331   5.834  24.921  0.00  0.00    +0.252 C 
ENDBRANCH  10  11
ENDBRANCH   6   7
ENDBRANCH   5   6
ENDBRANCH  15   5
ENDBRANCH  18  16
BRANCH  20  33
ATOM     33  S   UNL     1      -3.805   1.256  23.629  0.00  0.00    +0.063 S 
ATOM     34  O   UNL     1      -4.343   1.692  23.182  0.00  0.00    -0.153 OA
ATOM     35  O   UNL     1      -3.365   1.101  22.948  0.00  0.00    -0.153 OA
BRANCH  33  36
ATOM     36  C   UNL     1      -4.245   1.409  24.310  0.00  0.00    +0.122 A 
ATOM     37  C   UNL     1      -4.113   2.101  24.739  0.00  0.00    +0.020 A 
ATOM     38  C   UNL     1      -4.553   2.254  25.420  0.00  0.00    +0.001 A 
ATOM     39  C   UNL     1      -5.124   1.715  25.672  0.00  0.00    +0.000 A 
ATOM     40  C   UNL     1      -5.256   1.023  25.243  0.00  0.00    +0.001 A 
ATOM     41  C   UNL     1      -4.816   0.870  24.562  0.00  0.00    +0.020 A 
ENDBRANCH  33  36
ENDBRANCH  20  33
TORSDOF 10
ENDMDL
MODEL 4
REMARK VINA RESULT:     -10.3      1.383      3.401
REMARK  Name = 
REMARK  10 active torsions:
REMARK  status: ('A' for Active; 'I' for Inactive)
REMARK    1  A    between atoms: O_2  and  C_3
REMARK    2  A    between atoms: C_3  and  C_5
REMARK    3  A    between atoms: C_5  and  C_6
REMARK    4  A    between atoms: C_5  and  N_15
REMARK    5  A    between atoms: C_6  and  C_7
REMARK    6  A    between atoms: C_10  and  O_11
REMARK    7  A    between atoms: C_16  and  C_18
REMARK    8  A    between atoms: N_20  and  S_33
REMARK    9  A    between atoms: N_26  and  C_27
REMARK   10  A    between atoms: S_33  and  C_36
REMARK                            x       y       z     vdW  Elec       q    Type
REMARK                         _______ _______ _______ _____ _____    ______ ____
ROOT
ATOM     18  C   UNL     1      -2.560   2.063  24.797  0.00  0.00    +0.173 C 
ATOM     19  C   UNL     1      -1.970   1.592  25.131  0.00  0.00    +0.125 C 
ATOM     20  N   UNL     1      -1.261   1.934  25.377  0.00  0.00    -0.152 NA
ATOM     21  C   UNL     1      -1.141   2.745  25.288  0.00  0.00    +0.117 C 
ATOM     22  C   UNL     1      -1.730   3.215  24.954  0.00  0.00    +0.115 C 
ATOM     23  N   UNL     1      -2.440   2.874  24.708  0.00  0.00    -0.253 N 
ATOM     24  C   UNL     1      -3.030   3.344  24.374  0.00  0.00    +0.324 C 
ATOM     25  O   UNL     1      -3.740   3.003  24.128  0.00  0.00    -0.251 OA
ATOM     26  N   UNL     1      -2.909   4.155  24.285  0.00  0.00    -0.190 NA
ENDROOT
BRANCH  26  27
ATOM     27  C   UNL     1      -2.200   4.497  24.530  0.00  0.00    +0.097 C 
ATOM     28  C   UNL     1      -1.577   4.583  23.995  0.00  0.00    +0.022 C 
ATOM     29  C   UNL     1      -0.868   4.925  24.240  0.00  0.00    +0.002 C 
ATOM     30  C   UNL     1      -0.780   5.180  25.020  0.00  0.00    +0.000 C 
ATOM     31  C   UNL     1      -1.402   5.094  25.554  0.00  0.00    +0.002 C 
ATOM     32  C   UNL     1      -2.112   4.752  25.310  0.00  0.00    +0.022 C 
ENDBRANCH  26  27
BRANCH  18  16
ATOM     15  N   UNL     1      -3.670   1.199  25.049  0.00  0.00    -0.194 NA
ATOM     16  C   UNL     1      -3.270   1.721  24.552  0.00  0.00    +0.261 C 
ATOM     17  O   UNL     1      -3.579   1.902  23.808  0.00  0.00    -0.271 OA
BRANCH  15   5
ATOM      5  C   UNL     1      -4.380   0.857  24.802  0.00  0.00    +0.198 C 
BRANCH   5   3
ATOM      3  C   UNL     1      -5.094   1.107  25.130  0.00  0.00    +0.337 C 
ATOM      4  O   UNL     1      -5.177   1.157  25.949  0.00  0.00    -0.248 OA
BRANCH   3   2
ATOM      1  C   UNL     1      -6.416   1.623  24.962  0.00  0.00    +0.256 C 
ATOM      2  O   UNL     1      -5.726   1.306  24.639  0.00  0.00    -0.443 OA
ENDBRANCH   3   2
ENDBRANCH   5   3
BRANCH   5   6
ATOM      6  C   UNL     1      -4.375   0.266  24.227  0.00  0.00    +0.059 C 
BRANCH   6   7
ATOM      7  C   UNL     1      -4.164  -0.505  24.429  0.00  0.00    -0.020 A 
ATOM      8  C   UNL     1      -4.171  -1.097  23.855  0.00  0.00    -0.001 A 
ATOM      9  C   UNL     1      -3.959  -1.870  24.057  0.00  0.00    +0.037 A 
ATOM     10  C   UNL     1      -3.741  -2.048  24.832  0.00  0.00    +0.139 A 
ATOM     13  C   UNL     1      -3.735  -1.455  25.406  0.00  0.00    +0.037 A 
ATOM     14  C   UNL     1      -3.946  -0.684  25.204  0.00  0.00    -0.001 A 
BRANCH  10  11
ATOM     11  O   UNL     1      -3.530  -2.819  25.034  0.00  0.00    -0.471 OA
ATOM     12  C   UNL     1      -2.946  -3.213  24.604  0.00  0.00    +0.252 C 
ENDBRANCH  10  11
ENDBRANCH   6   7
ENDBRANCH   5   6
ENDBRANCH  15   5
ENDBRANCH  18  16
BRANCH  20  33
ATOM     33  S   UNL     1      -0.670   1.463  25.711  0.00  0.00    +0.063 S 
ATOM     34  O   UNL     1      -0.081   0.993  26.046  0.00  0.00    -0.153 OA
ATOM     35  O   UNL     1      -0.961   1.635  26.464  0.00  0.00    -0.153 OA
BRANCH  33  36
ATOM     36  C   UNL     1      -0.381   1.292  24.958  0.00  0.00    +0.122 A 
ATOM     37  C   UNL     1       0.165   1.797  24.601  0.00  0.00    +0.020 A 
ATOM     38  C   UNL     1       0.455   1.624  23.848  0.00  0.00    +0.001 A 
ATOM     39  C   UNL     1       0.198   0.948  23.452  0.00  0.00    +0.000 A 
ATOM     40  C   UNL     1      -0.348   0.443  23.809  0.00  0.00    +0.001 A 
ATOM     41  C   UNL     1      -0.638   0.615  24.562  0.00  0.00    +0.020 A 
ENDBRANCH  33  36
ENDBRANCH  20  33
TORSDOF 10
ENDMDL
MODEL 5
REMARK VINA RESULT:      -9.9      0.835      2.463
REMARK  Name = 
REMARK  10 active torsions:
REMARK  status: ('A' for Active; 'I' for Inactive)
REMARK    1  A    between atoms: O_2  and  C_3
REMARK    2  A    between atoms: C_3  and  C_5
REMARK    3  A    between atoms: C_5  and  C_6
REMARK    4  A    between atoms: C_5  and  N_15
REMARK    5  A    between atoms: C_6  and  C_7
REMARK    6  A    between atoms: C_10  and  O_11
REMARK    7  A    between atoms: C_16  and  C_18
REMARK    8  A    between atoms: N_20  and  S_33
REMARK    9  A    between atoms: N_26  and  C_27
REMARK   10  A    between atoms: S_33  and  C_36
REMARK                            x       y       z     vdW  Elec       q    Type
REMARK                         _______ _______ _______ _____ _____    ______ ____
ROOT
ATOM     18  C   UNL     1      -2.045   1.647  24.817  0.00  0.00    +0.173 C 
ATOM     19  C   UNL     1      -2.682   1.631  24.292  0.00  0.00    +0.125 C 
ATOM     20  N   UNL     1      -3.055   2.334  24.076  0.00  0.00    -0.152 NA
ATOM     21  C   UNL     1      -2.792   3.053  24.383  0.00  0.00    +0.117 C 
ATOM     22  C   UNL     1      -2.156   3.068  24.907  0.00  0.00    +0.115 C 
ATOM     23  N   UNL     1      -1.782   2.366  25.125  0.00  0.00    -0.253 N 
ATOM     24  C   UNL     1      -1.146   2.381  25.649  0.00  0.00    +0.324 C 
ATOM     25  O   UNL     1      -0.772   1.679  25.867  0.00  0.00    -0.251 OA
ATOM     26  N   UNL     1      -0.882   3.100  25.957  0.00  0.00    -0.190 NA
ENDROOT
BRANCH  26  27
ATOM     27  C   UNL     1      -1.255   3.803  25.740  0.00  0.00    +0.097 C 
ATOM     28  C   UNL     1      -1.901   4.078  26.175  0.00  0.00    +0.022 C 
ATOM     29  C   UNL     1      -2.274   4.782  25.958  0.00  0.00    +0.002 C 
ATOM     30  C   UNL     1      -2.002   5.210  25.308  0.00  0.00    +0.000 C 
ATOM     31  C   UNL     1      -1.357   4.935  24.874  0.00  0.00    +0.002 C 
ATOM     32  C   UNL     1      -0.983   4.232  25.089  0.00  0.00    +0.022 C 
ENDBRANCH  26  27
BRANCH  18  16
ATOM     15  N   UNL     1      -1.420   0.414  24.454  0.00  0.00    -0.194 NA
ATOM     16  C   UNL     1      -1.672   0.944  25.034  0.00  0.00    +0.261 C 
ATOM     17  O   UNL     1      -1.551   0.770  25.832  0.00  0.00    -0.271 OA
BRANCH  15   5
ATOM      5  C   UNL     1      -1.047  -0.289  24.672  0.00  0.00    +0.198 C 
BRANCH   5   3
ATOM      3  C   UNL     1      -1.497  -0.956  24.852  0.00  0.00    +0.337 C 
ATOM      4  O   UNL     1      -1.324  -1.401  25.524  0.00  0.00    -0.248 OA
BRANCH   3   2
ATOM      1  C   UNL     1      -2.554  -1.860  24.525  0.00  0.00    +0.256 C 
ATOM      2  O   UNL     1      -2.120  -1.179  24.359  0.00  0.00    -0.443 OA
ENDBRANCH   3   2
ENDBRANCH   5   3
BRANCH   5   6
ATOM      6  C   UNL     1      -0.224  -0.324  24.710  0.00  0.00    +0.059 C 
BRANCH   6   7
ATOM      7  C   UNL     1       0.224  -0.273  24.019  0.00  0.00    -0.020 A 
ATOM      8  C   UNL     1       0.807   0.307  23.949  0.00  0.00    -0.001 A 
ATOM      9  C   UNL     1       1.255   0.359  23.257  0.00  0.00    +0.037 A 
ATOM     10  C   UNL     1       1.120  -0.168  22.637  0.00  0.00    +0.139 A 
ATOM     13  C   UNL     1       0.536  -0.747  22.708  0.00  0.00    +0.037 A 
ATOM     14  C   UNL     1       0.088  -0.799  23.398  0.00  0.00    -0.001 A 
BRANCH  10  11
ATOM     11  O   UNL     1       1.567  -0.116  21.947  0.00  0.00    -0.471 OA
ATOM     12  C   UNL     1       2.387  -0.031  21.993  0.00  0.00    +0.252 C 
ENDBRANCH  10  11
ENDBRANCH   6   7
ENDBRANCH   5   6
ENDBRANCH  15   5
ENDBRANCH  18  16
BRANCH  20  33
ATOM     33  S   UNL     1      -3.692   2.318  23.551  0.00  0.00    +0.063 S 
ATOM     34  O   UNL     1      -4.328   2.302  23.026  0.00  0.00    -0.153 OA
ATOM     35  O   UNL     1      -3.170   2.391  22.916  0.00  0.00    -0.153 OA
BRANCH  33  36
ATOM     36  C   UNL     1      -4.213   2.245  24.186  0.00  0.00    +0.122 A 
ATOM     37  C   UNL     1      -4.542   2.919  24.530  0.00  0.00    +0.020 A 
ATOM     38  C   UNL     1      -5.063   2.844  25.166  0.00  0.00    +0.001 A 
ATOM     39  C   UNL     1      -5.255   2.097  25.457  0.00  0.00    +0.000 A 
ATOM     40  C   UNL     1      -4.927   1.424  25.112  0.00  0.00    +0.001 A 
ATOM     41  C   UNL     1      -4.406   1.497  24.477  0.00  0.00    +0.020 A 
ENDBRANCH  33  36
ENDBRANCH  20  33
TORSDOF 10
ENDMDL
MODEL 6
REMARK VINA RESULT:      -9.7      1.566      4.505
REMARK  Name = 
REMARK  10 active torsions:
REMARK  status: ('A' for Active; 'I' for Inactive)
REMARK    1  A    between atoms: O_2  and  C_3
REMARK    2  A    between atoms: C_3  and  C_5
REMARK    3  A    between atoms: C_5  and  C_6
REMARK    4  A    between atoms: C_5  and  N_15
REMARK    5  A    between atoms: C_6  and  C_7
REMARK    6  A    between atoms: C_10  and  O_11
REMARK    7  A    between atoms: C_16  and  C_18
REMARK    8  A    between atoms: N_20  and  S_33
REMARK    9  A    between atoms: N_26  and  C_27
REMARK   10  A    between atoms: S_33  and  C_36
REMARK                            x       y       z     vdW  Elec       q    Type
REMARK                         _______ _______ _______ _____ _____    ______ ____
ROOT
ATOM     18  C   UNL     1      -2.532   0.978  24.504  0.00  0.00    +0.173 C 
ATOM     19  C   UNL     1      -2.876   0.427  25.014  0.00  0.00    +0.125 C 
ATOM     20  N   UNL     1      -2.482  -0.278  25.185  0.00  0.00    -0.152 NA
ATOM     21  C   UNL     1      -1.745  -0.431  24.848  0.00  0.00    +0.117 C 
ATOM     22  C   UNL     1      -1.402   0.119  24.339  0.00  0.00    +0.115 C 
ATOM     23  N   UNL     1      -1.795   0.824  24.167  0.00  0.00    -0.253 N 
ATOM     24  C   UNL     1      -1.451   1.374  23.658  0.00  0.00    +0.324 C 
ATOM     25  O   UNL     1      -1.844   2.079  23.486  0.00  0.00    -0.251 OA
ATOM     26  N   UNL     1      -0.714   1.221  23.321  0.00  0.00    -0.190 NA
ENDROOT
BRANCH  26  27
ATOM     27  C   UNL     1      -0.321   0.516  23.493  0.00  0.00    +0.097 C 
ATOM     28  C   UNL     1      -0.388  -0.129  22.981  0.00  0.00    +0.022 C 
ATOM     29  C   UNL     1       0.006  -0.833  23.153  0.00  0.00    +0.002 C 
ATOM     30  C   UNL     1       0.467  -0.893  23.834  0.00  0.00    +0.000 C 
ATOM     31  C   UNL     1       0.534  -0.249  24.344  0.00  0.00    +0.002 C 
ATOM     32  C   UNL     1       0.140   0.456  24.174  0.00  0.00    +0.022 C 
ENDBRANCH  26  27
BRANCH  18  16
ATOM     15  N   UNL     1      -3.234   2.142  24.944  0.00  0.00    -0.194 NA
ATOM     16  C   UNL     1      -2.925   1.682  24.333  0.00  0.00    +0.261 C 
ATOM     17  O   UNL     1      -3.011   1.926  23.549  0.00  0.00    -0.271 OA
BRANCH  15   5
ATOM      5  C   UNL     1      -3.628   2.846  24.772  0.00  0.00    +0.198 C 
BRANCH   5   3
ATOM      3  C   UNL     1      -3.254   3.570  24.898  0.00  0.00    +0.337 C 
ATOM      4  O   UNL     1      -3.319   4.172  24.338  0.00  0.00    -0.248 OA
BRANCH   3   2
ATOM      1  C   UNL     1      -2.421   4.408  25.702  0.00  0.00    +0.256 C 
ATOM      2  O   UNL     1      -2.814   3.693  25.585  0.00  0.00    -0.443 OA
ENDBRANCH   3   2
ENDBRANCH   5   3
BRANCH   5   6
ATOM      6  C   UNL     1      -4.396   2.826  24.472  0.00  0.00    +0.059 C 
BRANCH   6   7
ATOM      7  C   UNL     1      -5.022   2.596  24.957  0.00  0.00    -0.020 A 
ATOM      8  C   UNL     1      -5.583   2.059  24.678  0.00  0.00    -0.001 A 
ATOM      9  C   UNL     1      -6.210   1.828  25.163  0.00  0.00    +0.037 A 
ATOM     10  C   UNL     1      -6.276   2.135  25.926  0.00  0.00    +0.139 A 
ATOM     13  C   UNL     1      -5.714   2.672  26.204  0.00  0.00    +0.037 A 
ATOM     14  C   UNL     1      -5.088   2.902  25.720  0.00  0.00    -0.001 A 
BRANCH  10  11
ATOM     11  O   UNL     1      -6.902   1.904  26.410  0.00  0.00    -0.471 OA
ATOM     12  C   UNL     1      -6.753   1.490  27.108  0.00  0.00    +0.252 C 
ENDBRANCH  10  11
ENDBRANCH   6   7
ENDBRANCH   5   6
ENDBRANCH  15   5
ENDBRANCH  18  16
BRANCH  20  33
ATOM     33  S   UNL     1      -2.826  -0.829  25.695  0.00  0.00    +0.063 S 
ATOM     34  O   UNL     1      -3.170  -1.379  26.204  0.00  0.00    -0.153 OA
ATOM     35  O   UNL     1      -2.456  -0.466  26.336  0.00  0.00    -0.153 OA
BRANCH  33  36
ATOM     36  C   UNL     1      -3.196  -1.191  25.053  0.00  0.00    +0.122 A 
ATOM     37  C   UNL     1      -3.928  -0.917  24.789  0.00  0.00    +0.020 A 
ATOM     38  C   UNL     1      -4.297  -1.280  24.146  0.00  0.00    +0.001 A 
ATOM     39  C   UNL     1      -3.935  -1.916  23.768  0.00  0.00    +0.000 A 
ATOM     40  C   UNL     1      -3.203  -2.190  24.031  0.00  0.00    +0.001 A 
ATOM     41  C   UNL     1      -2.833  -1.828  24.674  0.00  0.00    +0.020 A 
ENDBRANCH  33  36
ENDBRANCH  20  33
TORSDOF 10
ENDMDL
MODEL 7
REMARK VINA RESULT:      -9.6      1.634      4.017
REMARK  Name = 
REMARK  10 active torsions:
REMARK  status: ('A' for Active; 'I' for Inactive)
REMARK    1  A    between atoms: O_2  and  C_3
REMARK    2  A    between atoms: C_3  and  C_5
REMARK    3  A    between atoms: C_5  and  C_6
REMARK    4  A    between atoms: C_5  and  N_15
REMARK    5  A    between atoms: C_6  and  C_7
REMARK    6  A    between atoms: C_10  and  O_11
REMARK    7  A    between atoms: C_16  and  C_18
REMARK    8  A    between atoms: N_20  and  S_33
REMARK    9  A    between atoms: N_26  and  C_27
REMARK   10  A    between atoms: S_33  and  C_36
REMARK                            x       y       z     vdW  Elec       q    Type
REMARK                         _______ _______ _______ _____ _____    ______ ____
ROOT
ATOM     18  C   UNL     1      -2.875   1.457  24.435  0.00  0.00    +0.173 C 
ATOM     19  C   UNL     1      -2.908   0.666  24.202  0.00  0.00    +0.125 C 
ATOM     20  N   UNL     1      -3.619   0.250  24.256  0.00  0.00    -0.152 NA
ATOM     21  C   UNL     1      -4.295   0.624  24.544  0.00  0.00    +0.117 C 
ATOM     22  C   UNL     1      -4.262   1.414  24.776  0.00  0.00    +0.115 C 
ATOM     23  N   UNL     1      -3.552   1.832  24.722  0.00  0.00    -0.253 N 
ATOM     24  C   UNL     1      -3.519   2.622  24.955  0.00  0.00    +0.324 C 
ATOM     25  O   UNL     1      -2.809   3.039  24.901  0.00  0.00    -0.251 OA
ATOM     26  N   UNL     1      -4.195   2.996  25.242  0.00  0.00    -0.190 NA
ENDROOT
BRANCH  26  27
ATOM     27  C   UNL     1      -4.906   2.580  25.297  0.00  0.00    +0.097 C 
ATOM     28  C   UNL     1      -5.129   2.238  26.015  0.00  0.00    +0.022 C 
ATOM     29  C   UNL     1      -5.839   1.822  26.069  0.00  0.00    +0.002 C 
ATOM     30  C   UNL     1      -6.326   1.748  25.408  0.00  0.00    +0.000 C 
ATOM     31  C   UNL     1      -6.103   2.089  24.691  0.00  0.00    +0.002 C 
ATOM     32  C   UNL     1      -5.393   2.506  24.635  0.00  0.00    +0.022 C 
ENDBRANCH  26  27
BRANCH  18  16
ATOM     15  N   UNL     1      -1.476   1.560  24.709  0.00  0.00    -0.194 NA
ATOM     16  C   UNL     1      -2.165   1.873  24.380  0.00  0.00    +0.261 C 
ATOM     17  O   UNL     1      -2.144   2.604  23.996  0.00  0.00    -0.271 OA
BRANCH  15   5
ATOM      5  C   UNL     1      -0.766   1.977  24.653  0.00  0.00    +0.198 C 
BRANCH   5   3
ATOM      3  C   UNL     1      -0.443   2.331  25.323  0.00  0.00    +0.337 C 
ATOM      4  O   UNL     1      -0.190   3.115  25.294  0.00  0.00    -0.248 OA
BRANCH   3   2
ATOM      1  C   UNL     1      -0.075   2.264  26.703  0.00  0.00    +0.256 C 
ATOM      2  O   UNL     1      -0.371   1.901  26.024  0.00  0.00    -0.443 OA
ENDBRANCH   3   2
ENDBRANCH   5   3
BRANCH   5   6
ATOM      6  C   UNL     1      -0.381   2.039  23.927  0.00  0.00    +0.059 C 
BRANCH   6   7
ATOM      7  C   UNL     1       0.183   1.477  23.709  0.00  0.00    -0.020 A 
ATOM      8  C   UNL     1      -0.058   0.730  23.456  0.00  0.00    -0.001 A 
ATOM      9  C   UNL     1       0.505   0.167  23.238  0.00  0.00    +0.037 A 
ATOM     10  C   UNL     1       1.309   0.352  23.273  0.00  0.00    +0.139 A 
ATOM     13  C   UNL     1       1.548   1.100  23.526  0.00  0.00    +0.037 A 
ATOM     14  C   UNL     1       0.986   1.662  23.744  0.00  0.00    -0.001 A 
BRANCH  10  11
ATOM     11  O   UNL     1       1.871  -0.210  23.055  0.00  0.00    -0.471 OA
ATOM     12  C   UNL     1       2.449  -0.020  22.498  0.00  0.00    +0.252 C 
ENDBRANCH  10  11
ENDBRANCH   6   7
ENDBRANCH   5   6
ENDBRANCH  15   5
ENDBRANCH  18  16
BRANCH  20  33
ATOM     33  S   UNL     1      -3.652  -0.541  24.023  0.00  0.00    +0.063 S 
ATOM     34  O   UNL     1      -3.685  -1.331  23.790  0.00  0.00    -0.153 OA
ATOM     35  O   UNL     1      -3.861  -0.307  23.260  0.00  0.00    -0.153 OA
BRANCH  33  36
ATOM     36  C   UNL     1      -3.443  -0.774  24.786  0.00  0.00    +0.122 A 
ATOM     37  C   UNL     1      -4.026  -0.871  25.362  0.00  0.00    +0.020 A 
ATOM     38  C   UNL     1      -3.815  -1.105  26.125  0.00  0.00    +0.001 A 
ATOM     39  C   UNL     1      -3.024  -1.241  26.312  0.00  0.00    +0.000 A 
ATOM     40  C   UNL     1      -2.442  -1.144  25.736  0.00  0.00    +0.001 A 
ATOM     41  C   UNL     1      -2.650  -0.911  24.973  0.00  0.00    +0.020 A 
ENDBRANCH  33  36
ENDBRANCH  20  33
TORSDOF 10
ENDMDL
MODEL 8
REMARK VINA RESULT:      -9.6      1.239      3.377
REMARK  Name = 
REMARK  10 active torsions:
REMARK  status: ('A' for Active; 'I' for Inactive)
REMARK    1  A    between atoms: O_2  and  C_3
REMARK    2  A    between atoms: C_3  and  C_5
REMARK    3  A    between atoms: C_5  and  C_6
REMARK    4  A    between atoms: C_5  and  N_15
REMARK    5  A    between atoms: C_6  and  C_7
REMARK    6  A    between atoms: C_10  and  O_11
REMARK    7  A    between atoms: C_16  and  C_18
REMARK    8  A    between atoms: N_20  and  S_33
REMARK    9  A    between atoms: N_26  and  C_27
REMARK   10  A    between atoms: S_33  and  C_36
REMARK                            x       y       z     vdW  Elec       q    Type
REMARK                         _______ _______ _______ _____ _____    ______ ____
ROOT
ATOM     18  C   UNL     1      -3.542   0.785  24.850  0.00  0.00    +0.173 C 
ATOM     19  C   UNL     1      -2.992   1.195  24.391  0.00  0.00    +0.125 C 
ATOM     20  N   UNL     1      -3.135   1.979  24.180  0.00  0.00    -0.152 NA
ATOM     21  C   UNL     1      -3.827   2.354  24.427  0.00  0.00    +0.117 C 
ATOM     22  C   UNL     1      -4.376   1.944  24.885  0.00  0.00    +0.115 C 
ATOM     23  N   UNL     1      -4.234   1.159  25.097  0.00  0.00    -0.253 N 
ATOM     24  C   UNL     1      -4.784   0.750  25.555  0.00  0.00    +0.324 C 
ATOM     25  O   UNL     1      -4.642  -0.035  25.767  0.00  0.00    -0.251 OA
ATOM     26  N   UNL     1      -5.476   1.124  25.802  0.00  0.00    -0.190 NA
ENDROOT
BRANCH  26  27
ATOM     27  C   UNL     1      -5.619   1.909  25.591  0.00  0.00    +0.097 C 
ATOM     28  C   UNL     1      -5.416   2.519  26.108  0.00  0.00    +0.022 C 
ATOM     29  C   UNL     1      -5.559   3.303  25.897  0.00  0.00    +0.002 C 
ATOM     30  C   UNL     1      -5.905   3.478  25.169  0.00  0.00    +0.000 C 
ATOM     31  C   UNL     1      -6.108   2.869  24.652  0.00  0.00    +0.002 C 
ATOM     32  C   UNL     1      -5.965   2.084  24.862  0.00  0.00    +0.022 C 
ENDBRANCH  26  27
BRANCH  18  16
ATOM     15  N   UNL     1      -3.072  -0.522  24.514  0.00  0.00    -0.194 NA
ATOM     16  C   UNL     1      -3.399   0.000  25.062  0.00  0.00    +0.261 C 
ATOM     17  O   UNL     1      -3.584  -0.262  25.823  0.00  0.00    -0.271 OA
BRANCH  15   5
ATOM      5  C   UNL     1      -2.929  -1.307  24.726  0.00  0.00    +0.198 C 
BRANCH   5   3
ATOM      3  C   UNL     1      -3.473  -1.893  24.529  0.00  0.00    +0.337 C 
ATOM      4  O   UNL     1      -3.650  -2.490  25.070  0.00  0.00    -0.248 OA
BRANCH   3   2
ATOM      1  C   UNL     1      -4.332  -2.507  23.566  0.00  0.00    +0.256 C 
ATOM      2  O   UNL     1      -3.842  -1.883  23.791  0.00  0.00    -0.443 OA
ENDBRANCH   3   2
ENDBRANCH   5   3
BRANCH   5   6
ATOM      6  C   UNL     1      -2.241  -1.504  25.136  0.00  0.00    +0.059 C 
BRANCH   6   7
ATOM      7  C   UNL     1      -1.503  -1.355  24.800  0.00  0.00    -0.020 A 
ATOM      8  C   UNL     1      -0.897  -1.037  25.260  0.00  0.00    -0.001 A 
ATOM      9  C   UNL     1      -0.158  -0.889  24.924  0.00  0.00    +0.037 A 
ATOM     10  C   UNL     1      -0.025  -1.058  24.127  0.00  0.00    +0.139 A 
ATOM     13  C   UNL     1      -0.632  -1.377  23.668  0.00  0.00    +0.037 A 
ATOM     14  C   UNL     1      -1.370  -1.525  24.003  0.00  0.00    -0.001 A 
BRANCH  10  11
ATOM     11  O   UNL     1       0.713  -0.910  23.792  0.00  0.00    -0.471 OA
ATOM     12  C   UNL     1       0.823  -0.246  23.315  0.00  0.00    +0.252 C 
ENDBRANCH  10  11
ENDBRANCH   6   7
ENDBRANCH   5   6
ENDBRANCH  15   5
ENDBRANCH  18  16
BRANCH  20  33
ATOM     33  S   UNL     1      -2.584   2.389  23.721  0.00  0.00    +0.063 S 
ATOM     34  O   UNL     1      -2.035   2.798  23.262  0.00  0.00    -0.153 OA
ATOM     35  O   UNL     1      -2.918   2.070  23.037  0.00  0.00    -0.153 OA
BRANCH  33  36
ATOM     36  C   UNL     1      -2.251   2.707  24.405  0.00  0.00    +0.122 A 
ATOM     37  C   UNL     1      -1.668   2.289  24.813  0.00  0.00    +0.020 A 
ATOM     38  C   UNL     1      -1.335   2.609  25.498  0.00  0.00    +0.001 A 
ATOM     39  C   UNL     1      -1.585   3.344  25.774  0.00  0.00    +0.000 A 
ATOM     40  C   UNL     1      -2.169   3.761  25.367  0.00  0.00    +0.001 A 
ATOM     41  C   UNL     1      -2.502   3.443  24.682  0.00  0.00    +0.020 A 
ENDBRANCH  33  36
ENDBRANCH  20  33
TORSDOF 10
ENDMDL
MODEL 9
REMARK VINA RESULT:      -9.5      1.642      3.922
REMARK  Name = 
REMARK  10 active torsions:
REMARK  status: ('A' for Active; 'I' for Inactive)
REMARK    1  A    between atoms: O_2  and  C_3
REMARK    2  A    between atoms: C_3  and  C_5
REMARK    3  A    between atoms: C_5  and  C_6
REMARK    4  A    between atoms: C_5  and  N_15
REMARK    5  A    between atoms: C_6  and  C_7
REMARK    6  A    between atoms: C_10  and  O_11
REMARK    7  A    between atoms: C_16  and  C_18
REMARK    8  A    between atoms: N_20  and  S_33
REMARK    9  A    between atoms: N_26  and  C_27
REMARK   10  A    between atoms: S_33  and  C_36
REMARK                            x       y       z     vdW  Elec       q    Type
REMARK                         _______ _______ _______ _____ _____    ______ ____
ROOT
ATOM     18  C   UNL     1      -1.720   1.638  24.537  0.00  0.00    +0.173 C 
ATOM     19  C   UNL     1      -1.212   2.063  25.031  0.00  0.00    +0.125 C 
ATOM     20  N   UNL     1      -1.505   2.688  25.483  0.00  0.00    -0.152 NA
ATOM     21  C   UNL     1      -2.304   2.889  25.441  0.00  0.00    +0.117 C 
ATOM     22  C   UNL     1      -2.810   2.465  24.947  0.00  0.00    +0.115 C 
ATOM     23  N   UNL     1      -2.519   1.839  24.495  0.00  0.00    -0.253 N 
ATOM     24  C   UNL     1      -3.025   1.415  24.002  0.00  0.00    +0.324 C 
ATOM     25  O   UNL     1      -2.733   0.790  23.550  0.00  0.00    -0.251 OA
ATOM     26  N   UNL     1      -3.824   1.616  23.960  0.00  0.00    -0.190 NA
ENDROOT
BRANCH  26  27
ATOM     27  C   UNL     1      -4.117   2.242  24.411  0.00  0.00    +0.097 C 
ATOM     28  C   UNL     1      -4.369   2.108  25.186  0.00  0.00    +0.022 C 
ATOM     29  C   UNL     1      -4.661   2.733  25.638  0.00  0.00    +0.002 C 
ATOM     30  C   UNL     1      -4.702   3.491  25.315  0.00  0.00    +0.000 C 
ATOM     31  C   UNL     1      -4.451   3.625  24.542  0.00  0.00    +0.002 C 
ATOM     32  C   UNL     1      -4.158   3.000  24.089  0.00  0.00    +0.022 C 
ENDBRANCH  26  27
BRANCH  18  16
ATOM     15  N   UNL     1      -0.761   0.597  24.339  0.00  0.00    -0.194 NA
ATOM     16  C   UNL     1      -1.427   1.013  24.086  0.00  0.00    +0.261 C 
ATOM     17  O   UNL     1      -1.801   0.804  23.380  0.00  0.00    -0.271 OA
BRANCH  15   5
ATOM      5  C   UNL     1      -0.469  -0.029  23.886  0.00  0.00    +0.198 C 
BRANCH   5   3
ATOM      3  C   UNL     1      -0.505  -0.800  24.176  0.00  0.00    +0.337 C 
ATOM      4  O   UNL     1      -0.752  -1.414  23.684  0.00  0.00    -0.248 OA
BRANCH   3   2
ATOM      1  C   UNL     1      -0.490  -1.682  25.300  0.00  0.00    +0.256 C 
ATOM      2  O   UNL     1      -0.295  -0.957  24.958  0.00  0.00    -0.443 OA
ENDBRANCH   3   2
ENDBRANCH   5   3
BRANCH   5   6
ATOM      6  C   UNL     1      -0.141   0.118  23.144  0.00  0.00    +0.059 C 
BRANCH   6   7
ATOM      7  C   UNL     1       0.678   0.157  23.055  0.00  0.00    -0.020 A 
ATOM      8  C   UNL     1       1.113   0.708  23.488  0.00  0.00    -0.001 A 
ATOM      9  C   UNL     1       1.933   0.747  23.398  0.00  0.00    +0.037 A 
ATOM     10  C   UNL     1       2.316   0.235  22.877  0.00  0.00    +0.139 A 
ATOM     13  C   UNL     1       1.880  -0.315  22.444  0.00  0.00    +0.037 A 
ATOM     14  C   UNL     1       1.061  -0.354  22.533  0.00  0.00    -0.001 A 
BRANCH  10  11
ATOM     11  O   UNL     1       3.135   0.275  22.788  0.00  0.00    -0.471 OA
ATOM     12  C   UNL     1       3.506   1.007  22.708  0.00  0.00    +0.252 C 
ENDBRANCH  10  11
ENDBRANCH   6   7
ENDBRANCH   5   6
ENDBRANCH  15   5
ENDBRANCH  18  16
BRANCH  20  33
ATOM     33  S   UNL     1      -0.998   3.112  25.977  0.00  0.00    +0.063 S 
ATOM     34  O   UNL     1      -0.491   3.536  26.470  0.00  0.00    -0.153 OA
ATOM     35  O   UNL     1      -1.039   2.508  26.537  0.00  0.00    -0.153 OA
BRANCH  33  36
ATOM     36  C   UNL     1      -0.957   3.715  25.416  0.00  0.00    +0.122 A 
ATOM     37  C   UNL     1      -0.455   3.641  24.765  0.00  0.00    +0.020 A 
ATOM     38  C   UNL     1      -0.415   4.245  24.204  0.00  0.00    +0.001 A 
ATOM     39  C   UNL     1      -0.875   4.923  24.294  0.00  0.00    +0.000 A 
ATOM     40  C   UNL     1      -1.377   4.997  24.944  0.00  0.00    +0.001 A 
ATOM     41  C   UNL     1      -1.418   4.394  25.506  0.00  0.00    +0.020 A 
ENDBRANCH  33  36
ENDBRANCH  20  33
TORSDOF 10
ENDMDL
