MODEL 1
REMARK VINA RESULT:      -9.5      0.000      0.000
REMARK  Name = 
REMARK  8 active torsions:
REMARK  status: ('A' for Active; 'I' for Inactive)
REMARK    1  A    between atoms: O_2  and  C_3
REMARK    2  A    between atoms: C_6  and  C_9
REMARK    3  A    between atoms: N_11  and  C_12
REMARK    4  A    between atoms: C_19  and  C_20
REMARK    5  A    between atoms: C_20  and  C_22
REMARK    6  A    between atoms: N_24  and  C_25
REMARK    7  A    between atoms: C_25  and  C_26
REMARK    8  A    between atoms: C_26  and  N_27
REMARK                            x       y       z     vdW  Elec       q    Type
REMARK                         _______ _______ _______ _____ _____    ______ ____
ROOT
ATOM     12  C   UNL     1      -4.023   0.381  25.092  0.00  0.00    +0.096 C 
ATOM     13  C   UNL     1      -4.493  -0.192  24.731  0.00  0.00    +0.022 C 
ATOM     14  C   UNL     1      -4.156  -0.896  24.465  0.00  0.00    +0.002 C 
ATOM     15  C   UNL     1      -3.348  -1.028  24.562  0.00  0.00    +0.002 C 
ATOM     16  C   UNL     1      -3.818  -1.601  24.200  0.00  0.00    +0.000 C 
ATOM     17  C   UNL     1      -3.010  -1.733  24.296  0.00  0.00    +0.000 C 
ATOM     18  C   UNL     1      -2.202  -1.864  24.393  0.00  0.00    +0.003 C 
ATOM     19  C   UNL     1      -1.730  -1.292  24.754  0.00  0.00    +0.039 C 
ATOM     33  C   UNL     1      -2.068  -0.588  25.020  0.00  0.00    +0.152 C 
ATOM     34  O   UNL     1      -1.596  -0.015  25.382  0.00  0.00    -0.223 OA
ATOM     35  C   UNL     1      -2.877  -0.456  24.923  0.00  0.00    +0.032 C 
ATOM     36  C   UNL     1      -3.214   0.248  25.189  0.00  0.00    +0.022 C 
ATOM     37  C   UNL     1      -2.743   0.821  25.551  0.00  0.00    +0.002 C 
ENDROOT
BRANCH  12  11
ATOM      9  C   UNL     1      -4.732   1.591  24.823  0.00  0.00    +0.265 C 
ATOM     10  O   UNL     1      -4.767   1.393  24.023  0.00  0.00    -0.268 OA
ATOM     11  N   UNL     1      -4.360   1.085  25.358  0.00  0.00    -0.203 NA
BRANCH   9   6
ATOM      3  C   UNL     1      -5.744   3.704  25.620  0.00  0.00    +0.139 A 
ATOM      4  C   UNL     1      -5.017   3.717  25.231  0.00  0.00    +0.037 A 
ATOM      5  C   UNL     1      -4.679   3.012  24.966  0.00  0.00    +0.008 A 
ATOM      6  C   UNL     1      -5.070   2.296  25.089  0.00  0.00    +0.055 A 
ATOM      7  C   UNL     1      -5.797   2.284  25.477  0.00  0.00    +0.008 A 
ATOM      8  C   UNL     1      -6.134   2.988  25.743  0.00  0.00    +0.037 A 
BRANCH   3   2
ATOM      1  C   UNL     1      -6.058   5.083  25.410  0.00  0.00    +0.252 C 
ATOM      2  O   UNL     1      -6.082   4.409  25.885  0.00  0.00    -0.471 OA
ENDBRANCH   3   2
ENDBRANCH   9   6
ENDBRANCH  12  11
BRANCH  19  20
ATOM     20  C   UNL     1      -0.921  -1.424  24.851  0.00  0.00    +0.081 C 
ATOM     21  C   UNL     1      -0.619  -1.605  25.599  0.00  0.00    +0.010 C 
BRANCH  20  22
ATOM     22  C   UNL     1      -0.415  -1.374  24.203  0.00  0.00    +0.241 C 
ATOM     23  O   UNL     1      -0.353  -2.009  23.679  0.00  0.00    -0.273 OA
ATOM     24  N   UNL     1       0.030  -0.692  24.078  0.00  0.00    -0.204 NA
BRANCH  24  25
ATOM     25  C   UNL     1       0.538  -0.642  23.429  0.00  0.00    +0.132 C 
BRANCH  25  26
ATOM     26  C   UNL     1       0.850   0.087  23.204  0.00  0.00    +0.096 C 
BRANCH  26  27
ATOM     27  N   UNL     1       1.578   0.123  22.816  0.00  0.00    -0.267 NA
ATOM     28  C   UNL     1       1.661  -0.205  22.064  0.00  0.00    +0.105 C 
ATOM     29  C   UNL     1       2.389  -0.169  21.676  0.00  0.00    +0.159 C 
ATOM     30  O   UNL     1       3.033   0.195  22.042  0.00  0.00    -0.351 OA
ATOM     31  C   UNL     1       2.949   0.523  22.795  0.00  0.00    +0.159 C 
ATOM     32  C   UNL     1       2.222   0.486  23.182  0.00  0.00    +0.105 C 
ENDBRANCH  26  27
ENDBRANCH  25  26
ENDBRANCH  24  25
ENDBRANCH  20  22
ENDBRANCH  19  20
TORSDOF 8
ENDMDL
MODEL 2
REMARK VINA RESULT:      -9.4      1.537      2.505
REMARK  Name = 
REMARK  8 active torsions:
REMARK  status: ('A' for Active; 'I' for Inactive)
REMARK    1  A    between atoms: O_2  and  C_3
REMARK    2  A    between atoms: C_6  and  C_9
REMARK    3  A    between atoms: N_11  and  C_12
REMARK    4  A    between atoms: C_19  and  C_20
REMARK    5  A    between atoms: C_20  and  C_22
REMARK    6  A    between atoms: N_24  and  C_25
REMARK    7  A    between atoms: C_25  and  C_26
REMARK    8  A    between atoms: C_26  and  N_27
REMARK                            x       y       z     vdW  Elec       q    Type
REMARK                         _______ _______ _______ _____ _____    ______ ____
ROOT
ATOM     12  C   UNL     1      -2.173   0.749  24.845  0.00  0.00    +0.096 C 
ATOM     13  C   UNL     1      -2.124   0.092  25.341  0.00  0.00    +0.022 C 
ATOM     14  C   UNL     1      -1.509  -0.449  25.250  0.00  0.00    +0.002 C 
ATOM     15  C   UNL     1      -0.942  -0.334  24.662  0.00  0.00    +0.002 C 
ATOM     16  C   UNL     1      -0.892  -0.991  25.158  0.00  0.00    +0.000 C 
ATOM     17  C   UNL     1      -0.326  -0.875  24.571  0.00  0.00    +0.000 C 
ATOM     18  C   UNL     1       0.240  -0.760  23.983  0.00  0.00    +0.003 C 
ATOM     19  C   UNL     1       0.192  -0.103  23.486  0.00  0.00    +0.039 C 
ATOM     33  C   UNL     1      -0.424   0.439  23.577  0.00  0.00    +0.152 C 
ATOM     34  O   UNL     1      -0.473   1.096  23.081  0.00  0.00    -0.223 OA
ATOM     35  C   UNL     1      -0.991   0.323  24.166  0.00  0.00    +0.032 C 
ATOM     36  C   UNL     1      -1.606   0.864  24.257  0.00  0.00    +0.022 C 
ATOM     37  C   UNL     1      -1.655   1.522  23.761  0.00  0.00    +0.002 C 
ENDROOT
BRANCH  12  11
ATOM      9  C   UNL     1      -3.563   1.022  25.024  0.00  0.00    +0.265 C 
ATOM     10  O   UNL     1      -3.724   0.213  25.020  0.00  0.00    -0.268 OA
ATOM     11  N   UNL     1      -2.789   1.290  24.937  0.00  0.00    -0.203 NA
BRANCH   9   6
ATOM      3  C   UNL     1      -5.411   2.646  25.299  0.00  0.00    +0.139 A 
ATOM      4  C   UNL     1      -5.569   1.885  25.025  0.00  0.00    +0.037 A 
ATOM      5  C   UNL     1      -4.954   1.343  24.933  0.00  0.00    +0.008 A 
ATOM      6  C   UNL     1      -4.180   1.564  25.116  0.00  0.00    +0.055 A 
ATOM      7  C   UNL     1      -4.022   2.326  25.390  0.00  0.00    +0.008 A 
ATOM      8  C   UNL     1      -4.638   2.867  25.481  0.00  0.00    +0.037 A 
BRANCH   3   2
ATOM      1  C   UNL     1      -5.859   3.986  25.513  0.00  0.00    +0.252 C 
ATOM      2  O   UNL     1      -6.026   3.188  25.390  0.00  0.00    -0.471 OA
ENDBRANCH   3   2
ENDBRANCH   9   6
ENDBRANCH  12  11
BRANCH  19  20
ATOM     20  C   UNL     1       0.759   0.014  22.897  0.00  0.00    +0.081 C 
ATOM     21  C   UNL     1       0.576  -0.155  22.110  0.00  0.00    +0.010 C 
BRANCH  20  22
ATOM     22  C   UNL     1       1.507   0.298  23.095  0.00  0.00    +0.241 C 
ATOM     23  O   UNL     1       1.582   0.994  23.531  0.00  0.00    -0.273 OA
ATOM     24  N   UNL     1       2.181  -0.114  22.857  0.00  0.00    -0.204 NA
BRANCH  24  25
ATOM     25  C   UNL     1       2.930   0.170  23.055  0.00  0.00    +0.132 C 
BRANCH  25  26
ATOM     26  C   UNL     1       3.603  -0.197  22.753  0.00  0.00    +0.096 C 
BRANCH  26  27
ATOM     27  N   UNL     1       4.311  -0.174  23.176  0.00  0.00    -0.267 NA
ATOM     28  C   UNL     1       4.530  -0.812  23.650  0.00  0.00    +0.105 C 
ATOM     29  C   UNL     1       5.238  -0.790  24.073  0.00  0.00    +0.159 C 
ATOM     30  O   UNL     1       5.727  -0.128  24.022  0.00  0.00    -0.351 OA
ATOM     31  C   UNL     1       5.509   0.512  23.548  0.00  0.00    +0.159 C 
ATOM     32  C   UNL     1       4.801   0.488  23.125  0.00  0.00    +0.105 C 
ENDBRANCH  26  27
ENDBRANCH  25  26
ENDBRANCH  24  25
ENDBRANCH  20  22
ENDBRANCH  19  20
TORSDOF 8
ENDMDL
MODEL 3
REMARK VINA RESULT:      -9.3      2.472      5.092
REMARK  Name = 
REMARK  8 active torsions:
REMARK  status: ('A' for Active; 'I' for Inactive)
REMARK    1  A    between atoms: O_2  and  C_3
REMARK    2  A    between atoms: C_6  and  C_9
REMARK    3  A    between atoms: N_11  and  C_12
REMARK    4  A    between atoms: C_19  and  C_20
REMARK    5  A    between atoms: C_20  and  C_22
REMARK    6  A    between atoms: N_24  and  C_25
REMARK    7  A    between atoms: C_25  and  C_26
REMARK    8  A    between atoms: C_26  and  N_27
REMARK                            x       y       z     vdW  Elec       q    Type
REMARK                         _______ _______ _______ _____ _____    ______ ____
ROOT
ATOM     12  C   UNL     1      -4.604   0.731  24.737  0.00  0.00    +0.096 C 
ATOM     13  C   UNL     1      -5.265   0.845  25.217  0.00  0.00    +0.022 C 
ATOM     14  C   UNL     1      -5.453   1.600  25.488  0.00  0.00    +0.002 C 
ATOM     15  C   UNL     1      -4.981   2.244  25.279  0.00  0.00    +0.002 C 
ATOM     16  C   UNL     1      -5.642   2.357  25.759  0.00  0.00    +0.000 C 
ATOM     17  C   UNL     1      -5.170   3.000  25.550  0.00  0.00    +0.000 C 
ATOM     18  C   UNL     1      -4.698   3.642  25.340  0.00  0.00    +0.003 C 
ATOM     19  C   UNL     1      -4.036   3.530  24.860  0.00  0.00    +0.039 C 
ATOM     33  C   UNL     1      -3.848   2.774  24.589  0.00  0.00    +0.152 C 
ATOM     34  O   UNL     1      -3.186   2.661  24.108  0.00  0.00    -0.223 OA
ATOM     35  C   UNL     1      -4.320   2.130  24.798  0.00  0.00    +0.032 C 
ATOM     36  C   UNL     1      -4.132   1.375  24.528  0.00  0.00    +0.022 C 
ATOM     37  C   UNL     1      -3.470   1.262  24.047  0.00  0.00    +0.002 C 
ENDROOT
BRANCH  12  11
ATOM      9  C   UNL     1      -4.211  -0.616  25.003  0.00  0.00    +0.265 C 
ATOM     10  O   UNL     1      -4.195  -0.452  25.812  0.00  0.00    -0.268 OA
ATOM     11  N   UNL     1      -4.415  -0.025  24.466  0.00  0.00    -0.203 NA
BRANCH   9   6
ATOM      3  C   UNL     1      -3.645  -2.884  24.190  0.00  0.00    +0.139 A 
ATOM      4  C   UNL     1      -3.320  -2.606  24.897  0.00  0.00    +0.037 A 
ATOM      5  C   UNL     1      -3.509  -1.850  25.167  0.00  0.00    +0.008 A 
ATOM      6  C   UNL     1      -4.022  -1.373  24.732  0.00  0.00    +0.055 A 
ATOM      7  C   UNL     1      -4.346  -1.650  24.026  0.00  0.00    +0.008 A 
ATOM      8  C   UNL     1      -4.157  -2.406  23.756  0.00  0.00    +0.037 A 
BRANCH   3   2
ATOM      1  C   UNL     1      -2.710  -3.790  23.602  0.00  0.00    +0.252 C 
ATOM      2  O   UNL     1      -3.456  -3.640  23.919  0.00  0.00    -0.471 OA
ENDBRANCH   3   2
ENDBRANCH   9   6
ENDBRANCH  12  11
BRANCH  19  20
ATOM     20  C   UNL     1      -3.564   4.173  24.650  0.00  0.00    +0.081 C 
ATOM     21  C   UNL     1      -3.753   4.625  23.985  0.00  0.00    +0.010 C 
BRANCH  20  22
ATOM     22  C   UNL     1      -2.902   4.364  25.103  0.00  0.00    +0.241 C 
ATOM     23  O   UNL     1      -2.996   4.730  25.836  0.00  0.00    -0.273 OA
ATOM     24  N   UNL     1      -2.146   4.190  24.824  0.00  0.00    -0.204 NA
BRANCH  24  25
ATOM     25  C   UNL     1      -1.484   4.381  25.277  0.00  0.00    +0.132 C 
BRANCH  25  26
ATOM     26  C   UNL     1      -0.727   4.237  24.984  0.00  0.00    +0.096 C 
BRANCH  26  27
ATOM     27  N   UNL     1      -0.345   3.527  25.158  0.00  0.00    -0.267 NA
ATOM     28  C   UNL     1      -0.246   3.293  25.942  0.00  0.00    +0.105 C 
ATOM     29  C   UNL     1       0.136   2.582  26.117  0.00  0.00    +0.159 C 
ATOM     30  O   UNL     1       0.420   2.106  25.506  0.00  0.00    -0.351 OA
ATOM     31  C   UNL     1       0.321   2.340  24.720  0.00  0.00    +0.159 C 
ATOM     32  C   UNL     1      -0.061   3.050  24.547  0.00  0.00    +0.105 C 
ENDBRANCH  26  27
ENDBRANCH  25  26
ENDBRANCH  24  25
ENDBRANCH  20  22
ENDBRANCH  19  20
TORSDOF 8
ENDMDL
MODEL 4
REMARK VINA RESULT:      -8.0      1.234      6.115
REMARK  Name = 
REMARK  8 active torsions:
REMARK  status: ('A' for Active; 'I' for Inactive)
REMARK    1  A    between atoms: O_2  and  C_3
REMARK    2  A    between atoms: C_6  and  C_9
REMARK    3  A    between atoms: N_11  and  C_12
REMARK    4  A    between atoms: C_19  and  C_20
REMARK    5  A    between atoms: C_20  and  C_22
REMARK    6  A    between atoms: N_24  and  C_25
REMARK    7  A    between atoms: C_25  and  C_26
REMARK    8  A    between atoms: C_26  and  N_27
REMARK                            x       y       z     vdW  Elec       q    Type
REMARK                         _______ _______ _______ _____ _____    ______ ____
ROOT
ATOM     12  C   UNL     1      -0.732  -0.066  24.357  0.00  0.00    +0.096 C 
ATOM     13  C   UNL     1      -0.654  -0.598  24.982  0.00  0.00    +0.022 C 
ATOM     14  C   UNL     1      -1.319  -0.838  25.405  0.00  0.00    +0.002 C 
ATOM     15  C   UNL     1      -2.064  -0.546  25.204  0.00  0.00    +0.002 C 
ATOM     16  C   UNL     1      -1.986  -1.078  25.829  0.00  0.00    +0.000 C 
ATOM     17  C   UNL     1      -2.730  -0.786  25.628  0.00  0.00    +0.000 C 
ATOM     18  C   UNL     1      -3.474  -0.494  25.427  0.00  0.00    +0.003 C 
ATOM     19  C   UNL     1      -3.553   0.039  24.801  0.00  0.00    +0.039 C 
ATOM     33  C   UNL     1      -2.887   0.279  24.378  0.00  0.00    +0.152 C 
ATOM     34  O   UNL     1      -2.966   0.812  23.752  0.00  0.00    -0.223 OA
ATOM     35  C   UNL     1      -2.142  -0.013  24.579  0.00  0.00    +0.032 C 
ATOM     36  C   UNL     1      -1.477   0.226  24.156  0.00  0.00    +0.022 C 
ATOM     37  C   UNL     1      -1.556   0.759  23.530  0.00  0.00    +0.002 C 
ENDROOT
BRANCH  12  11
ATOM      9  C   UNL     1       0.496  -0.381  23.698  0.00  0.00    +0.265 C 
ATOM     10  O   UNL     1       0.393  -1.178  23.887  0.00  0.00    -0.268 OA
ATOM     11  N   UNL     1      -0.066   0.174  23.933  0.00  0.00    -0.203 NA
BRANCH   9   6
ATOM      3  C   UNL     1       2.493   0.339  22.427  0.00  0.00    +0.139 A 
ATOM      4  C   UNL     1       1.963  -0.197  22.092  0.00  0.00    +0.037 A 
ATOM      5  C   UNL     1       1.297  -0.438  22.516  0.00  0.00    +0.008 A 
ATOM      6  C   UNL     1       1.162  -0.141  23.274  0.00  0.00    +0.055 A 
ATOM      7  C   UNL     1       1.692   0.395  23.608  0.00  0.00    +0.008 A 
ATOM      8  C   UNL     1       2.358   0.635  23.185  0.00  0.00    +0.037 A 
BRANCH   3   2
ATOM      1  C   UNL     1       3.862   0.747  22.400  0.00  0.00    +0.252 C 
ATOM      2  O   UNL     1       3.159   0.579  22.003  0.00  0.00    -0.471 OA
ENDBRANCH   3   2
ENDBRANCH   9   6
ENDBRANCH  12  11
BRANCH  19  20
ATOM     20  C   UNL     1      -4.298   0.332  24.600  0.00  0.00    +0.081 C 
ATOM     21  C   UNL     1      -4.709   0.008  23.960  0.00  0.00    +0.010 C 
BRANCH  20  22
ATOM     22  C   UNL     1      -4.631   0.947  25.035  0.00  0.00    +0.241 C 
ATOM     23  O   UNL     1      -5.090   0.780  25.700  0.00  0.00    -0.273 OA
ATOM     24  N   UNL     1      -4.507   1.729  24.806  0.00  0.00    -0.204 NA
BRANCH  24  25
ATOM     25  C   UNL     1      -4.841   2.345  25.242  0.00  0.00    +0.132 C 
BRANCH  25  26
ATOM     26  C   UNL     1      -4.734   3.127  25.001  0.00  0.00    +0.096 C 
BRANCH  26  27
ATOM     27  N   UNL     1      -4.121   3.577  25.320  0.00  0.00    -0.267 NA
ATOM     28  C   UNL     1      -4.120   3.764  26.123  0.00  0.00    +0.105 C 
ATOM     29  C   UNL     1      -3.507   4.215  26.442  0.00  0.00    +0.159 C 
ATOM     30  O   UNL     1      -2.894   4.479  25.956  0.00  0.00    -0.351 OA
ATOM     31  C   UNL     1      -2.895   4.292  25.152  0.00  0.00    +0.159 C 
ATOM     32  C   UNL     1      -3.508   3.841  24.835  0.00  0.00    +0.105 C 
ENDBRANCH  26  27
ENDBRANCH  25  26
ENDBRANCH  24  25
ENDBRANCH  20  22
ENDBRANCH  19  20
TORSDOF 8
ENDMDL
MODEL 5
REMARK VINA RESULT:      -7.7      2.040      7.247
REMARK  Name = 
REMARK  8 active torsions:
REMARK  status: ('A' for Active; 'I' for Inactive)
REMARK    1  A    between atoms: O_2  and  C_3
REMARK    2  A    between atoms: C_6  and  C_9
REMARK    3  A    between atoms: N_11  and  C_12
REMARK    4  A    between atoms: C_19  and  C_20
REMARK    5  A    between atoms: C_20  and  C_22
REMARK    6  A    between atoms: N_24  and  C_25
REMARK    7  A    between atoms: C_25  and  C_26
REMARK    8  A    between atoms: C_26  and  N_27
REMARK                            x       y       z     vdW  Elec       q    Type
REMARK                         _______ _______ _______ _____ _____    ______ ____
ROOT
ATOM     12  C   UNL     1       0.796   0.938  23.733  0.00  0.00    +0.096 C 
ATOM     13  C   UNL     1       0.309   0.311  23.508  0.00  0.00    +0.022 C 
ATOM     14  C   UNL     1      -0.510   0.387  23.558  0.00  0.00    +0.002 C 
ATOM     15  C   UNL     1      -0.844   1.089  23.833  0.00  0.00    +0.002 C 
ATOM     16  C   UNL     1      -1.331   0.462  23.608  0.00  0.00    +0.000 C 
ATOM     17  C   UNL     1      -1.664   1.165  23.883  0.00  0.00    +0.000 C 
ATOM     18  C   UNL     1      -1.997   1.867  24.158  0.00  0.00    +0.003 C 
ATOM     19  C   UNL     1      -1.511   2.494  24.383  0.00  0.00    +0.039 C 
ATOM     33  C   UNL     1      -0.691   2.419  24.333  0.00  0.00    +0.152 C 
ATOM     34  O   UNL     1      -0.204   3.046  24.559  0.00  0.00    -0.223 OA
ATOM     35  C   UNL     1      -0.357   1.716  24.058  0.00  0.00    +0.032 C 
ATOM     36  C   UNL     1       0.462   1.640  24.008  0.00  0.00    +0.022 C 
ATOM     37  C   UNL     1       0.949   2.268  24.234  0.00  0.00    +0.002 C 
ENDROOT
BRANCH  12  11
ATOM      9  C   UNL     1       1.953   0.440  23.062  0.00  0.00    +0.265 C 
ATOM     10  O   UNL     1       1.472   0.093  22.488  0.00  0.00    -0.268 OA
ATOM     11  N   UNL     1       1.616   0.862  23.684  0.00  0.00    -0.203 NA
BRANCH   9   6
ATOM      3  C   UNL     1       4.414   0.213  22.912  0.00  0.00    +0.139 A 
ATOM      4  C   UNL     1       3.956  -0.423  23.170  0.00  0.00    +0.037 A 
ATOM      5  C   UNL     1       3.136  -0.348  23.220  0.00  0.00    +0.008 A 
ATOM      6  C   UNL     1       2.774   0.364  23.012  0.00  0.00    +0.055 A 
ATOM      7  C   UNL     1       3.232   1.000  22.754  0.00  0.00    +0.008 A 
ATOM      8  C   UNL     1       4.052   0.924  22.704  0.00  0.00    +0.037 A 
BRANCH   3   2
ATOM      1  C   UNL     1       5.689   0.120  23.550  0.00  0.00    +0.252 C 
ATOM      2  O   UNL     1       5.234   0.138  22.862  0.00  0.00    -0.471 OA
ENDBRANCH   3   2
ENDBRANCH   9   6
ENDBRANCH  12  11
BRANCH  19  20
ATOM     20  C   UNL     1      -1.844   3.198  24.658  0.00  0.00    +0.081 C 
ATOM     21  C   UNL     1      -1.544   3.924  24.404  0.00  0.00    +0.010 C 
BRANCH  20  22
ATOM     22  C   UNL     1      -2.477   3.176  25.187  0.00  0.00    +0.241 C 
ATOM     23  O   UNL     1      -2.339   3.040  25.989  0.00  0.00    -0.273 OA
ATOM     24  N   UNL     1      -3.246   3.290  24.914  0.00  0.00    -0.204 NA
BRANCH  24  25
ATOM     25  C   UNL     1      -3.880   3.269  25.443  0.00  0.00    +0.132 C 
BRANCH  25  26
ATOM     26  C   UNL     1      -4.649   3.388  25.171  0.00  0.00    +0.096 C 
BRANCH  26  27
ATOM     27  N   UNL     1      -5.241   2.843  25.353  0.00  0.00    -0.267 NA
ATOM     28  C   UNL     1      -5.509   2.317  24.777  0.00  0.00    +0.105 C 
ATOM     29  C   UNL     1      -6.101   1.772  24.959  0.00  0.00    +0.159 C 
ATOM     30  O   UNL     1      -6.424   1.753  25.718  0.00  0.00    -0.351 OA
ATOM     31  C   UNL     1      -6.156   2.279  26.294  0.00  0.00    +0.159 C 
ATOM     32  C   UNL     1      -5.564   2.824  26.111  0.00  0.00    +0.105 C 
ENDBRANCH  26  27
ENDBRANCH  25  26
ENDBRANCH  24  25
ENDBRANCH  20  22
ENDBRANCH  19  20
TORSDOF 8
ENDMDL
MODEL 6
REMARK VINA RESULT:      -6.8      1.873      6.388
REMARK  Name = 
REMARK  8 active torsions:
REMARK  status: ('A' for Active; 'I' for Inactive)
REMARK    1  A    between atoms: O_2  and  C_3
REMARK    2  A    between atoms: C_6  and  C_9
REMARK    3  A    between atoms: N_11  and  C_12
REMARK    4  A    between atoms: C_19  and  C_20
REMARK    5  A    between atoms: C_20  and  C_22
REMARK    6  A    between atoms: N_24  and  C_25
REMARK    7  A    between atoms: C_25  and  C_26
REMARK    8  A    between atoms: C_26  and  N_27
REMARK                            x       y       z     vdW  Elec       q    Type
REMARK                         _______ _______ _______ _____ _____    ______ ____
ROOT
ATOM     12  C   UNL     1      -0.333   2.401  24.240  0.00  0.00    +0.096 C 
ATOM     13  C   UNL     1      -0.118   2.820  24.917  0.00  0.00    +0.022 C 
ATOM     14  C   UNL     1      -0.697   3.172  25.386  0.00  0.00    +0.002 C 
ATOM     15  C   UNL     1      -1.492   3.106  25.179  0.00  0.00    +0.002 C 
ATOM     16  C   UNL     1      -1.277   3.524  25.856  0.00  0.00    +0.000 C 
ATOM     17  C   UNL     1      -2.072   3.458  25.649  0.00  0.00    +0.000 C 
ATOM     18  C   UNL     1      -2.867   3.391  25.441  0.00  0.00    +0.003 C 
ATOM     19  C   UNL     1      -3.084   2.972  24.764  0.00  0.00    +0.039 C 
ATOM     33  C   UNL     1      -2.504   2.620  24.294  0.00  0.00    +0.152 C 
ATOM     34  O   UNL     1      -2.720   2.201  23.617  0.00  0.00    -0.223 OA
ATOM     35  C   UNL     1      -1.708   2.687  24.502  0.00  0.00    +0.032 C 
ATOM     36  C   UNL     1      -1.129   2.335  24.033  0.00  0.00    +0.022 C 
ATOM     37  C   UNL     1      -1.345   1.916  23.355  0.00  0.00    +0.002 C 
ENDROOT
BRANCH  12  11
ATOM      9  C   UNL     1       0.708   1.438  24.074  0.00  0.00    +0.265 C 
ATOM     10  O   UNL     1       0.591   1.178  24.849  0.00  0.00    -0.268 OA
ATOM     11  N   UNL     1       0.247   2.049  23.770  0.00  0.00    -0.203 NA
BRANCH   9   6
ATOM      3  C   UNL     1       2.447   0.382  22.665  0.00  0.00    +0.139 A 
ATOM      4  C   UNL     1       2.603   1.099  23.043  0.00  0.00    +0.037 A 
ATOM      5  C   UNL     1       2.023   1.451  23.513  0.00  0.00    +0.008 A 
ATOM      6  C   UNL     1       1.289   1.086  23.604  0.00  0.00    +0.055 A 
ATOM      7  C   UNL     1       1.134   0.369  23.226  0.00  0.00    +0.008 A 
ATOM      8  C   UNL     1       1.714   0.017  22.756  0.00  0.00    +0.037 A 
BRANCH   3   2
ATOM      1  C   UNL     1       3.808   0.292  22.237  0.00  0.00    +0.252 C 
ATOM      2  O   UNL     1       3.027   0.030  22.195  0.00  0.00    -0.471 OA
ENDBRANCH   3   2
ENDBRANCH   9   6
ENDBRANCH  12  11
BRANCH  19  20
ATOM     20  C   UNL     1      -3.880   2.905  24.556  0.00  0.00    +0.081 C 
ATOM     21  C   UNL     1      -4.202   3.412  23.990  0.00  0.00    +0.010 C 
BRANCH  20  22
ATOM     22  C   UNL     1      -4.353   2.332  24.913  0.00  0.00    +0.241 C 
ATOM     23  O   UNL     1      -4.851   2.540  25.537  0.00  0.00    -0.273 OA
ATOM     24  N   UNL     1      -4.329   1.553  24.647  0.00  0.00    -0.204 NA
BRANCH  24  25
ATOM     25  C   UNL     1      -4.803   0.979  25.004  0.00  0.00    +0.132 C 
BRANCH  25  26
ATOM     26  C   UNL     1      -4.956   0.269  24.614  0.00  0.00    +0.096 C 
BRANCH  26  27
ATOM     27  N   UNL     1      -4.488  -0.394  24.763  0.00  0.00    -0.267 NA
ATOM     28  C   UNL     1      -4.159  -0.508  25.510  0.00  0.00    +0.105 C 
ATOM     29  C   UNL     1      -3.690  -1.171  25.658  0.00  0.00    +0.159 C 
ATOM     30  O   UNL     1      -3.551  -1.720  25.058  0.00  0.00    -0.351 OA
ATOM     31  C   UNL     1      -3.881  -1.606  24.309  0.00  0.00    +0.159 C 
ATOM     32  C   UNL     1      -4.349  -0.942  24.163  0.00  0.00    +0.105 C 
ENDBRANCH  26  27
ENDBRANCH  25  26
ENDBRANCH  24  25
ENDBRANCH  20  22
ENDBRANCH  19  20
TORSDOF 8
ENDMDL
MODEL 7
REMARK VINA RESULT:      -5.9     15.105     17.041
REMARK  Name = 
REMARK  8 active torsions:
REMARK  status: ('A' for Active; 'I' for Inactive)
REMARK    1  A    between atoms: O_2  and  C_3
REMARK    2  A    between atoms: C_6  and  C_9
REMARK    3  A    between atoms: N_11  and  C_12
REMARK    4  A    between atoms: C_19  and  C_20
REMARK    5  A    between atoms: C_20  and  C_22
REMARK    6  A    between atoms: N_24  and  C_25
REMARK    7  A    between atoms: C_25  and  C_26
REMARK    8  A    between atoms: C_26  and  N_27
REMARK                            x       y       z     vdW  Elec       q    Type
REMARK                         _______ _______ _______ _____ _____    ______ ____
ROOT
ATOM     12  C   UNL     1      -7.575 -10.150  14.031  0.00  0.00    +0.096 C 
ATOM     13  C   UNL     1      -8.387 -10.081  14.163  0.00  0.00    +0.022 C 
ATOM     14  C   UNL     1      -8.898  -9.947  13.530  0.00  0.00    +0.002 C 
ATOM     15  C   UNL     1      -8.598  -9.882  12.764  0.00  0.00    +0.002 C 
ATOM     16  C   UNL     1      -9.410  -9.813  12.896  0.00  0.00    +0.000 C 
ATOM     17  C   UNL     1      -9.110  -9.748  12.131  0.00  0.00    +0.000 C 
ATOM     18  C   UNL     1      -8.810  -9.683  11.366  0.00  0.00    +0.003 C 
ATOM     19  C   UNL     1      -7.998  -9.752  11.233  0.00  0.00    +0.039 C 
ATOM     33  C   UNL     1      -7.487  -9.886  11.866  0.00  0.00    +0.152 C 
ATOM     34  O   UNL     1      -6.675  -9.955  11.734  0.00  0.00    -0.223 OA
ATOM     35  C   UNL     1      -7.787  -9.951  12.633  0.00  0.00    +0.032 C 
ATOM     36  C   UNL     1      -7.276 -10.085  13.265  0.00  0.00    +0.022 C 
ATOM     37  C   UNL     1      -6.464 -10.154  13.133  0.00  0.00    +0.002 C 
ENDROOT
BRANCH  12  11
ATOM      9  C   UNL     1      -7.232  -9.962  15.405  0.00  0.00    +0.265 C 
ATOM     10  O   UNL     1      -7.911  -9.507  15.513  0.00  0.00    -0.268 OA
ATOM     11  N   UNL     1      -7.064 -10.284  14.664  0.00  0.00    -0.203 NA
BRANCH   9   6
ATOM      3  C   UNL     1      -5.698 -10.364  17.305  0.00  0.00    +0.139 A 
ATOM      4  C   UNL     1      -6.426 -10.750  17.275  0.00  0.00    +0.037 A 
ATOM      5  C   UNL     1      -6.938 -10.617  16.641  0.00  0.00    +0.008 A 
ATOM      6  C   UNL     1      -6.720 -10.097  16.039  0.00  0.00    +0.055 A 
ATOM      7  C   UNL     1      -5.992  -9.711  16.069  0.00  0.00    +0.008 A 
ATOM      8  C   UNL     1      -5.480  -9.845  16.703  0.00  0.00    +0.037 A 
BRANCH   3   2
ATOM      1  C   UNL     1      -4.422 -10.777  17.800  0.00  0.00    +0.252 C 
ATOM      2  O   UNL     1      -5.186 -10.498  17.938  0.00  0.00    -0.471 OA
ENDBRANCH   3   2
ENDBRANCH   9   6
ENDBRANCH  12  11
BRANCH  19  20
ATOM     20  C   UNL     1      -7.698  -9.687  10.467  0.00  0.00    +0.081 C 
ATOM     21  C   UNL     1      -7.424 -10.359  10.073  0.00  0.00    +0.010 C 
BRANCH  20  22
ATOM     22  C   UNL     1      -7.670  -8.952  10.095  0.00  0.00    +0.241 C 
ATOM     23  O   UNL     1      -7.026  -8.451  10.218  0.00  0.00    -0.273 OA
ATOM     24  N   UNL     1      -8.286  -8.716   9.601  0.00  0.00    -0.204 NA
BRANCH  24  25
ATOM     25  C   UNL     1      -8.259  -7.980   9.228  0.00  0.00    +0.132 C 
BRANCH  25  26
ATOM     26  C   UNL     1      -8.808  -7.793   8.643  0.00  0.00    +0.096 C 
BRANCH  26  27
ATOM     27  N   UNL     1      -9.120  -7.031   8.597  0.00  0.00    -0.267 NA
ATOM     28  C   UNL     1      -9.888  -6.883   8.858  0.00  0.00    +0.105 C 
ATOM     29  C   UNL     1     -10.201  -6.121   8.812  0.00  0.00    +0.159 C 
ATOM     30  O   UNL     1      -9.744  -5.506   8.506  0.00  0.00    -0.351 OA
ATOM     31  C   UNL     1      -8.974  -5.654   8.245  0.00  0.00    +0.159 C 
ATOM     32  C   UNL     1      -8.663  -6.416   8.291  0.00  0.00    +0.105 C 
ENDBRANCH  26  27
ENDBRANCH  25  26
ENDBRANCH  24  25
ENDBRANCH  20  22
ENDBRANCH  19  20
TORSDOF 8
ENDMDL
