REMARK  Name = 
REMARK  6 active torsions:
REMARK  status: ('A' for Active; 'I' for Inactive)
REMARK    1  A    between atoms: C_2  and  C_5
REMARK    2  A    between atoms: C_8  and  C_11
REMARK    3  A    between atoms: N_13  and  C_14
REMARK    4  A    between atoms: C_14  and  C_15
REMARK    5  A    between atoms: C_22  and  C_23
REMARK    6  A    between atoms: C_23  and  N_24
REMARK                            x       y       z     vdW  Elec       q    Type
REMARK                         _______ _______ _______ _____ _____    ______ ____
ROOT
ATOM     15  C   UNL     1       4.765  -2.245   0.000  0.00  0.00    +0.079 C 
ATOM     16  C   UNL     1       4.867  -1.474   0.000  0.00  0.00    +0.018 C 
ATOM     17  C   UNL     1       4.275  -0.920   0.000  0.00  0.00    +0.006 C 
ATOM     18  C   UNL     1       4.601  -0.085   0.000  0.00  0.00    +0.017 C 
ATOM     19  C   UNL     1       4.636  -0.737   0.000  0.00  0.00    +0.072 C 
ATOM     20  N   UNL     1       4.168  -1.675   0.000  0.00  0.00    -0.272 NA
ATOM     21  C   UNL     1       3.258  -1.743   0.000  0.00  0.00    +0.074 C 
ATOM     22  C   UNL     1       3.401  -0.994   0.000  0.00  0.00    +0.036 C 
ENDROOT
BRANCH  15  14
ATOM     14  C   UNL     1       5.038  -3.023   0.000  0.00  0.00    +0.131 C 
BRANCH  14  13
ATOM     11  C   UNL     1       4.774  -4.428   0.000  0.00  0.00    +0.265 C 
ATOM     12  O   UNL     1       5.585  -4.580   0.000  0.00  0.00    -0.268 OA
ATOM     13  N   UNL     1       4.501  -3.649   0.000  0.00  0.00    -0.200 NA
BRANCH  11   8
ATOM      5  C   UNL     1       3.163  -6.306   0.000  0.00  0.00    +0.071 A 
ATOM      6  C   UNL     1       2.889  -5.527   0.000  0.00  0.00    +0.004 A 
ATOM      7  C   UNL     1       3.426  -4.902   0.000  0.00  0.00    +0.005 A 
ATOM      8  C   UNL     1       4.237  -5.054   0.000  0.00  0.00    +0.055 A 
ATOM      9  C   UNL     1       4.511  -5.832   0.000  0.00  0.00    +0.005 A 
ATOM     10  C   UNL     1       3.973  -6.458   0.000  0.00  0.00    +0.004 A 
BRANCH   5   2
ATOM      1  F   UNL     1       2.088  -7.558   0.000  0.00  0.00    -0.166 F 
ATOM      2  C   UNL     1       2.625  -6.932   0.000  0.00  0.00    +0.419 C 
ATOM      3  F   UNL     1       3.251  -7.469   0.000  0.00  0.00    -0.166 F 
ATOM      4  F   UNL     1       1.999  -6.395   0.000  0.00  0.00    -0.166 F 
ENDBRANCH   5   2
ENDBRANCH  11   8
ENDBRANCH  14  13
ENDBRANCH  15  14
BRANCH  22  23
ATOM     23  C   UNL     1       2.849  -0.381   0.000  0.00  0.00    +0.092 C 
BRANCH  23  24
ATOM     24  N   UNL     1       2.042  -0.552   0.000  0.00  0.00    -0.307 N 
ATOM     25  C   UNL     1       1.706  -1.306   0.000  0.00  0.00    +0.095 C 
ATOM     26  C   UNL     1       0.886  -1.220   0.000  0.00  0.00    +0.049 C 
ATOM     27  C   UNL     1       0.715  -0.412   0.000  0.00  0.00    -0.007 A 
ATOM     28  C   UNL     1       0.000   0.000   0.000  0.00  0.00    -0.003 A 
ATOM     29  C   UNL     1       0.000   0.825   0.000  0.00  0.00    -0.000 A 
ATOM     30  C   UNL     1       0.715   1.238   0.000  0.00  0.00    +0.001 A 
ATOM     31  C   UNL     1       1.429   0.825   0.000  0.00  0.00    +0.014 A 
ATOM     32  C   UNL     1       1.429   0.000   0.000  0.00  0.00    +0.044 A 
ENDBRANCH  23  24
ENDBRANCH  22  23
TORSDOF 6
