REMARK  Name = 
REMARK  7 active torsions:
REMARK  status: ('A' for Active; 'I' for Inactive)
REMARK    1  A    between atoms: C_2  and  N_4
REMARK    2  A    between atoms: N_4  and  C_5
REMARK    3  A    between atoms: C_7  and  C_8
REMARK    4  A    between atoms: C_8  and  C_9
REMARK    5  A    between atoms: C_12  and  C_13
REMARK    6  A    between atoms: C_13  and  O_14
REMARK    7  A    between atoms: O_14  and  C_15
REMARK                            x       y       z     vdW  Elec       q    Type
REMARK                         _______ _______ _______ _____ _____    ______ ____
ROOT
ATOM      9  C   UNL     1      -0.067  -6.413   0.000  0.00  0.00    +0.100 A 
ATOM     10  N   UNL     1       0.268  -7.167   0.000  0.00  0.00    -0.082 NA
ATOM     11  O   UNL     1      -0.345  -7.719   0.000  0.00  0.00    -0.354 OA
ATOM     12  C   UNL     1      -1.059  -7.306   0.000  0.00  0.00    +0.198 A 
ATOM     21  C   UNL     1      -0.888  -6.499   0.000  0.00  0.00    +0.057 A 
ENDROOT
BRANCH   9   8
ATOM      8  C   UNL     1       0.345  -5.699   0.000  0.00  0.00    +0.049 C 
BRANCH   8   7
ATOM      5  C   UNL     1       2.337  -5.699   0.000  0.00  0.00    +0.073 C 
ATOM      6  C   UNL     1       1.754  -6.282   0.000  0.00  0.00    +0.018 C 
ATOM      7  C   UNL     1       1.170  -5.699   0.000  0.00  0.00    +0.009 C 
ATOM     22  C   UNL     1       1.754  -5.115   0.000  0.00  0.00    +0.015 C 
ATOM     23  C   UNL     1       1.323  -4.412   0.000  0.00  0.00    +0.001 C 
ATOM     24  C   UNL     1       2.185  -4.412   0.000  0.00  0.00    +0.001 C 
BRANCH   5   4
ATOM      4  N   UNL     1       3.162  -5.699   0.000  0.00  0.00    -0.221 NA
BRANCH   4   2
ATOM      1  C   UNL     1       4.399  -4.984   0.000  0.00  0.00    +0.019 C 
ATOM      2  C   UNL     1       3.574  -4.984   0.000  0.00  0.00    +0.073 C 
ATOM      3  C   UNL     1       3.162  -4.270   0.000  0.00  0.00    +0.019 C 
ENDBRANCH   4   2
ENDBRANCH   5   4
ENDBRANCH   8   7
ENDBRANCH   9   8
BRANCH  12  13
ATOM     13  C   UNL     1      -1.813  -7.642   0.000  0.00  0.00    +0.272 C 
BRANCH  13  14
ATOM     14  O   UNL     1      -1.899  -8.462   0.000  0.00  0.00    -0.467 OA
BRANCH  14  15
ATOM     15  C   UNL     1      -2.653  -8.798   0.000  0.00  0.00    +0.139 A 
ATOM     16  C   UNL     1      -2.739  -9.618   0.000  0.00  0.00    +0.037 A 
ATOM     17  C   UNL     1      -3.493  -9.954   0.000  0.00  0.00    +0.003 A 
ATOM     18  C   UNL     1      -4.160  -9.469   0.000  0.00  0.00    +0.000 A 
ATOM     19  C   UNL     1      -4.074  -8.649   0.000  0.00  0.00    +0.003 A 
ATOM     20  C   UNL     1      -3.320  -8.313   0.000  0.00  0.00    +0.037 A 
ENDBRANCH  14  15
ENDBRANCH  13  14
ENDBRANCH  12  13
TORSDOF 7
