MODEL 1
REMARK VINA RESULT:      -9.9      0.000      0.000
REMARK  Name = 
REMARK  6 active torsions:
REMARK  status: ('A' for Active; 'I' for Inactive)
REMARK    1  A    between atoms: C_3  and  C_4
REMARK    2  A    between atoms: C_4  and  N_5
REMARK    3  A    between atoms: C_6  and  C_8
REMARK    4  A    between atoms: C_13  and  N_14
REMARK    5  A    between atoms: N_14  and  C_15
REMARK    6  A    between atoms: C_15  and  C_16
REMARK                            x       y       z     vdW  Elec       q    Type
REMARK                         _______ _______ _______ _____ _____    ______ ____
ROOT
ATOM      1  O   UNL     1      -3.949   1.453  25.416  0.00  0.00    -0.219 OA
ATOM      2  C   UNL     1      -3.477   1.511  24.742  0.00  0.00    +0.199 C 
ATOM      3  C   UNL     1      -3.073   2.184  24.489  0.00  0.00    +0.169 C 
ATOM     11  O   UNL     1      -2.673   1.995  23.793  0.00  0.00    -0.350 OA
ATOM     12  C   UNL     1      -2.829   1.205  23.616  0.00  0.00    +0.162 C 
ATOM     13  C   UNL     1      -3.326   0.905  24.202  0.00  0.00    +0.135 C 
ENDROOT
BRANCH   3   4
ATOM      4  C   UNL     1      -3.070   2.918  24.866  0.00  0.00    +0.147 C 
BRANCH   4   5
ATOM      5  N   UNL     1      -2.428   3.428  24.772  0.00  0.00    -0.203 NA
ATOM      6  C   UNL     1      -2.369   4.108  25.235  0.00  0.00    +0.241 C 
ATOM      7  O   UNL     1      -2.953   4.278  25.793  0.00  0.00    -0.273 OA
BRANCH   6   8
ATOM      8  C   UNL     1      -1.727   4.617  25.141  0.00  0.00    +0.078 C 
ATOM      9  C   UNL     1      -0.916   4.734  25.049  0.00  0.00    +0.010 C 
ATOM     10  C   UNL     1      -1.427   5.382  25.069  0.00  0.00    +0.010 C 
ENDBRANCH   6   8
ENDBRANCH   4   5
ENDBRANCH   3   4
BRANCH  13  14
ATOM     14  N   UNL     1      -3.620   0.136  24.243  0.00  0.00    -0.209 NA
BRANCH  14  15
ATOM     15  C   UNL     1      -3.099  -0.503  24.293  0.00  0.00    +0.118 C 
BRANCH  15  16
ATOM     16  C   UNL     1      -3.391  -1.274  24.276  0.00  0.00    +0.034 A 
ATOM     17  C   UNL     1      -2.976  -1.880  24.653  0.00  0.00    +0.193 A 
ATOM     18  O   UNL     1      -2.270  -1.714  25.047  0.00  0.00    -0.287 OA
ATOM     19  C   UNL     1      -3.268  -2.652  24.636  0.00  0.00    +0.042 A 
ATOM     20  C   UNL     1      -3.973  -2.817  24.243  0.00  0.00    +0.003 A 
ATOM     21  C   UNL     1      -4.388  -2.212  23.866  0.00  0.00    -0.000 A 
ATOM     22  C   UNL     1      -4.097  -1.440  23.883  0.00  0.00    +0.000 A 
ENDBRANCH  15  16
ENDBRANCH  14  15
ENDBRANCH  13  14
TORSDOF 6
ENDMDL
MODEL 2
REMARK VINA RESULT:      -9.6      1.206      5.475
REMARK  Name = 
REMARK  6 active torsions:
REMARK  status: ('A' for Active; 'I' for Inactive)
REMARK    1  A    between atoms: C_3  and  C_4
REMARK    2  A    between atoms: C_4  and  N_5
REMARK    3  A    between atoms: C_6  and  C_8
REMARK    4  A    between atoms: C_13  and  N_14
REMARK    5  A    between atoms: N_14  and  C_15
REMARK    6  A    between atoms: C_15  and  C_16
REMARK                            x       y       z     vdW  Elec       q    Type
REMARK                         _______ _______ _______ _____ _____    ______ ____
ROOT
ATOM      1  O   UNL     1      -3.827   1.723  24.195  0.00  0.00    -0.219 OA
ATOM      2  C   UNL     1      -3.158   1.360  24.514  0.00  0.00    +0.199 C 
ATOM      3  C   UNL     1      -3.034   0.547  24.585  0.00  0.00    +0.169 C 
ATOM     11  O   UNL     1      -2.296   0.432  24.933  0.00  0.00    -0.350 OA
ATOM     12  C   UNL     1      -1.962   1.173  25.076  0.00  0.00    +0.162 C 
ATOM     13  C   UNL     1      -2.495   1.746  24.817  0.00  0.00    +0.135 C 
ENDROOT
BRANCH   3   4
ATOM      4  C   UNL     1      -3.558  -0.045  24.350  0.00  0.00    +0.147 C 
BRANCH   4   5
ATOM      5  N   UNL     1      -3.371  -0.837  24.483  0.00  0.00    -0.203 NA
ATOM      6  C   UNL     1      -3.909  -1.429  24.279  0.00  0.00    +0.241 C 
ATOM      7  O   UNL     1      -4.635  -1.227  23.943  0.00  0.00    -0.273 OA
BRANCH   6   8
ATOM      8  C   UNL     1      -3.721  -2.221  24.412  0.00  0.00    +0.078 C 
ATOM      9  C   UNL     1      -3.722  -3.007  24.161  0.00  0.00    +0.010 C 
ATOM     10  C   UNL     1      -3.397  -2.807  24.892  0.00  0.00    +0.010 C 
ENDBRANCH   6   8
ENDBRANCH   4   5
ENDBRANCH   3   4
BRANCH  13  14
ATOM     14  N   UNL     1      -2.386   2.563  24.855  0.00  0.00    -0.209 NA
BRANCH  14  15
ATOM     15  C   UNL     1      -1.627   2.873  24.950  0.00  0.00    +0.118 C 
BRANCH  15  16
ATOM     16  C   UNL     1      -1.518   3.690  24.998  0.00  0.00    +0.034 A 
ATOM     17  C   UNL     1      -0.837   4.034  24.684  0.00  0.00    +0.193 A 
ATOM     18  O   UNL     1      -0.266   3.563  24.322  0.00  0.00    -0.287 OA
ATOM     19  C   UNL     1      -0.729   4.851  24.732  0.00  0.00    +0.042 A 
ATOM     20  C   UNL     1      -1.300   5.322  25.094  0.00  0.00    +0.003 A 
ATOM     21  C   UNL     1      -1.981   4.978  25.408  0.00  0.00    -0.000 A 
ATOM     22  C   UNL     1      -2.090   4.161  25.361  0.00  0.00    +0.000 A 
ENDBRANCH  15  16
ENDBRANCH  14  15
ENDBRANCH  13  14
TORSDOF 6
ENDMDL
MODEL 3
REMARK VINA RESULT:      -8.1      2.526      4.393
REMARK  Name = 
REMARK  6 active torsions:
REMARK  status: ('A' for Active; 'I' for Inactive)
REMARK    1  A    between atoms: C_3  and  C_4
REMARK    2  A    between atoms: C_4  and  N_5
REMARK    3  A    between atoms: C_6  and  C_8
REMARK    4  A    between atoms: C_13  and  N_14
REMARK    5  A    between atoms: N_14  and  C_15
REMARK    6  A    between atoms: C_15  and  C_16
REMARK                            x       y       z     vdW  Elec       q    Type
REMARK                         _______ _______ _______ _____ _____    ______ ____
ROOT
ATOM      1  O   UNL     1      -2.352   0.202  25.051  0.00  0.00    -0.219 OA
ATOM      2  C   UNL     1      -2.184   0.778  24.485  0.00  0.00    +0.199 C 
ATOM      3  C   UNL     1      -1.490   0.835  24.041  0.00  0.00    +0.169 C 
ATOM     11  O   UNL     1      -1.557   1.490  23.546  0.00  0.00    -0.350 OA
ATOM     12  C   UNL     1      -2.293   1.839  23.683  0.00  0.00    +0.162 C 
ATOM     13  C   UNL     1      -2.679   1.399  24.262  0.00  0.00    +0.135 C 
ENDROOT
BRANCH   3   4
ATOM      4  C   UNL     1      -0.843   0.325  24.087  0.00  0.00    +0.147 C 
BRANCH   4   5
ATOM      5  N   UNL     1      -0.211   0.413  23.563  0.00  0.00    -0.203 NA
ATOM      6  C   UNL     1       0.385  -0.156  23.537  0.00  0.00    +0.241 C 
ATOM      7  O   UNL     1       0.350  -0.814  24.034  0.00  0.00    -0.273 OA
BRANCH   6   8
ATOM      8  C   UNL     1       1.017  -0.067  23.013  0.00  0.00    +0.078 C 
ATOM      9  C   UNL     1       1.349  -0.189  22.268  0.00  0.00    +0.010 C 
ATOM     10  C   UNL     1       1.778   0.206  22.852  0.00  0.00    +0.010 C 
ENDBRANCH   6   8
ENDBRANCH   4   5
ENDBRANCH   3   4
BRANCH  13  14
ATOM     14  N   UNL     1      -3.431   1.552  24.568  0.00  0.00    -0.209 NA
BRANCH  14  15
ATOM     15  C   UNL     1      -3.720   2.325  24.581  0.00  0.00    +0.118 C 
BRANCH  15  16
ATOM     16  C   UNL     1      -4.464   2.480  24.903  0.00  0.00    +0.034 A 
ATOM     17  C   UNL     1      -4.594   3.182  25.318  0.00  0.00    +0.193 A 
ATOM     18  O   UNL     1      -3.982   3.727  25.410  0.00  0.00    -0.287 OA
ATOM     19  C   UNL     1      -5.338   3.338  25.640  0.00  0.00    +0.042 A 
ATOM     20  C   UNL     1      -5.950   2.793  25.548  0.00  0.00    +0.003 A 
ATOM     21  C   UNL     1      -5.819   2.092  25.134  0.00  0.00    -0.000 A 
ATOM     22  C   UNL     1      -5.076   1.935  24.811  0.00  0.00    +0.000 A 
ENDBRANCH  15  16
ENDBRANCH  14  15
ENDBRANCH  13  14
TORSDOF 6
ENDMDL
MODEL 4
REMARK VINA RESULT:      -7.5     17.810     19.575
REMARK  Name = 
REMARK  6 active torsions:
REMARK  status: ('A' for Active; 'I' for Inactive)
REMARK    1  A    between atoms: C_3  and  C_4
REMARK    2  A    between atoms: C_4  and  N_5
REMARK    3  A    between atoms: C_6  and  C_8
REMARK    4  A    between atoms: C_13  and  N_14
REMARK    5  A    between atoms: N_14  and  C_15
REMARK    6  A    between atoms: C_15  and  C_16
REMARK                            x       y       z     vdW  Elec       q    Type
REMARK                         _______ _______ _______ _____ _____    ______ ____
ROOT
ATOM      1  O   UNL     1      13.175   7.546  19.473  0.00  0.00    -0.219 OA
ATOM      2  C   UNL     1      13.536   7.573  18.731  0.00  0.00    +0.199 C 
ATOM      3  C   UNL     1      13.159   7.728  18.013  0.00  0.00    +0.169 C 
ATOM     11  O   UNL     1      13.726   7.700  17.416  0.00  0.00    -0.350 OA
ATOM     12  C   UNL     1      14.454   7.528  17.764  0.00  0.00    +0.162 C 
ATOM     13  C   UNL     1      14.337   7.450  18.576  0.00  0.00    +0.135 C 
ENDROOT
BRANCH   3   4
ATOM      4  C   UNL     1      12.355   7.883  17.912  0.00  0.00    +0.147 C 
BRANCH   4   5
ATOM      5  N   UNL     1      12.085   8.218  17.208  0.00  0.00    -0.203 NA
ATOM      6  C   UNL     1      11.286   8.401  17.117  0.00  0.00    +0.241 C 
ATOM      7  O   UNL     1      10.756   8.249  17.732  0.00  0.00    -0.273 OA
BRANCH   6   8
ATOM      8  C   UNL     1      11.016   8.736  16.413  0.00  0.00    +0.078 C 
ATOM      9  C   UNL     1      10.393   8.965  15.924  0.00  0.00    +0.010 C 
ATOM     10  C   UNL     1      11.172   9.088  15.684  0.00  0.00    +0.010 C 
ENDBRANCH   6   8
ENDBRANCH   4   5
ENDBRANCH   3   4
BRANCH  13  14
ATOM     14  N   UNL     1      14.917   7.278  19.136  0.00  0.00    -0.209 NA
BRANCH  14  15
ATOM     15  C   UNL     1      15.538   6.769  18.944  0.00  0.00    +0.118 C 
BRANCH  15  16
ATOM     16  C   UNL     1      16.160   6.658  19.475  0.00  0.00    +0.034 A 
ATOM     17  C   UNL     1      16.745   6.099  19.313  0.00  0.00    +0.193 A 
ATOM     18  O   UNL     1      16.708   5.651  18.622  0.00  0.00    -0.287 OA
ATOM     19  C   UNL     1      17.367   5.989  19.844  0.00  0.00    +0.042 A 
ATOM     20  C   UNL     1      17.404   6.437  20.535  0.00  0.00    +0.003 A 
ATOM     21  C   UNL     1      16.819   6.996  20.696  0.00  0.00    -0.000 A 
ATOM     22  C   UNL     1      16.197   7.107  20.166  0.00  0.00    +0.000 A 
ENDBRANCH  15  16
ENDBRANCH  14  15
ENDBRANCH  13  14
TORSDOF 6
ENDMDL
MODEL 5
REMARK VINA RESULT:      -7.1      1.490      1.824
REMARK  Name = 
REMARK  6 active torsions:
REMARK  status: ('A' for Active; 'I' for Inactive)
REMARK    1  A    between atoms: C_3  and  C_4
REMARK    2  A    between atoms: C_4  and  N_5
REMARK    3  A    between atoms: C_6  and  C_8
REMARK    4  A    between atoms: C_13  and  N_14
REMARK    5  A    between atoms: N_14  and  C_15
REMARK    6  A    between atoms: C_15  and  C_16
REMARK                            x       y       z     vdW  Elec       q    Type
REMARK                         _______ _______ _______ _____ _____    ______ ____
ROOT
ATOM      1  O   UNL     1      -3.716   1.020  23.549  0.00  0.00    -0.219 OA
ATOM      2  C   UNL     1      -3.160   1.062  24.157  0.00  0.00    +0.199 C 
ATOM      3  C   UNL     1      -2.936   1.744  24.564  0.00  0.00    +0.169 C 
ATOM     11  O   UNL     1      -2.369   1.532  25.123  0.00  0.00    -0.350 OA
ATOM     12  C   UNL     1      -2.242   0.719  25.063  0.00  0.00    +0.162 C 
ATOM     13  C   UNL     1      -2.731   0.429  24.466  0.00  0.00    +0.135 C 
ENDROOT
BRANCH   3   4
ATOM      4  C   UNL     1      -3.228   2.504  24.433  0.00  0.00    +0.147 C 
BRANCH   4   5
ATOM      5  N   UNL     1      -3.849   2.792  24.894  0.00  0.00    -0.203 NA
ATOM      6  C   UNL     1      -4.125   3.561  24.781  0.00  0.00    +0.241 C 
ATOM      7  O   UNL     1      -3.780   4.043  24.206  0.00  0.00    -0.273 OA
BRANCH   6   8
ATOM      8  C   UNL     1      -4.746   3.849  25.242  0.00  0.00    +0.078 C 
ATOM      9  C   UNL     1      -5.486   3.741  25.590  0.00  0.00    +0.010 C 
ATOM     10  C   UNL     1      -5.081   4.453  25.691  0.00  0.00    +0.010 C 
ENDBRANCH   6   8
ENDBRANCH   4   5
ENDBRANCH   3   4
BRANCH  13  14
ATOM     14  N   UNL     1      -2.783  -0.357  24.220  0.00  0.00    -0.209 NA
BRANCH  14  15
ATOM     15  C   UNL     1      -2.525  -0.963  24.718  0.00  0.00    +0.118 C 
BRANCH  15  16
ATOM     16  C   UNL     1      -2.793  -1.734  24.602  0.00  0.00    +0.034 A 
ATOM     17  C   UNL     1      -2.258  -2.363  24.621  0.00  0.00    +0.193 A 
ATOM     18  O   UNL     1      -1.457  -2.220  24.757  0.00  0.00    -0.287 OA
ATOM     19  C   UNL     1      -2.526  -3.135  24.505  0.00  0.00    +0.042 A 
ATOM     20  C   UNL     1      -3.327  -3.278  24.369  0.00  0.00    +0.003 A 
ATOM     21  C   UNL     1      -3.860  -2.650  24.350  0.00  0.00    -0.000 A 
ATOM     22  C   UNL     1      -3.593  -1.877  24.466  0.00  0.00    +0.000 A 
ENDBRANCH  15  16
ENDBRANCH  14  15
ENDBRANCH  13  14
TORSDOF 6
ENDMDL
MODEL 6
REMARK VINA RESULT:      -6.9     17.638     19.536
REMARK  Name = 
REMARK  6 active torsions:
REMARK  status: ('A' for Active; 'I' for Inactive)
REMARK    1  A    between atoms: C_3  and  C_4
REMARK    2  A    between atoms: C_4  and  N_5
REMARK    3  A    between atoms: C_6  and  C_8
REMARK    4  A    between atoms: C_13  and  N_14
REMARK    5  A    between atoms: N_14  and  C_15
REMARK    6  A    between atoms: C_15  and  C_16
REMARK                            x       y       z     vdW  Elec       q    Type
REMARK                         _______ _______ _______ _____ _____    ______ ____
ROOT
ATOM      1  O   UNL     1      14.295   7.006  17.321  0.00  0.00    -0.219 OA
ATOM      2  C   UNL     1      14.187   7.511  17.965  0.00  0.00    +0.199 C 
ATOM      3  C   UNL     1      14.609   7.491  18.674  0.00  0.00    +0.169 C 
ATOM     11  O   UNL     1      14.320   8.092  19.159  0.00  0.00    -0.350 OA
ATOM     12  C   UNL     1      13.720   8.483  18.750  0.00  0.00    +0.162 C 
ATOM     13  C   UNL     1      13.637   8.124  18.013  0.00  0.00    +0.135 C 
ENDROOT
BRANCH   3   4
ATOM      4  C   UNL     1      15.213   6.962  18.863  0.00  0.00    +0.147 C 
BRANCH   4   5
ATOM      5  N   UNL     1      15.636   7.054  19.566  0.00  0.00    -0.203 NA
ATOM      6  C   UNL     1      16.267   6.551  19.737  0.00  0.00    +0.241 C 
ATOM      7  O   UNL     1      16.475   5.955  19.205  0.00  0.00    -0.273 OA
BRANCH   6   8
ATOM      8  C   UNL     1      16.690   6.643  20.439  0.00  0.00    +0.078 C 
ATOM      9  C   UNL     1      16.793   6.468  21.239  0.00  0.00    +0.010 C 
ATOM     10  C   UNL     1      17.317   6.977  20.856  0.00  0.00    +0.010 C 
ENDBRANCH   6   8
ENDBRANCH   4   5
ENDBRANCH   3   4
BRANCH  13  14
ATOM     14  N   UNL     1      13.100   8.340  17.425  0.00  0.00    -0.209 NA
BRANCH  14  15
ATOM     15  C   UNL     1      12.330   8.555  17.630  0.00  0.00    +0.118 C 
BRANCH  15  16
ATOM     16  C   UNL     1      11.771   8.695  17.039  0.00  0.00    +0.034 A 
ATOM     17  C   UNL     1      10.968   8.585  17.197  0.00  0.00    +0.193 A 
ATOM     18  O   UNL     1      10.725   8.334  17.944  0.00  0.00    -0.287 OA
ATOM     19  C   UNL     1      10.409   8.726  16.607  0.00  0.00    +0.042 A 
ATOM     20  C   UNL     1      10.652   8.976  15.859  0.00  0.00    +0.003 A 
ATOM     21  C   UNL     1      11.454   9.086  15.702  0.00  0.00    -0.000 A 
ATOM     22  C   UNL     1      12.014   8.946  16.292  0.00  0.00    +0.000 A 
ENDBRANCH  15  16
ENDBRANCH  14  15
ENDBRANCH  13  14
TORSDOF 6
ENDMDL
MODEL 7
REMARK VINA RESULT:      -6.8     16.636     18.939
REMARK  Name = 
REMARK  6 active torsions:
REMARK  status: ('A' for Active; 'I' for Inactive)
REMARK    1  A    between atoms: C_3  and  C_4
REMARK    2  A    between atoms: C_4  and  N_5
REMARK    3  A    between atoms: C_6  and  C_8
REMARK    4  A    between atoms: C_13  and  N_14
REMARK    5  A    between atoms: N_14  and  C_15
REMARK    6  A    between atoms: C_15  and  C_16
REMARK                            x       y       z     vdW  Elec       q    Type
REMARK                         _______ _______ _______ _____ _____    ______ ____
ROOT
ATOM      1  O   UNL     1      13.070   6.508  19.494  0.00  0.00    -0.219 OA
ATOM      2  C   UNL     1      13.335   7.289  19.490  0.00  0.00    +0.199 C 
ATOM      3  C   UNL     1      12.874   7.959  19.634  0.00  0.00    +0.169 C 
ATOM     11  O   UNL     1      13.362   8.621  19.574  0.00  0.00    -0.350 OA
ATOM     12  C   UNL     1      14.123   8.361  19.394  0.00  0.00    +0.162 C 
ATOM     13  C   UNL     1      14.107   7.539  19.342  0.00  0.00    +0.135 C 
ENDROOT
BRANCH   3   4
ATOM      4  C   UNL     1      12.067   7.963  19.807  0.00  0.00    +0.147 C 
BRANCH   4   5
ATOM      5  N   UNL     1      11.808   8.198  20.554  0.00  0.00    -0.203 NA
ATOM      6  C   UNL     1      11.001   8.283  20.703  0.00  0.00    +0.241 C 
ATOM      7  O   UNL     1      10.453   8.133  20.104  0.00  0.00    -0.273 OA
BRANCH   6   8
ATOM      8  C   UNL     1      10.741   8.518  21.450  0.00  0.00    +0.078 C 
ATOM      9  C   UNL     1      10.685   9.094  22.038  0.00  0.00    +0.010 C 
ATOM     10  C   UNL     1      10.349   8.349  22.155  0.00  0.00    +0.010 C 
ENDBRANCH   6   8
ENDBRANCH   4   5
ENDBRANCH   3   4
BRANCH  13  14
ATOM     14  N   UNL     1      14.749   7.050  19.171  0.00  0.00    -0.209 NA
BRANCH  14  15
ATOM     15  C   UNL     1      15.478   7.186  19.534  0.00  0.00    +0.118 C 
BRANCH  15  16
ATOM     16  C   UNL     1      16.121   6.697  19.364  0.00  0.00    +0.034 A 
ATOM     17  C   UNL     1      16.740   6.628  19.904  0.00  0.00    +0.193 A 
ATOM     18  O   UNL     1      16.718   7.048  20.614  0.00  0.00    -0.287 OA
ATOM     19  C   UNL     1      17.383   6.139  19.734  0.00  0.00    +0.042 A 
ATOM     20  C   UNL     1      17.405   5.719  19.025  0.00  0.00    +0.003 A 
ATOM     21  C   UNL     1      16.786   5.788  18.485  0.00  0.00    -0.000 A 
ATOM     22  C   UNL     1      16.143   6.277  18.654  0.00  0.00    +0.000 A 
ENDBRANCH  15  16
ENDBRANCH  14  15
ENDBRANCH  13  14
TORSDOF 6
ENDMDL
MODEL 8
REMARK VINA RESULT:      -6.1     16.088     18.440
REMARK  Name = 
REMARK  6 active torsions:
REMARK  status: ('A' for Active; 'I' for Inactive)
REMARK    1  A    between atoms: C_3  and  C_4
REMARK    2  A    between atoms: C_4  and  N_5
REMARK    3  A    between atoms: C_6  and  C_8
REMARK    4  A    between atoms: C_13  and  N_14
REMARK    5  A    between atoms: N_14  and  C_15
REMARK    6  A    between atoms: C_15  and  C_16
REMARK                            x       y       z     vdW  Elec       q    Type
REMARK                         _______ _______ _______ _____ _____    ______ ____
ROOT
ATOM      1  O   UNL     1      13.146   7.109  19.183  0.00  0.00    -0.219 OA
ATOM      2  C   UNL     1      13.624   7.236  19.844  0.00  0.00    +0.199 C 
ATOM      3  C   UNL     1      14.446   7.167  19.868  0.00  0.00    +0.169 C 
ATOM     11  O   UNL     1      14.694   7.343  20.634  0.00  0.00    -0.350 OA
ATOM     12  C   UNL     1      14.025   7.520  21.084  0.00  0.00    +0.162 C 
ATOM     13  C   UNL     1      13.365   7.454  20.596  0.00  0.00    +0.135 C 
ENDROOT
BRANCH   3   4
ATOM      4  C   UNL     1      14.934   6.959  19.236  0.00  0.00    +0.147 C 
BRANCH   4   5
ATOM      5  N   UNL     1      15.639   6.553  19.375  0.00  0.00    -0.203 NA
ATOM      6  C   UNL     1      16.090   6.280  18.741  0.00  0.00    +0.241 C 
ATOM      7  O   UNL     1      15.837   6.413  17.967  0.00  0.00    -0.273 OA
BRANCH   6   8
ATOM      8  C   UNL     1      16.795   5.874  18.881  0.00  0.00    +0.078 C 
ATOM      9  C   UNL     1      17.405   5.658  19.392  0.00  0.00    +0.010 C 
ATOM     10  C   UNL     1      17.404   5.388  18.612  0.00  0.00    +0.010 C 
ENDBRANCH   6   8
ENDBRANCH   4   5
ENDBRANCH   3   4
BRANCH  13  14
ATOM     14  N   UNL     1      12.581   7.583  20.819  0.00  0.00    -0.209 NA
BRANCH  14  15
ATOM     15  C   UNL     1      12.225   7.090  21.377  0.00  0.00    +0.118 C 
BRANCH  15  16
ATOM     16  C   UNL     1      11.499   7.300  21.708  0.00  0.00    +0.034 A 
ATOM     17  C   UNL     1      10.896   6.739  21.768  0.00  0.00    +0.193 A 
ATOM     18  O   UNL     1      11.019   5.969  21.497  0.00  0.00    -0.287 OA
ATOM     19  C   UNL     1      10.170   6.948  22.099  0.00  0.00    +0.042 A 
ATOM     20  C   UNL     1      10.047   7.717  22.369  0.00  0.00    +0.003 A 
ATOM     21  C   UNL     1      10.649   8.278  22.310  0.00  0.00    -0.000 A 
ATOM     22  C   UNL     1      11.375   8.069  21.978  0.00  0.00    +0.000 A 
ENDBRANCH  15  16
ENDBRANCH  14  15
ENDBRANCH  13  14
TORSDOF 6
ENDMDL
MODEL 9
REMARK VINA RESULT:      -6.1     16.014     18.295
REMARK  Name = 
REMARK  6 active torsions:
REMARK  status: ('A' for Active; 'I' for Inactive)
REMARK    1  A    between atoms: C_3  and  C_4
REMARK    2  A    between atoms: C_4  and  N_5
REMARK    3  A    between atoms: C_6  and  C_8
REMARK    4  A    between atoms: C_13  and  N_14
REMARK    5  A    between atoms: N_14  and  C_15
REMARK    6  A    between atoms: C_15  and  C_16
REMARK                            x       y       z     vdW  Elec       q    Type
REMARK                         _______ _______ _______ _____ _____    ______ ____
ROOT
ATOM      1  O   UNL     1      11.732   7.285  17.742  0.00  0.00    -0.219 OA
ATOM      2  C   UNL     1      12.401   7.632  18.078  0.00  0.00    +0.199 C 
ATOM      3  C   UNL     1      12.972   8.073  17.676  0.00  0.00    +0.169 C 
ATOM     11  O   UNL     1      13.541   8.311  18.224  0.00  0.00    -0.350 OA
ATOM     12  C   UNL     1      13.322   8.018  18.963  0.00  0.00    +0.162 C 
ATOM     13  C   UNL     1      12.618   7.599  18.873  0.00  0.00    +0.135 C 
ENDROOT
BRANCH   3   4
ATOM      4  C   UNL     1      12.973   8.244  16.869  0.00  0.00    +0.147 C 
BRANCH   4   5
ATOM      5  N   UNL     1      13.681   8.424  16.487  0.00  0.00    -0.203 NA
ATOM      6  C   UNL     1      13.675   8.670  15.700  0.00  0.00    +0.241 C 
ATOM      7  O   UNL     1      12.959   8.736  15.294  0.00  0.00    -0.273 OA
BRANCH   6   8
ATOM      8  C   UNL     1      14.384   8.850  15.317  0.00  0.00    +0.078 C 
ATOM      9  C   UNL     1      15.173   9.087  15.351  0.00  0.00    +0.010 C 
ATOM     10  C   UNL     1      14.821   8.923  14.623  0.00  0.00    +0.010 C 
ENDBRANCH   6   8
ENDBRANCH   4   5
ENDBRANCH   3   4
BRANCH  13  14
ATOM     14  N   UNL     1      12.203   7.212  19.472  0.00  0.00    -0.209 NA
BRANCH  14  15
ATOM     15  C   UNL     1      11.909   7.642  20.113  0.00  0.00    +0.118 C 
BRANCH  15  16
ATOM     16  C   UNL     1      11.526   7.251  20.730  0.00  0.00    +0.034 A 
ATOM     17  C   UNL     1      10.967   7.652  21.187  0.00  0.00    +0.193 A 
ATOM     18  O   UNL     1      10.791   8.441  21.027  0.00  0.00    -0.287 OA
ATOM     19  C   UNL     1      10.584   7.261  21.804  0.00  0.00    +0.042 A 
ATOM     20  C   UNL     1      10.759   6.471  21.964  0.00  0.00    +0.003 A 
ATOM     21  C   UNL     1      11.317   6.071  21.508  0.00  0.00    -0.000 A 
ATOM     22  C   UNL     1      11.701   6.462  20.890  0.00  0.00    +0.000 A 
ENDBRANCH  15  16
ENDBRANCH  14  15
ENDBRANCH  13  14
TORSDOF 6
ENDMDL
MODEL 10
REMARK VINA RESULT:      -6.0      2.821      3.872
REMARK  Name = 
REMARK  6 active torsions:
REMARK  status: ('A' for Active; 'I' for Inactive)
REMARK    1  A    between atoms: C_3  and  C_4
REMARK    2  A    between atoms: C_4  and  N_5
REMARK    3  A    between atoms: C_6  and  C_8
REMARK    4  A    between atoms: C_13  and  N_14
REMARK    5  A    between atoms: N_14  and  C_15
REMARK    6  A    between atoms: C_15  and  C_16
REMARK                            x       y       z     vdW  Elec       q    Type
REMARK                         _______ _______ _______ _____ _____    ______ ____
ROOT
ATOM      1  O   UNL     1      -2.807   1.718  23.466  0.00  0.00    -0.219 OA
ATOM      2  C   UNL     1      -2.449   1.963  24.167  0.00  0.00    +0.199 C 
ATOM      3  C   UNL     1      -2.792   2.441  24.747  0.00  0.00    +0.169 C 
ATOM     11  O   UNL     1      -2.240   2.546  25.349  0.00  0.00    -0.350 OA
ATOM     12  C   UNL     1      -1.556   2.134  25.144  0.00  0.00    +0.162 C 
ATOM     13  C   UNL     1      -1.685   1.774  24.414  0.00  0.00    +0.135 C 
ENDROOT
BRANCH   3   4
ATOM      4  C   UNL     1      -3.554   2.757  24.725  0.00  0.00    +0.147 C 
BRANCH   4   5
ATOM      5  N   UNL     1      -4.181   2.345  25.069  0.00  0.00    -0.203 NA
ATOM      6  C   UNL     1      -4.898   2.727  25.210  0.00  0.00    +0.241 C 
ATOM      7  O   UNL     1      -4.988   3.523  25.007  0.00  0.00    -0.273 OA
BRANCH   6   8
ATOM      8  C   UNL     1      -5.524   2.316  25.554  0.00  0.00    +0.078 C 
ATOM      9  C   UNL     1      -6.167   1.804  25.483  0.00  0.00    +0.010 C 
ATOM     10  C   UNL     1      -5.967   2.115  26.220  0.00  0.00    +0.010 C 
ENDBRANCH   6   8
ENDBRANCH   4   5
ENDBRANCH   3   4
BRANCH  13  14
ATOM     14  N   UNL     1      -1.145   1.306  24.000  0.00  0.00    -0.209 NA
BRANCH  14  15
ATOM     15  C   UNL     1      -0.336   1.393  24.138  0.00  0.00    +0.118 C 
BRANCH  15  16
ATOM     16  C   UNL     1       0.198   0.860  23.803  0.00  0.00    +0.034 A 
ATOM     17  C   UNL     1       0.984   1.083  23.686  0.00  0.00    +0.193 A 
ATOM     18  O   UNL     1       1.236   1.837  23.904  0.00  0.00    -0.287 OA
ATOM     19  C   UNL     1       1.518   0.550  23.351  0.00  0.00    +0.042 A 
ATOM     20  C   UNL     1       1.266  -0.205  23.133  0.00  0.00    +0.003 A 
ATOM     21  C   UNL     1       0.480  -0.427  23.249  0.00  0.00    -0.000 A 
ATOM     22  C   UNL     1      -0.054   0.105  23.585  0.00  0.00    +0.000 A 
ENDBRANCH  15  16
ENDBRANCH  14  15
ENDBRANCH  13  14
TORSDOF 6
ENDMDL
