MODEL 1
REMARK VINA RESULT:     -10.4      0.000      0.000
REMARK  Name = 
REMARK  6 active torsions:
REMARK  status: ('A' for Active; 'I' for Inactive)
REMARK    1  A    between atoms: N_2  and  C_3
REMARK    2  A    between atoms: C_6  and  C_9
REMARK    3  A    between atoms: C_12  and  C_14
REMARK    4  A    between atoms: N_18  and  C_19
REMARK    5  A    between atoms: C_19  and  C_20
REMARK    6  A    between atoms: C_23  and  C_24
REMARK                            x       y       z     vdW  Elec       q    Type
REMARK                         _______ _______ _______ _____ _____    ______ ____
ROOT
ATOM      9  C   UNL     1      -3.960   0.313  24.391  0.00  0.00    +0.205 A 
ATOM     10  N   UNL     1      -3.797   0.707  23.685  0.00  0.00    -0.056 NA
ATOM     11  O   UNL     1      -3.966   1.507  23.794  0.00  0.00    -0.336 OA
ATOM     12  C   UNL     1      -4.232   1.608  24.568  0.00  0.00    +0.251 A 
ATOM     13  N   UNL     1      -4.229   0.870  24.938  0.00  0.00    -0.190 NA
ENDROOT
BRANCH   9   6
ATOM      3  C   UNL     1      -3.688  -2.112  24.802  0.00  0.00    +0.148 A 
ATOM      4  C   UNL     1      -4.057  -1.850  24.113  0.00  0.00    +0.036 A 
ATOM      5  C   UNL     1      -4.148  -1.041  23.976  0.00  0.00    +0.008 A 
ATOM      6  C   UNL     1      -3.869  -0.495  24.528  0.00  0.00    +0.058 A 
ATOM      7  C   UNL     1      -3.499  -0.759  25.218  0.00  0.00    +0.103 A 
ATOM      8  N   UNL     1      -3.409  -1.567  25.355  0.00  0.00    -0.228 NA
BRANCH   3   2
ATOM      1  C   UNL     1      -2.968  -3.330  24.596  0.00  0.00    +0.137 C 
ATOM      2  N   UNL     1      -3.597  -2.921  24.939  0.00  0.00    -0.218 NA
ENDBRANCH   3   2
ENDBRANCH   9   6
BRANCH  12  14
ATOM     14  C   UNL     1      -4.462   2.322  24.912  0.00  0.00    +0.138 C 
ATOM     15  C   UNL     1      -5.238   2.585  25.009  0.00  0.00    +0.027 C 
ATOM     16  C   UNL     1      -5.212   3.323  25.377  0.00  0.00    +0.019 C 
ATOM     17  C   UNL     1      -4.421   3.515  25.508  0.00  0.00    +0.073 C 
ATOM     18  N   UNL     1      -3.957   2.897  25.220  0.00  0.00    -0.260 NA
BRANCH  18  19
ATOM     19  C   UNL     1      -3.134   2.860  25.238  0.00  0.00    +0.138 C 
BRANCH  19  20
ATOM     20  C   UNL     1      -2.694   3.536  25.407  0.00  0.00    +0.139 A 
ATOM     21  C   UNL     1      -2.564   3.857  26.156  0.00  0.00    +0.037 A 
ATOM     22  C   UNL     1      -2.096   4.530  26.068  0.00  0.00    +0.038 A 
ATOM     23  C   UNL     1      -1.936   4.626  25.264  0.00  0.00    +0.156 A 
ATOM     26  O   UNL     1      -2.306   4.012  24.856  0.00  0.00    -0.458 OA
BRANCH  23  24
ATOM     24  C   UNL     1      -1.487   5.230  24.928  0.00  0.00    +0.246 C 
ATOM     25  O   UNL     1      -0.663   5.175  24.916  0.00  0.00    -0.212 OA
ENDBRANCH  23  24
ENDBRANCH  19  20
ENDBRANCH  18  19
ENDBRANCH  12  14
TORSDOF 6
ENDMDL
MODEL 2
REMARK VINA RESULT:      -9.5      2.081      2.824
REMARK  Name = 
REMARK  6 active torsions:
REMARK  status: ('A' for Active; 'I' for Inactive)
REMARK    1  A    between atoms: N_2  and  C_3
REMARK    2  A    between atoms: C_6  and  C_9
REMARK    3  A    between atoms: C_12  and  C_14
REMARK    4  A    between atoms: N_18  and  C_19
REMARK    5  A    between atoms: C_19  and  C_20
REMARK    6  A    between atoms: C_23  and  C_24
REMARK                            x       y       z     vdW  Elec       q    Type
REMARK                         _______ _______ _______ _____ _____    ______ ____
ROOT
ATOM      9  C   UNL     1      -1.646  -0.460  25.280  0.00  0.00    +0.205 A 
ATOM     10  N   UNL     1      -1.216  -0.389  25.980  0.00  0.00    -0.056 NA
ATOM     11  O   UNL     1      -0.777   0.309  25.941  0.00  0.00    -0.336 OA
ATOM     12  C   UNL     1      -0.935   0.669  25.216  0.00  0.00    +0.251 A 
ATOM     13  N   UNL     1      -1.472   0.194  24.807  0.00  0.00    -0.190 NA
ENDROOT
BRANCH   9   6
ATOM      3  C   UNL     1      -3.185  -2.308  24.698  0.00  0.00    +0.148 A 
ATOM      4  C   UNL     1      -3.465  -1.655  25.115  0.00  0.00    +0.036 A 
ATOM      5  C   UNL     1      -2.952  -1.039  25.309  0.00  0.00    +0.008 A 
ATOM      6  C   UNL     1      -2.159  -1.076  25.086  0.00  0.00    +0.058 A 
ATOM      7  C   UNL     1      -1.878  -1.730  24.668  0.00  0.00    +0.103 A 
ATOM      8  N   UNL     1      -2.391  -2.347  24.474  0.00  0.00    -0.228 NA
BRANCH   3   2
ATOM      1  C   UNL     1      -4.221  -2.842  23.870  0.00  0.00    +0.137 C 
ATOM      2  N   UNL     1      -3.698  -2.925  24.504  0.00  0.00    -0.218 NA
ENDBRANCH   3   2
ENDBRANCH   9   6
BRANCH  12  14
ATOM     14  C   UNL     1      -0.613   1.379  24.947  0.00  0.00    +0.138 C 
ATOM     15  C   UNL     1       0.029   1.457  24.436  0.00  0.00    +0.027 C 
ATOM     16  C   UNL     1       0.162   2.262  24.314  0.00  0.00    +0.019 C 
ATOM     17  C   UNL     1      -0.399   2.682  24.750  0.00  0.00    +0.073 C 
ATOM     18  N   UNL     1      -0.878   2.136  25.141  0.00  0.00    -0.260 NA
BRANCH  18  19
ATOM     19  C   UNL     1      -1.510   2.316  25.638  0.00  0.00    +0.138 C 
BRANCH  19  20
ATOM     20  C   UNL     1      -1.986   2.971  25.480  0.00  0.00    +0.139 A 
ATOM     21  C   UNL     1      -1.880   3.732  25.780  0.00  0.00    +0.037 A 
ATOM     22  C   UNL     1      -2.481   4.211  25.479  0.00  0.00    +0.038 A 
ATOM     23  C   UNL     1      -2.959   3.746  24.993  0.00  0.00    +0.156 A 
ATOM     26  O   UNL     1      -2.653   2.979  24.994  0.00  0.00    -0.458 OA
BRANCH  23  24
ATOM     24  C   UNL     1      -3.624   4.002  24.580  0.00  0.00    +0.246 C 
ATOM     25  O   UNL     1      -4.379   3.855  24.880  0.00  0.00    -0.212 OA
ENDBRANCH  23  24
ENDBRANCH  19  20
ENDBRANCH  18  19
ENDBRANCH  12  14
TORSDOF 6
ENDMDL
MODEL 3
REMARK VINA RESULT:      -9.3      2.033      4.716
REMARK  Name = 
REMARK  6 active torsions:
REMARK  status: ('A' for Active; 'I' for Inactive)
REMARK    1  A    between atoms: N_2  and  C_3
REMARK    2  A    between atoms: C_6  and  C_9
REMARK    3  A    between atoms: C_12  and  C_14
REMARK    4  A    between atoms: N_18  and  C_19
REMARK    5  A    between atoms: C_19  and  C_20
REMARK    6  A    between atoms: C_23  and  C_24
REMARK                            x       y       z     vdW  Elec       q    Type
REMARK                         _______ _______ _______ _____ _____    ______ ____
ROOT
ATOM      9  C   UNL     1      -4.329   1.081  24.510  0.00  0.00    +0.205 A 
ATOM     10  N   UNL     1      -3.992   1.070  23.758  0.00  0.00    -0.056 NA
ATOM     11  O   UNL     1      -3.693   0.313  23.622  0.00  0.00    -0.336 OA
ATOM     12  C   UNL     1      -3.846  -0.145  24.291  0.00  0.00    +0.251 A 
ATOM     13  N   UNL     1      -4.239   0.329  24.841  0.00  0.00    -0.190 NA
ENDROOT
BRANCH   9   6
ATOM      3  C   UNL     1      -5.420   3.022  25.590  0.00  0.00    +0.148 A 
ATOM      4  C   UNL     1      -5.865   2.357  25.392  0.00  0.00    +0.036 A 
ATOM      5  C   UNL     1      -5.501   1.710  25.033  0.00  0.00    +0.008 A 
ATOM      6  C   UNL     1      -4.693   1.728  24.870  0.00  0.00    +0.058 A 
ATOM      7  C   UNL     1      -4.248   2.394  25.068  0.00  0.00    +0.103 A 
ATOM      8  N   UNL     1      -4.611   3.042  25.428  0.00  0.00    -0.228 NA
BRANCH   3   2
ATOM      1  C   UNL     1      -5.790   4.403  25.571  0.00  0.00    +0.137 C 
ATOM      2  N   UNL     1      -5.784   3.669  25.949  0.00  0.00    -0.218 NA
ENDBRANCH   3   2
ENDBRANCH   9   6
BRANCH  12  14
ATOM     14  C   UNL     1      -3.642  -0.937  24.394  0.00  0.00    +0.138 C 
ATOM     15  C   UNL     1      -4.084  -1.587  24.145  0.00  0.00    +0.027 C 
ATOM     16  C   UNL     1      -3.674  -2.271  24.361  0.00  0.00    +0.019 C 
ATOM     17  C   UNL     1      -2.980  -2.043  24.742  0.00  0.00    +0.073 C 
ATOM     18  N   UNL     1      -2.959  -1.219  24.763  0.00  0.00    -0.260 NA
BRANCH  18  19
ATOM     19  C   UNL     1      -2.362  -0.757  25.094  0.00  0.00    +0.138 C 
BRANCH  19  20
ATOM     20  C   UNL     1      -1.571  -0.936  24.945  0.00  0.00    +0.139 A 
ATOM     21  C   UNL     1      -1.100  -1.455  25.380  0.00  0.00    +0.037 A 
ATOM     22  C   UNL     1      -0.350  -1.468  25.038  0.00  0.00    +0.038 A 
ATOM     23  C   UNL     1      -0.357  -0.956  24.390  0.00  0.00    +0.156 A 
ATOM     26  O   UNL     1      -1.112  -0.628  24.333  0.00  0.00    -0.458 OA
BRANCH  23  24
ATOM     24  C   UNL     1       0.279  -0.801  23.889  0.00  0.00    +0.246 C 
ATOM     25  O   UNL     1       0.357  -0.058  23.538  0.00  0.00    -0.212 OA
ENDBRANCH  23  24
ENDBRANCH  19  20
ENDBRANCH  18  19
ENDBRANCH  12  14
TORSDOF 6
ENDMDL
MODEL 4
REMARK VINA RESULT:      -9.2      2.263      5.807
REMARK  Name = 
REMARK  6 active torsions:
REMARK  status: ('A' for Active; 'I' for Inactive)
REMARK    1  A    between atoms: N_2  and  C_3
REMARK    2  A    between atoms: C_6  and  C_9
REMARK    3  A    between atoms: C_12  and  C_14
REMARK    4  A    between atoms: N_18  and  C_19
REMARK    5  A    between atoms: C_19  and  C_20
REMARK    6  A    between atoms: C_23  and  C_24
REMARK                            x       y       z     vdW  Elec       q    Type
REMARK                         _______ _______ _______ _____ _____    ______ ____
ROOT
ATOM      9  C   UNL     1      -1.329   1.968  24.317  0.00  0.00    +0.205 A 
ATOM     10  N   UNL     1      -1.419   1.710  23.539  0.00  0.00    -0.056 NA
ATOM     11  O   UNL     1      -1.276   0.897  23.521  0.00  0.00    -0.336 OA
ATOM     12  C   UNL     1      -1.099   0.653  24.289  0.00  0.00    +0.251 A 
ATOM     13  N   UNL     1      -1.131   1.314  24.781  0.00  0.00    -0.190 NA
ENDROOT
BRANCH   9   6
ATOM      3  C   UNL     1      -1.605   4.292  25.120  0.00  0.00    +0.148 A 
ATOM      4  C   UNL     1      -0.852   4.001  24.951  0.00  0.00    +0.036 A 
ATOM      5  C   UNL     1      -0.760   3.226  24.684  0.00  0.00    +0.008 A 
ATOM      6  C   UNL     1      -1.421   2.743  24.584  0.00  0.00    +0.058 A 
ATOM      7  C   UNL     1      -2.175   3.035  24.753  0.00  0.00    +0.103 A 
ATOM      8  N   UNL     1      -2.266   3.810  25.021  0.00  0.00    -0.228 NA
BRANCH   3   2
ATOM      1  C   UNL     1      -1.308   5.686  25.003  0.00  0.00    +0.137 C 
ATOM      2  N   UNL     1      -1.697   5.067  25.388  0.00  0.00    -0.218 NA
ENDBRANCH   3   2
ENDBRANCH   9   6
BRANCH  12  14
ATOM     14  C   UNL     1      -0.920  -0.118  24.524  0.00  0.00    +0.138 C 
ATOM     15  C   UNL     1      -0.174  -0.467  24.509  0.00  0.00    +0.027 C 
ATOM     16  C   UNL     1      -0.249  -1.240  24.791  0.00  0.00    +0.019 C 
ATOM     17  C   UNL     1      -1.042  -1.366  24.980  0.00  0.00    +0.073 C 
ATOM     18  N   UNL     1      -1.456  -0.673  24.815  0.00  0.00    -0.260 NA
BRANCH  18  19
ATOM     19  C   UNL     1      -2.266  -0.556  24.922  0.00  0.00    +0.138 C 
BRANCH  19  20
ATOM     20  C   UNL     1      -2.776  -1.202  24.948  0.00  0.00    +0.139 A 
ATOM     21  C   UNL     1      -3.085  -1.549  25.630  0.00  0.00    +0.037 A 
ATOM     22  C   UNL     1      -3.568  -2.178  25.401  0.00  0.00    +0.038 A 
ATOM     23  C   UNL     1      -3.558  -2.220  24.577  0.00  0.00    +0.156 A 
ATOM     26  O   UNL     1      -3.068  -1.617  24.297  0.00  0.00    -0.458 OA
BRANCH  23  24
ATOM     24  C   UNL     1      -3.965  -2.768  24.115  0.00  0.00    +0.246 C 
ATOM     25  O   UNL     1      -4.545  -2.513  23.586  0.00  0.00    -0.212 OA
ENDBRANCH  23  24
ENDBRANCH  19  20
ENDBRANCH  18  19
ENDBRANCH  12  14
TORSDOF 6
ENDMDL
MODEL 5
REMARK VINA RESULT:      -9.2      1.915      2.948
REMARK  Name = 
REMARK  6 active torsions:
REMARK  status: ('A' for Active; 'I' for Inactive)
REMARK    1  A    between atoms: N_2  and  C_3
REMARK    2  A    between atoms: C_6  and  C_9
REMARK    3  A    between atoms: C_12  and  C_14
REMARK    4  A    between atoms: N_18  and  C_19
REMARK    5  A    between atoms: C_19  and  C_20
REMARK    6  A    between atoms: C_23  and  C_24
REMARK                            x       y       z     vdW  Elec       q    Type
REMARK                         _______ _______ _______ _____ _____    ______ ____
ROOT
ATOM      9  C   UNL     1      -1.409   0.930  24.454  0.00  0.00    +0.205 A 
ATOM     10  N   UNL     1      -1.160   1.364  23.799  0.00  0.00    -0.056 NA
ATOM     11  O   UNL     1      -1.280   2.164  23.962  0.00  0.00    -0.336 OA
ATOM     12  C   UNL     1      -1.604   2.224  24.719  0.00  0.00    +0.251 A 
ATOM     13  N   UNL     1      -1.684   1.461  25.023  0.00  0.00    -0.190 NA
ENDROOT
BRANCH   9   6
ATOM      3  C   UNL     1      -1.346  -1.535  24.677  0.00  0.00    +0.148 A 
ATOM      4  C   UNL     1      -2.067  -1.136  24.708  0.00  0.00    +0.036 A 
ATOM      5  C   UNL     1      -2.088  -0.315  24.634  0.00  0.00    +0.008 A 
ATOM      6  C   UNL     1      -1.388   0.108  24.529  0.00  0.00    +0.058 A 
ATOM      7  C   UNL     1      -0.666  -0.291  24.497  0.00  0.00    +0.103 A 
ATOM      8  N   UNL     1      -0.645  -1.112  24.571  0.00  0.00    -0.228 NA
BRANCH   3   2
ATOM      1  C   UNL     1      -1.954  -2.812  24.473  0.00  0.00    +0.137 C 
ATOM      2  N   UNL     1      -1.324  -2.356  24.751  0.00  0.00    -0.218 NA
ENDBRANCH   3   2
ENDBRANCH   9   6
BRANCH  12  14
ATOM     14  C   UNL     1      -1.812   2.923  25.103  0.00  0.00    +0.138 C 
ATOM     15  C   UNL     1      -1.329   3.358  25.611  0.00  0.00    +0.027 C 
ATOM     16  C   UNL     1      -1.758   4.015  25.870  0.00  0.00    +0.019 C 
ATOM     17  C   UNL     1      -2.504   3.985  25.521  0.00  0.00    +0.073 C 
ATOM     18  N   UNL     1      -2.538   3.311  25.047  0.00  0.00    -0.260 NA
BRANCH  18  19
ATOM     19  C   UNL     1      -3.184   3.067  24.597  0.00  0.00    +0.138 C 
BRANCH  19  20
ATOM     20  C   UNL     1      -3.949   3.159  24.890  0.00  0.00    +0.139 A 
ATOM     21  C   UNL     1      -4.400   3.849  24.861  0.00  0.00    +0.037 A 
ATOM     22  C   UNL     1      -5.128   3.694  25.216  0.00  0.00    +0.038 A 
ATOM     23  C   UNL     1      -5.128   2.907  25.465  0.00  0.00    +0.156 A 
ATOM     26  O   UNL     1      -4.399   2.577  25.263  0.00  0.00    -0.458 OA
BRANCH  23  24
ATOM     24  C   UNL     1      -5.747   2.520  25.848  0.00  0.00    +0.246 C 
ATOM     25  O   UNL     1      -5.901   2.674  26.644  0.00  0.00    -0.212 OA
ENDBRANCH  23  24
ENDBRANCH  19  20
ENDBRANCH  18  19
ENDBRANCH  12  14
TORSDOF 6
ENDMDL
MODEL 6
REMARK VINA RESULT:      -9.1      2.533      4.547
REMARK  Name = 
REMARK  6 active torsions:
REMARK  status: ('A' for Active; 'I' for Inactive)
REMARK    1  A    between atoms: N_2  and  C_3
REMARK    2  A    between atoms: C_6  and  C_9
REMARK    3  A    between atoms: C_12  and  C_14
REMARK    4  A    between atoms: N_18  and  C_19
REMARK    5  A    between atoms: C_19  and  C_20
REMARK    6  A    between atoms: C_23  and  C_24
REMARK                            x       y       z     vdW  Elec       q    Type
REMARK                         _______ _______ _______ _____ _____    ______ ____
ROOT
ATOM      9  C   UNL     1      -3.062   3.018  24.964  0.00  0.00    +0.205 A 
ATOM     10  N   UNL     1      -2.721   3.617  24.512  0.00  0.00    -0.056 NA
ATOM     11  O   UNL     1      -1.901   3.559  24.589  0.00  0.00    -0.336 OA
ATOM     12  C   UNL     1      -1.736   2.924  25.089  0.00  0.00    +0.251 A 
ATOM     13  N   UNL     1      -2.454   2.589  25.320  0.00  0.00    -0.190 NA
ENDROOT
BRANCH   9   6
ATOM      3  C   UNL     1      -5.486   2.581  25.207  0.00  0.00    +0.148 A 
ATOM      4  C   UNL     1      -5.032   2.113  24.702  0.00  0.00    +0.036 A 
ATOM      5  C   UNL     1      -4.224   2.259  24.621  0.00  0.00    +0.008 A 
ATOM      6  C   UNL     1      -3.870   2.872  25.045  0.00  0.00    +0.058 A 
ATOM      7  C   UNL     1      -4.326   3.340  25.550  0.00  0.00    +0.103 A 
ATOM      8  N   UNL     1      -5.134   3.195  25.631  0.00  0.00    -0.228 NA
BRANCH   3   2
ATOM      1  C   UNL     1      -6.598   1.687  25.117  0.00  0.00    +0.137 C 
ATOM      2  N   UNL     1      -6.294   2.435  25.288  0.00  0.00    -0.218 NA
ENDBRANCH   3   2
ENDBRANCH   9   6
BRANCH  12  14
ATOM     14  C   UNL     1      -0.986   2.668  25.317  0.00  0.00    +0.138 C 
ATOM     15  C   UNL     1      -0.553   2.950  25.959  0.00  0.00    +0.027 C 
ATOM     16  C   UNL     1       0.164   2.541  25.982  0.00  0.00    +0.019 C 
ATOM     17  C   UNL     1       0.172   2.006  25.354  0.00  0.00    +0.073 C 
ATOM     18  N   UNL     1      -0.538   2.084  24.943  0.00  0.00    -0.260 NA
BRANCH  18  19
ATOM     19  C   UNL     1      -0.761   1.654  24.276  0.00  0.00    +0.138 C 
BRANCH  19  20
ATOM     20  C   UNL     1      -0.520   0.871  24.190  0.00  0.00    +0.139 A 
ATOM     21  C   UNL     1       0.106   0.604  23.724  0.00  0.00    +0.037 A 
ATOM     22  C   UNL     1       0.151  -0.216  23.801  0.00  0.00    +0.038 A 
ATOM     23  C   UNL     1      -0.448  -0.457  24.315  0.00  0.00    +0.156 A 
ATOM     26  O   UNL     1      -0.862   0.215  24.555  0.00  0.00    -0.458 OA
BRANCH  23  24
ATOM     24  C   UNL     1      -0.604  -1.232  24.547  0.00  0.00    +0.246 C 
ATOM     25  O   UNL     1      -0.355  -1.500  25.287  0.00  0.00    -0.212 OA
ENDBRANCH  23  24
ENDBRANCH  19  20
ENDBRANCH  18  19
ENDBRANCH  12  14
TORSDOF 6
ENDMDL
MODEL 7
REMARK VINA RESULT:      -9.0      1.638      5.187
REMARK  Name = 
REMARK  6 active torsions:
REMARK  status: ('A' for Active; 'I' for Inactive)
REMARK    1  A    between atoms: N_2  and  C_3
REMARK    2  A    between atoms: C_6  and  C_9
REMARK    3  A    between atoms: C_12  and  C_14
REMARK    4  A    between atoms: N_18  and  C_19
REMARK    5  A    between atoms: C_19  and  C_20
REMARK    6  A    between atoms: C_23  and  C_24
REMARK                            x       y       z     vdW  Elec       q    Type
REMARK                         _______ _______ _______ _____ _____    ______ ____
ROOT
ATOM      9  C   UNL     1      -3.274   3.117  24.525  0.00  0.00    +0.205 A 
ATOM     10  N   UNL     1      -3.732   3.159  23.840  0.00  0.00    -0.056 NA
ATOM     11  O   UNL     1      -4.341   2.605  23.905  0.00  0.00    -0.336 OA
ATOM     12  C   UNL     1      -4.259   2.221  24.630  0.00  0.00    +0.251 A 
ATOM     13  N   UNL     1      -3.600   2.536  25.014  0.00  0.00    -0.190 NA
ENDROOT
BRANCH   9   6
ATOM      3  C   UNL     1      -1.276   4.488  25.027  0.00  0.00    +0.148 A 
ATOM      4  C   UNL     1      -2.017   4.724  25.300  0.00  0.00    +0.036 A 
ATOM      5  C   UNL     1      -2.683   4.267  25.133  0.00  0.00    +0.008 A 
ATOM      6  C   UNL     1      -2.608   3.574  24.692  0.00  0.00    +0.058 A 
ATOM      7  C   UNL     1      -1.866   3.337  24.419  0.00  0.00    +0.103 A 
ATOM      8  N   UNL     1      -1.200   3.794  24.586  0.00  0.00    -0.228 NA
BRANCH   3   2
ATOM      1  C   UNL     1      -0.325   5.481  24.635  0.00  0.00    +0.137 C 
ATOM      2  N   UNL     1      -0.610   4.944  25.195  0.00  0.00    -0.218 NA
ENDBRANCH   3   2
ENDBRANCH   9   6
BRANCH  12  14
ATOM     14  C   UNL     1      -4.749   1.625  24.921  0.00  0.00    +0.138 C 
ATOM     15  C   UNL     1      -5.421   1.735  25.387  0.00  0.00    +0.027 C 
ATOM     16  C   UNL     1      -5.741   0.992  25.551  0.00  0.00    +0.019 C 
ATOM     17  C   UNL     1      -5.267   0.424  25.187  0.00  0.00    +0.073 C 
ATOM     18  N   UNL     1      -4.655   0.815  24.798  0.00  0.00    -0.260 NA
BRANCH  18  19
ATOM     19  C   UNL     1      -4.052   0.458  24.362  0.00  0.00    +0.138 C 
BRANCH  19  20
ATOM     20  C   UNL     1      -3.956  -0.361  24.384  0.00  0.00    +0.139 A 
ATOM     21  C   UNL     1      -4.319  -0.906  23.883  0.00  0.00    +0.037 A 
ATOM     22  C   UNL     1      -4.067  -1.661  24.101  0.00  0.00    +0.038 A 
ATOM     23  C   UNL     1      -3.547  -1.582  24.737  0.00  0.00    +0.156 A 
ATOM     26  O   UNL     1      -3.479  -0.778  24.912  0.00  0.00    -0.458 OA
BRANCH  23  24
ATOM     24  C   UNL     1      -3.165  -2.198  25.129  0.00  0.00    +0.246 C 
ATOM     25  O   UNL     1      -3.573  -2.893  25.306  0.00  0.00    -0.212 OA
ENDBRANCH  23  24
ENDBRANCH  19  20
ENDBRANCH  18  19
ENDBRANCH  12  14
TORSDOF 6
ENDMDL
MODEL 8
REMARK VINA RESULT:      -8.8      3.019      3.961
REMARK  Name = 
REMARK  6 active torsions:
REMARK  status: ('A' for Active; 'I' for Inactive)
REMARK    1  A    between atoms: N_2  and  C_3
REMARK    2  A    between atoms: C_6  and  C_9
REMARK    3  A    between atoms: C_12  and  C_14
REMARK    4  A    between atoms: N_18  and  C_19
REMARK    5  A    between atoms: C_19  and  C_20
REMARK    6  A    between atoms: C_23  and  C_24
REMARK                            x       y       z     vdW  Elec       q    Type
REMARK                         _______ _______ _______ _____ _____    ______ ____
ROOT
ATOM      9  C   UNL     1      -0.990   0.058  24.555  0.00  0.00    +0.205 A 
ATOM     10  N   UNL     1      -1.037   0.071  25.378  0.00  0.00    -0.056 NA
ATOM     11  O   UNL     1      -1.834   0.044  25.589  0.00  0.00    -0.336 OA
ATOM     12  C   UNL     1      -2.280   0.015  24.895  0.00  0.00    +0.251 A 
ATOM     13  N   UNL     1      -1.758   0.023  24.256  0.00  0.00    -0.190 NA
ENDROOT
BRANCH   9   6
ATOM      3  C   UNL     1       1.090   0.113  23.214  0.00  0.00    +0.148 A 
ATOM      4  C   UNL     1       0.757   0.816  23.487  0.00  0.00    +0.036 A 
ATOM      5  C   UNL     1       0.064   0.798  23.934  0.00  0.00    +0.008 A 
ATOM      6  C   UNL     1      -0.296   0.077  24.108  0.00  0.00    +0.058 A 
ATOM      7  C   UNL     1       0.038  -0.627  23.834  0.00  0.00    +0.103 A 
ATOM      8  N   UNL     1       0.731  -0.609  23.387  0.00  0.00    -0.228 NA
BRANCH   3   2
ATOM      1  C   UNL     1       1.798  -0.206  22.014  0.00  0.00    +0.137 C 
ATOM      2  N   UNL     1       1.783   0.132  22.767  0.00  0.00    -0.218 NA
ENDBRANCH   3   2
ENDBRANCH   9   6
BRANCH  12  14
ATOM     14  C   UNL     1      -3.103  -0.017  24.849  0.00  0.00    +0.138 C 
ATOM     15  C   UNL     1      -3.563  -0.701  24.873  0.00  0.00    +0.027 C 
ATOM     16  C   UNL     1      -4.355  -0.478  24.809  0.00  0.00    +0.019 C 
ATOM     17  C   UNL     1      -4.384   0.344  24.746  0.00  0.00    +0.073 C 
ATOM     18  N   UNL     1      -3.610   0.628  24.771  0.00  0.00    -0.260 NA
BRANCH  18  19
ATOM     19  C   UNL     1      -3.384   1.420  24.725  0.00  0.00    +0.138 C 
BRANCH  19  20
ATOM     20  C   UNL     1      -3.952   2.016  24.779  0.00  0.00    +0.139 A 
ATOM     21  C   UNL     1      -4.334   2.380  24.145  0.00  0.00    +0.037 A 
ATOM     22  C   UNL     1      -4.856   2.941  24.449  0.00  0.00    +0.038 A 
ATOM     23  C   UNL     1      -4.797   2.924  25.272  0.00  0.00    +0.156 A 
ATOM     26  O   UNL     1      -4.238   2.352  25.475  0.00  0.00    -0.458 OA
BRANCH  23  24
ATOM     24  C   UNL     1      -5.222   3.396  25.798  0.00  0.00    +0.246 C 
ATOM     25  O   UNL     1      -5.869   3.083  26.204  0.00  0.00    -0.212 OA
ENDBRANCH  23  24
ENDBRANCH  19  20
ENDBRANCH  18  19
ENDBRANCH  12  14
TORSDOF 6
ENDMDL
