REMARK  Name = 
REMARK  7 active torsions:
REMARK  status: ('A' for Active; 'I' for Inactive)
REMARK    1  A    between atoms: C_2  and  N_4
REMARK    2  A    between atoms: N_7  and  C_8
REMARK    3  A    between atoms: C_8  and  C_9
REMARK    4  A    between atoms: C_11  and  C_12
REMARK    5  A    between atoms: C_12  and  C_13
REMARK    6  A    between atoms: N_15  and  C_16
REMARK    7  A    between atoms: C_16  and  C_17
REMARK                            x       y       z     vdW  Elec       q    Type
REMARK                         _______ _______ _______ _____ _____    ______ ____
ROOT
ATOM      9  C   UNL     1       4.520  -8.904   0.000  0.00  0.00    +0.170 C 
ATOM     10  O   UNL     1       5.273  -8.569   0.000  0.00  0.00    -0.351 OA
ATOM     11  C   UNL     1       5.825  -9.182   0.000  0.00  0.00    +0.157 C 
ATOM     23  C   UNL     1       5.413  -9.896   0.000  0.00  0.00    +0.212 C 
ATOM     24  O   UNL     1       5.748 -10.650   0.000  0.00  0.00    -0.218 OA
ATOM     25  C   UNL     1       4.606  -9.725   0.000  0.00  0.00    +0.213 C 
ATOM     26  O   UNL     1       3.993 -10.277   0.000  0.00  0.00    -0.218 OA
ENDROOT
BRANCH   9   8
ATOM      8  C   UNL     1       3.805  -8.492   0.000  0.00  0.00    +0.149 C 
BRANCH   8   7
ATOM      4  N   UNL     1       1.662  -8.904   0.000  0.00  0.00    -0.189 NA
ATOM      5  C   UNL     1       2.376  -8.492   0.000  0.00  0.00    +0.339 C 
ATOM      6  O   UNL     1       2.376  -7.667   0.000  0.00  0.00    -0.249 OA
ATOM      7  N   UNL     1       3.091  -8.904   0.000  0.00  0.00    -0.185 NA
BRANCH   4   2
ATOM      1  C   UNL     1       0.233  -8.904   0.000  0.00  0.00    +0.023 C 
ATOM      2  C   UNL     1       0.947  -8.492   0.000  0.00  0.00    +0.097 C 
ATOM      3  C   UNL     1       0.947  -7.667   0.000  0.00  0.00    +0.023 C 
ENDBRANCH   4   2
ENDBRANCH   8   7
ENDBRANCH   9   8
BRANCH  11  12
ATOM     12  C   UNL     1       6.646  -9.095   0.000  0.00  0.00    +0.119 C 
BRANCH  12  13
ATOM     13  C   UNL     1       6.981  -8.342   0.000  0.00  0.00    +0.244 C 
ATOM     14  O   UNL     1       6.496  -7.674   0.000  0.00  0.00    -0.273 OA
ATOM     15  N   UNL     1       7.802  -8.256   0.000  0.00  0.00    -0.200 NA
BRANCH  15  16
ATOM     16  C   UNL     1       8.137  -7.502   0.000  0.00  0.00    +0.143 C 
BRANCH  16  17
ATOM     17  C   UNL     1       8.958  -7.416   0.000  0.00  0.00    +0.019 A 
ATOM     18  C   UNL     1       9.293  -6.662   0.000  0.00  0.00    +0.001 A 
ATOM     19  C   UNL     1      10.114  -6.576   0.000  0.00  0.00    +0.020 A 
ATOM     20  C   UNL     1      10.599  -7.243   0.000  0.00  0.00    +0.099 A 
ATOM     21  N   UNL     1      10.263  -7.997   0.000  0.00  0.00    -0.243 NA
ATOM     22  C   UNL     1       9.443  -8.083   0.000  0.00  0.00    +0.096 A 
ENDBRANCH  16  17
ENDBRANCH  15  16
ENDBRANCH  12  13
ENDBRANCH  11  12
TORSDOF 7
