MODEL 1
REMARK VINA RESULT:     -10.7      0.000      0.000
REMARK  Name = 
REMARK  4 active torsions:
REMARK  status: ('A' for Active; 'I' for Inactive)
REMARK    1  A    between atoms: C_3  and  C_4
REMARK    2  A    between atoms: C_4  and  N_5
REMARK    3  A    between atoms: C_16  and  N_17
REMARK    4  A    between atoms: N_17  and  C_18
REMARK                            x       y       z     vdW  Elec       q    Type
REMARK                         _______ _______ _______ _____ _____    ______ ____
ROOT
ATOM      1  O   UNL     1      -4.849   1.151  25.363  0.00  0.00    -0.219 OA
ATOM      2  C   UNL     1      -4.267   0.975  24.804  0.00  0.00    +0.199 C 
ATOM      3  C   UNL     1      -3.729   1.509  24.480  0.00  0.00    +0.169 C 
ATOM     14  O   UNL     1      -3.251   1.097  23.947  0.00  0.00    -0.350 OA
ATOM     15  C   UNL     1      -3.494   0.309  23.943  0.00  0.00    +0.162 C 
ATOM     16  C   UNL     1      -4.122   0.233  24.473  0.00  0.00    +0.135 C 
ENDROOT
BRANCH   3   4
ATOM      4  C   UNL     1      -3.677   2.313  24.656  0.00  0.00    +0.149 C 
BRANCH   4   5
ATOM      5  N   UNL     1      -2.938   2.673  24.729  0.00  0.00    -0.186 NA
ATOM      6  C   UNL     1      -2.887   3.483  24.875  0.00  0.00    +0.323 C 
ATOM      7  O   UNL     1      -3.574   3.934  24.947  0.00  0.00    -0.251 OA
ATOM      8  N   UNL     1      -2.148   3.843  24.948  0.00  0.00    -0.258 N 
ATOM      9  C   UNL     1      -2.096   4.653  25.094  0.00  0.00    +0.127 C 
ATOM     10  C   UNL     1      -1.358   5.013  25.167  0.00  0.00    +0.164 C 
ATOM     11  O   UNL     1      -0.670   4.562  25.095  0.00  0.00    -0.350 OA
ATOM     12  C   UNL     1      -0.722   3.752  24.949  0.00  0.00    +0.164 C 
ATOM     13  C   UNL     1      -1.461   3.392  24.876  0.00  0.00    +0.127 C 
ENDBRANCH   4   5
ENDBRANCH   3   4
BRANCH  16  17
ATOM     17  N   UNL     1      -4.533  -0.462  24.641  0.00  0.00    -0.216 NA
BRANCH  17  18
ATOM     18  C   UNL     1      -4.145  -1.189  24.609  0.00  0.00    +0.073 C 
ATOM     19  C   UNL     1      -3.684  -1.439  25.245  0.00  0.00    +0.017 C 
ATOM     20  C   UNL     1      -3.296  -2.167  25.213  0.00  0.00    +0.001 C 
ATOM     21  C   UNL     1      -3.370  -2.644  24.544  0.00  0.00    +0.000 C 
ATOM     22  C   UNL     1      -3.832  -2.394  23.908  0.00  0.00    +0.001 C 
ATOM     23  C   UNL     1      -4.219  -1.667  23.941  0.00  0.00    +0.017 C 
ENDBRANCH  17  18
ENDBRANCH  16  17
TORSDOF 4
ENDMDL
MODEL 2
REMARK VINA RESULT:      -9.7      1.875      5.547
REMARK  Name = 
REMARK  4 active torsions:
REMARK  status: ('A' for Active; 'I' for Inactive)
REMARK    1  A    between atoms: C_3  and  C_4
REMARK    2  A    between atoms: C_4  and  N_5
REMARK    3  A    between atoms: C_16  and  N_17
REMARK    4  A    between atoms: N_17  and  C_18
REMARK                            x       y       z     vdW  Elec       q    Type
REMARK                         _______ _______ _______ _____ _____    ______ ____
ROOT
ATOM      1  O   UNL     1      -0.622   1.076  26.128  0.00  0.00    -0.219 OA
ATOM      2  C   UNL     1      -0.907   1.329  25.396  0.00  0.00    +0.199 C 
ATOM      3  C   UNL     1      -1.224   0.848  24.807  0.00  0.00    +0.169 C 
ATOM     14  O   UNL     1      -1.438   1.329  24.171  0.00  0.00    -0.350 OA
ATOM     15  C   UNL     1      -1.254   2.109  24.369  0.00  0.00    +0.162 C 
ATOM     16  C   UNL     1      -0.925   2.109  25.126  0.00  0.00    +0.135 C 
ENDROOT
BRANCH   3   4
ATOM      4  C   UNL     1      -1.311   0.028  24.845  0.00  0.00    +0.149 C 
BRANCH   4   5
ATOM      5  N   UNL     1      -2.033  -0.320  24.648  0.00  0.00    -0.186 NA
ATOM      6  C   UNL     1      -2.113  -1.140  24.664  0.00  0.00    +0.323 C 
ATOM      7  O   UNL     1      -1.472  -1.614  24.877  0.00  0.00    -0.251 OA
ATOM      8  N   UNL     1      -2.835  -1.488  24.467  0.00  0.00    -0.258 N 
ATOM      9  C   UNL     1      -2.916  -2.309  24.483  0.00  0.00    +0.127 C 
ATOM     10  C   UNL     1      -3.637  -2.656  24.286  0.00  0.00    +0.164 C 
ATOM     11  O   UNL     1      -4.279  -2.183  24.074  0.00  0.00    -0.350 OA
ATOM     12  C   UNL     1      -4.198  -1.362  24.058  0.00  0.00    +0.164 C 
ATOM     13  C   UNL     1      -3.477  -1.015  24.254  0.00  0.00    +0.127 C 
ENDBRANCH   4   5
ENDBRANCH   3   4
BRANCH  16  17
ATOM     17  N   UNL     1      -0.662   2.772  25.540  0.00  0.00    -0.216 NA
BRANCH  17  18
ATOM     18  C   UNL     1      -1.033   3.501  25.432  0.00  0.00    +0.073 C 
ATOM     19  C   UNL     1      -1.762   3.649  25.788  0.00  0.00    +0.017 C 
ATOM     20  C   UNL     1      -2.133   4.378  25.680  0.00  0.00    +0.001 C 
ATOM     21  C   UNL     1      -1.775   4.959  25.216  0.00  0.00    +0.000 C 
ATOM     22  C   UNL     1      -1.045   4.810  24.860  0.00  0.00    +0.001 C 
ATOM     23  C   UNL     1      -0.675   4.081  24.969  0.00  0.00    +0.017 C 
ENDBRANCH  17  18
ENDBRANCH  16  17
TORSDOF 4
ENDMDL
MODEL 3
REMARK VINA RESULT:      -9.5      1.173      1.655
REMARK  Name = 
REMARK  4 active torsions:
REMARK  status: ('A' for Active; 'I' for Inactive)
REMARK    1  A    between atoms: C_3  and  C_4
REMARK    2  A    between atoms: C_4  and  N_5
REMARK    3  A    between atoms: C_16  and  N_17
REMARK    4  A    between atoms: N_17  and  C_18
REMARK                            x       y       z     vdW  Elec       q    Type
REMARK                         _______ _______ _______ _____ _____    ______ ____
ROOT
ATOM      1  O   UNL     1      -1.731   0.029  25.817  0.00  0.00    -0.219 OA
ATOM      2  C   UNL     1      -2.254   0.270  25.227  0.00  0.00    +0.199 C 
ATOM      3  C   UNL     1      -2.167   0.931  24.741  0.00  0.00    +0.169 C 
ATOM     14  O   UNL     1      -2.817   0.962  24.233  0.00  0.00    -0.350 OA
ATOM     15  C   UNL     1      -3.305   0.319  24.404  0.00  0.00    +0.162 C 
ATOM     16  C   UNL     1      -2.957  -0.109  25.018  0.00  0.00    +0.135 C 
ENDROOT
BRANCH   3   4
ATOM      4  C   UNL     1      -1.541   1.468  24.761  0.00  0.00    +0.149 C 
BRANCH   4   5
ATOM      5  N   UNL     1      -1.686   2.265  24.919  0.00  0.00    -0.186 NA
ATOM      6  C   UNL     1      -1.097   2.825  24.783  0.00  0.00    +0.323 C 
ATOM      7  O   UNL     1      -0.362   2.590  24.488  0.00  0.00    -0.251 OA
ATOM      8  N   UNL     1      -1.241   3.623  24.940  0.00  0.00    -0.258 N 
ATOM      9  C   UNL     1      -0.652   4.184  24.804  0.00  0.00    +0.127 C 
ATOM     10  C   UNL     1      -0.796   4.980  24.962  0.00  0.00    +0.164 C 
ATOM     11  O   UNL     1      -1.530   5.216  25.256  0.00  0.00    -0.350 OA
ATOM     12  C   UNL     1      -2.119   4.655  25.392  0.00  0.00    +0.164 C 
ATOM     13  C   UNL     1      -1.975   3.858  25.235  0.00  0.00    +0.127 C 
ENDBRANCH   4   5
ENDBRANCH   3   4
BRANCH  16  17
ATOM     17  N   UNL     1      -3.260  -0.794  25.363  0.00  0.00    -0.216 NA
BRANCH  17  18
ATOM     18  C   UNL     1      -3.480  -1.432  24.889  0.00  0.00    +0.073 C 
ATOM     19  C   UNL     1      -4.141  -1.374  24.400  0.00  0.00    +0.017 C 
ATOM     20  C   UNL     1      -4.362  -2.013  23.926  0.00  0.00    +0.001 C 
ATOM     21  C   UNL     1      -3.921  -2.709  23.942  0.00  0.00    +0.000 C 
ATOM     22  C   UNL     1      -3.259  -2.768  24.432  0.00  0.00    +0.001 C 
ATOM     23  C   UNL     1      -3.039  -2.129  24.906  0.00  0.00    +0.017 C 
ENDBRANCH  17  18
ENDBRANCH  16  17
TORSDOF 4
ENDMDL
MODEL 4
REMARK VINA RESULT:      -9.1      1.314      5.137
REMARK  Name = 
REMARK  4 active torsions:
REMARK  status: ('A' for Active; 'I' for Inactive)
REMARK    1  A    between atoms: C_3  and  C_4
REMARK    2  A    between atoms: C_4  and  N_5
REMARK    3  A    between atoms: C_16  and  N_17
REMARK    4  A    between atoms: N_17  and  C_18
REMARK                            x       y       z     vdW  Elec       q    Type
REMARK                         _______ _______ _______ _____ _____    ______ ____
ROOT
ATOM      1  O   UNL     1      -4.897   1.877  24.837  0.00  0.00    -0.219 OA
ATOM      2  C   UNL     1      -4.157   1.844  24.475  0.00  0.00    +0.199 C 
ATOM      3  C   UNL     1      -3.791   1.167  24.180  0.00  0.00    +0.169 C 
ATOM     14  O   UNL     1      -3.059   1.388  23.867  0.00  0.00    -0.350 OA
ATOM     15  C   UNL     1      -2.974   2.202  23.968  0.00  0.00    +0.162 C 
ATOM     16  C   UNL     1      -3.652   2.485  24.344  0.00  0.00    +0.135 C 
ENDROOT
BRANCH   3   4
ATOM      4  C   UNL     1      -4.101   0.402  24.195  0.00  0.00    +0.149 C 
BRANCH   4   5
ATOM      5  N   UNL     1      -3.601  -0.244  24.310  0.00  0.00    -0.186 NA
ATOM      6  C   UNL     1      -3.901  -1.010  24.268  0.00  0.00    +0.323 C 
ATOM      7  O   UNL     1      -4.702  -1.132  24.111  0.00  0.00    -0.251 OA
ATOM      8  N   UNL     1      -3.401  -1.657  24.384  0.00  0.00    -0.258 N 
ATOM      9  C   UNL     1      -3.702  -2.423  24.341  0.00  0.00    +0.127 C 
ATOM     10  C   UNL     1      -3.202  -3.069  24.457  0.00  0.00    +0.164 C 
ATOM     11  O   UNL     1      -2.401  -2.948  24.614  0.00  0.00    -0.350 OA
ATOM     12  C   UNL     1      -2.100  -2.181  24.656  0.00  0.00    +0.164 C 
ATOM     13  C   UNL     1      -2.601  -1.535  24.541  0.00  0.00    +0.127 C 
ENDBRANCH   4   5
ENDBRANCH   3   4
BRANCH  16  17
ATOM     17  N   UNL     1      -3.800   3.268  24.553  0.00  0.00    -0.216 NA
BRANCH  17  18
ATOM     18  C   UNL     1      -3.230   3.700  24.965  0.00  0.00    +0.073 C 
ATOM     19  C   UNL     1      -2.624   4.081  24.556  0.00  0.00    +0.017 C 
ATOM     20  C   UNL     1      -2.055   4.513  24.968  0.00  0.00    +0.001 C 
ATOM     21  C   UNL     1      -2.092   4.564  25.791  0.00  0.00    +0.000 C 
ATOM     22  C   UNL     1      -2.699   4.183  26.201  0.00  0.00    +0.001 C 
ATOM     23  C   UNL     1      -3.268   3.752  25.788  0.00  0.00    +0.017 C 
ENDBRANCH  17  18
ENDBRANCH  16  17
TORSDOF 4
ENDMDL
MODEL 5
REMARK VINA RESULT:      -8.5      2.402      4.445
REMARK  Name = 
REMARK  4 active torsions:
REMARK  status: ('A' for Active; 'I' for Inactive)
REMARK    1  A    between atoms: C_3  and  C_4
REMARK    2  A    between atoms: C_4  and  N_5
REMARK    3  A    between atoms: C_16  and  N_17
REMARK    4  A    between atoms: N_17  and  C_18
REMARK                            x       y       z     vdW  Elec       q    Type
REMARK                         _______ _______ _______ _____ _____    ______ ____
ROOT
ATOM      1  O   UNL     1      -3.066   2.010  23.107  0.00  0.00    -0.219 OA
ATOM      2  C   UNL     1      -2.834   2.308  23.841  0.00  0.00    +0.199 C 
ATOM      3  C   UNL     1      -2.133   2.130  24.237  0.00  0.00    +0.169 C 
ATOM     14  O   UNL     1      -2.128   2.548  24.949  0.00  0.00    -0.350 OA
ATOM     15  C   UNL     1      -2.828   2.983  24.993  0.00  0.00    +0.162 C 
ATOM     16  C   UNL     1      -3.264   2.835  24.308  0.00  0.00    +0.135 C 
ENDROOT
BRANCH   3   4
ATOM      4  C   UNL     1      -1.539   1.624  23.968  0.00  0.00    +0.149 C 
BRANCH   4   5
ATOM      5  N   UNL     1      -1.405   0.906  24.350  0.00  0.00    -0.186 NA
ATOM      6  C   UNL     1      -0.786   0.419  24.107  0.00  0.00    +0.323 C 
ATOM      7  O   UNL     1      -0.300   0.650  23.481  0.00  0.00    -0.251 OA
ATOM      8  N   UNL     1      -0.651  -0.301  24.489  0.00  0.00    -0.258 N 
ATOM      9  C   UNL     1      -0.032  -0.788  24.246  0.00  0.00    +0.127 C 
ATOM     10  C   UNL     1       0.102  -1.506  24.628  0.00  0.00    +0.164 C 
ATOM     11  O   UNL     1      -0.384  -1.738  25.253  0.00  0.00    -0.350 OA
ATOM     12  C   UNL     1      -1.004  -1.250  25.497  0.00  0.00    +0.164 C 
ATOM     13  C   UNL     1      -1.137  -0.532  25.114  0.00  0.00    +0.127 C 
ENDBRANCH   4   5
ENDBRANCH   3   4
BRANCH  16  17
ATOM     17  N   UNL     1      -4.000   3.157  24.123  0.00  0.00    -0.216 NA
BRANCH  17  18
ATOM     18  C   UNL     1      -4.625   3.095  24.659  0.00  0.00    +0.073 C 
ATOM     19  C   UNL     1      -5.099   2.420  24.665  0.00  0.00    +0.017 C 
ATOM     20  C   UNL     1      -5.723   2.358  25.200  0.00  0.00    +0.001 C 
ATOM     21  C   UNL     1      -5.873   2.972  25.731  0.00  0.00    +0.000 C 
ATOM     22  C   UNL     1      -5.399   3.647  25.726  0.00  0.00    +0.001 C 
ATOM     23  C   UNL     1      -4.775   3.708  25.190  0.00  0.00    +0.017 C 
ENDBRANCH  17  18
ENDBRANCH  16  17
TORSDOF 4
ENDMDL
MODEL 6
REMARK VINA RESULT:      -8.2      1.727      2.410
REMARK  Name = 
REMARK  4 active torsions:
REMARK  status: ('A' for Active; 'I' for Inactive)
REMARK    1  A    between atoms: C_3  and  C_4
REMARK    2  A    between atoms: C_4  and  N_5
REMARK    3  A    between atoms: C_16  and  N_17
REMARK    4  A    between atoms: N_17  and  C_18
REMARK                            x       y       z     vdW  Elec       q    Type
REMARK                         _______ _______ _______ _____ _____    ______ ____
ROOT
ATOM      1  O   UNL     1      -1.840   0.662  25.560  0.00  0.00    -0.219 OA
ATOM      2  C   UNL     1      -2.327   0.482  24.920  0.00  0.00    +0.199 C 
ATOM      3  C   UNL     1      -2.804   1.014  24.508  0.00  0.00    +0.169 C 
ATOM     14  O   UNL     1      -3.196   0.598  23.912  0.00  0.00    -0.350 OA
ATOM     15  C   UNL     1      -2.961  -0.192  23.956  0.00  0.00    +0.162 C 
ATOM     16  C   UNL     1      -2.424  -0.264  24.579  0.00  0.00    +0.135 C 
ENDROOT
BRANCH   3   4
ATOM      4  C   UNL     1      -2.877   1.821  24.664  0.00  0.00    +0.149 C 
BRANCH   4   5
ATOM      5  N   UNL     1      -3.598   2.128  24.920  0.00  0.00    -0.186 NA
ATOM      6  C   UNL     1      -3.704   2.945  24.969  0.00  0.00    +0.323 C 
ATOM      7  O   UNL     1      -3.089   3.454  24.763  0.00  0.00    -0.251 OA
ATOM      8  N   UNL     1      -4.426   3.253  25.226  0.00  0.00    -0.258 N 
ATOM      9  C   UNL     1      -4.532   4.069  25.275  0.00  0.00    +0.127 C 
ATOM     10  C   UNL     1      -5.254   4.376  25.531  0.00  0.00    +0.164 C 
ATOM     11  O   UNL     1      -5.869   3.867  25.738  0.00  0.00    -0.350 OA
ATOM     12  C   UNL     1      -5.763   3.050  25.688  0.00  0.00    +0.164 C 
ATOM     13  C   UNL     1      -5.041   2.743  25.432  0.00  0.00    +0.127 C 
ENDBRANCH   4   5
ENDBRANCH   3   4
BRANCH  16  17
ATOM     17  N   UNL     1      -2.050  -0.958  24.818  0.00  0.00    -0.216 NA
BRANCH  17  18
ATOM     18  C   UNL     1      -2.462  -1.673  24.811  0.00  0.00    +0.073 C 
ATOM     19  C   UNL     1      -3.053  -1.814  25.369  0.00  0.00    +0.017 C 
ATOM     20  C   UNL     1      -3.465  -2.529  25.362  0.00  0.00    +0.001 C 
ATOM     21  C   UNL     1      -3.286  -3.103  24.796  0.00  0.00    +0.000 C 
ATOM     22  C   UNL     1      -2.695  -2.961  24.238  0.00  0.00    +0.001 C 
ATOM     23  C   UNL     1      -2.283  -2.247  24.246  0.00  0.00    +0.017 C 
ENDBRANCH  17  18
ENDBRANCH  16  17
TORSDOF 4
ENDMDL
MODEL 7
REMARK VINA RESULT:      -8.0      2.127      3.033
REMARK  Name = 
REMARK  4 active torsions:
REMARK  status: ('A' for Active; 'I' for Inactive)
REMARK    1  A    between atoms: C_3  and  C_4
REMARK    2  A    between atoms: C_4  and  N_5
REMARK    3  A    between atoms: C_16  and  N_17
REMARK    4  A    between atoms: N_17  and  C_18
REMARK                            x       y       z     vdW  Elec       q    Type
REMARK                         _______ _______ _______ _____ _____    ______ ____
ROOT
ATOM      1  O   UNL     1      -1.771   1.269  23.413  0.00  0.00    -0.219 OA
ATOM      2  C   UNL     1      -1.630   1.184  24.221  0.00  0.00    +0.199 C 
ATOM      3  C   UNL     1      -1.884   1.696  24.815  0.00  0.00    +0.169 C 
ATOM     14  O   UNL     1      -1.621   1.400  25.539  0.00  0.00    -0.350 OA
ATOM     15  C   UNL     1      -1.203   0.703  25.392  0.00  0.00    +0.162 C 
ATOM     16  C   UNL     1      -1.209   0.569  24.577  0.00  0.00    +0.135 C 
ENDROOT
BRANCH   3   4
ATOM      4  C   UNL     1      -2.325   2.385  24.705  0.00  0.00    +0.149 C 
BRANCH   4   5
ATOM      5  N   UNL     1      -3.115   2.411  24.938  0.00  0.00    -0.186 NA
ATOM      6  C   UNL     1      -3.505   3.136  24.996  0.00  0.00    +0.323 C 
ATOM      7  O   UNL     1      -3.104   3.835  24.820  0.00  0.00    -0.251 OA
ATOM      8  N   UNL     1      -4.296   3.162  25.229  0.00  0.00    -0.258 N 
ATOM      9  C   UNL     1      -4.685   3.887  25.287  0.00  0.00    +0.127 C 
ATOM     10  C   UNL     1      -5.476   3.912  25.520  0.00  0.00    +0.164 C 
ATOM     11  O   UNL     1      -5.878   3.213  25.696  0.00  0.00    -0.350 OA
ATOM     12  C   UNL     1      -5.488   2.488  25.638  0.00  0.00    +0.164 C 
ATOM     13  C   UNL     1      -4.697   2.463  25.405  0.00  0.00    +0.127 C 
ENDBRANCH   4   5
ENDBRANCH   3   4
BRANCH  16  17
ATOM     17  N   UNL     1      -0.856  -0.066  24.188  0.00  0.00    -0.216 NA
BRANCH  17  18
ATOM     18  C   UNL     1      -0.957  -0.833  24.475  0.00  0.00    +0.073 C 
ATOM     19  C   UNL     1      -1.619  -1.273  24.256  0.00  0.00    +0.017 C 
ATOM     20  C   UNL     1      -1.719  -2.040  24.543  0.00  0.00    +0.001 C 
ATOM     21  C   UNL     1      -1.156  -2.368  25.048  0.00  0.00    +0.000 C 
ATOM     22  C   UNL     1      -0.492  -1.928  25.267  0.00  0.00    +0.001 C 
ATOM     23  C   UNL     1      -0.393  -1.161  24.980  0.00  0.00    +0.017 C 
ENDBRANCH  17  18
ENDBRANCH  16  17
TORSDOF 4
ENDMDL
MODEL 8
REMARK VINA RESULT:      -7.8      3.066      3.581
REMARK  Name = 
REMARK  4 active torsions:
REMARK  status: ('A' for Active; 'I' for Inactive)
REMARK    1  A    between atoms: C_3  and  C_4
REMARK    2  A    between atoms: C_4  and  N_5
REMARK    3  A    between atoms: C_16  and  N_17
REMARK    4  A    between atoms: N_17  and  C_18
REMARK                            x       y       z     vdW  Elec       q    Type
REMARK                         _______ _______ _______ _____ _____    ______ ____
ROOT
ATOM      1  O   UNL     1      -1.397  -0.091  25.736  0.00  0.00    -0.219 OA
ATOM      2  C   UNL     1      -1.755   0.171  25.041  0.00  0.00    +0.199 C 
ATOM      3  C   UNL     1      -1.405   0.644  24.463  0.00  0.00    +0.169 C 
ATOM     14  O   UNL     1      -1.961   0.772  23.866  0.00  0.00    -0.350 OA
ATOM     15  C   UNL     1      -2.655   0.378  24.075  0.00  0.00    +0.162 C 
ATOM     16  C   UNL     1      -2.528   0.006  24.801  0.00  0.00    +0.135 C 
ENDROOT
BRANCH   3   4
ATOM      4  C   UNL     1      -0.634   0.938  24.479  0.00  0.00    +0.149 C 
BRANCH   4   5
ATOM      5  N   UNL     1      -0.064   0.630  23.968  0.00  0.00    -0.186 NA
ATOM      6  C   UNL     1       0.678   0.985  23.918  0.00  0.00    +0.323 C 
ATOM      7  O   UNL     1       0.852   1.648  24.378  0.00  0.00    -0.251 OA
ATOM      8  N   UNL     1       1.249   0.677  23.406  0.00  0.00    -0.258 N 
ATOM      9  C   UNL     1       1.992   1.032  23.356  0.00  0.00    +0.127 C 
ATOM     10  C   UNL     1       2.561   0.724  22.845  0.00  0.00    +0.164 C 
ATOM     11  O   UNL     1       2.388   0.061  22.385  0.00  0.00    -0.350 OA
ATOM     12  C   UNL     1       1.645  -0.294  22.436  0.00  0.00    +0.164 C 
ATOM     13  C   UNL     1       1.075   0.014  22.947  0.00  0.00    +0.127 C 
ENDBRANCH   4   5
ENDBRANCH   3   4
BRANCH  16  17
ATOM     17  N   UNL     1      -3.076  -0.450  25.215  0.00  0.00    -0.216 NA
BRANCH  17  18
ATOM     18  C   UNL     1      -3.422  -1.108  24.855  0.00  0.00    +0.073 C 
ATOM     19  C   UNL     1      -4.047  -1.009  24.328  0.00  0.00    +0.017 C 
ATOM     20  C   UNL     1      -4.393  -1.666  23.968  0.00  0.00    +0.001 C 
ATOM     21  C   UNL     1      -4.111  -2.423  24.137  0.00  0.00    +0.000 C 
ATOM     22  C   UNL     1      -3.485  -2.523  24.665  0.00  0.00    +0.001 C 
ATOM     23  C   UNL     1      -3.140  -1.865  25.024  0.00  0.00    +0.017 C 
ENDBRANCH  17  18
ENDBRANCH  16  17
TORSDOF 4
ENDMDL
MODEL 9
REMARK VINA RESULT:      -6.8     14.433     16.886
REMARK  Name = 
REMARK  4 active torsions:
REMARK  status: ('A' for Active; 'I' for Inactive)
REMARK    1  A    between atoms: C_3  and  C_4
REMARK    2  A    between atoms: C_4  and  N_5
REMARK    3  A    between atoms: C_16  and  N_17
REMARK    4  A    between atoms: N_17  and  C_18
REMARK                            x       y       z     vdW  Elec       q    Type
REMARK                         _______ _______ _______ _____ _____    ______ ____
ROOT
ATOM      1  O   UNL     1      -1.868 -10.560  12.702  0.00  0.00    -0.219 OA
ATOM      2  C   UNL     1      -2.687 -10.524  12.611  0.00  0.00    +0.199 C 
ATOM      3  C   UNL     1      -3.245 -10.578  13.215  0.00  0.00    +0.169 C 
ATOM     14  O   UNL     1      -3.995 -10.515  12.877  0.00  0.00    -0.350 OA
ATOM     15  C   UNL     1      -3.900 -10.423  12.062  0.00  0.00    +0.162 C 
ATOM     16  C   UNL     1      -3.091 -10.429  11.898  0.00  0.00    +0.135 C 
ENDROOT
BRANCH   3   4
ATOM      4  C   UNL     1      -3.082 -10.677  14.019  0.00  0.00    +0.149 C 
BRANCH   4   5
ATOM      5  N   UNL     1      -3.684 -10.586  14.576  0.00  0.00    -0.186 NA
ATOM      6  C   UNL     1      -3.511 -10.638  15.380  0.00  0.00    +0.323 C 
ATOM      7  O   UNL     1      -2.738 -10.781  15.629  0.00  0.00    -0.251 OA
ATOM      8  N   UNL     1      -4.113 -10.547  15.938  0.00  0.00    -0.258 N 
ATOM      9  C   UNL     1      -3.941 -10.599  16.743  0.00  0.00    +0.127 C 
ATOM     10  C   UNL     1      -4.542 -10.509  17.300  0.00  0.00    +0.164 C 
ATOM     11  O   UNL     1      -5.316 -10.365  17.053  0.00  0.00    -0.350 OA
ATOM     12  C   UNL     1      -5.488 -10.313  16.247  0.00  0.00    +0.164 C 
ATOM     13  C   UNL     1      -4.887 -10.404  15.690  0.00  0.00    +0.127 C 
ENDBRANCH   4   5
ENDBRANCH   3   4
BRANCH  16  17
ATOM     17  N   UNL     1      -2.748 -10.352  11.152  0.00  0.00    -0.216 NA
BRANCH  17  18
ATOM     18  C   UNL     1      -3.185 -10.038  10.527  0.00  0.00    +0.073 C 
ATOM     19  C   UNL     1      -3.156  -9.229  10.369  0.00  0.00    +0.017 C 
ATOM     20  C   UNL     1      -3.592  -8.914   9.743  0.00  0.00    +0.001 C 
ATOM     21  C   UNL     1      -4.058  -9.409   9.275  0.00  0.00    +0.000 C 
ATOM     22  C   UNL     1      -4.087 -10.219   9.433  0.00  0.00    +0.001 C 
ATOM     23  C   UNL     1      -3.650 -10.533  10.059  0.00  0.00    +0.017 C 
ENDBRANCH  17  18
ENDBRANCH  16  17
TORSDOF 4
ENDMDL
