MODEL 1
REMARK VINA RESULT:     -14.9      0.000      0.000
REMARK  Name = 
REMARK  1 active torsions:
REMARK  status: ('A' for Active; 'I' for Inactive)
REMARK    1  A    between atoms: C_11  and  C_18
REMARK                            x       y       z     vdW  Elec       q    Type
REMARK                         _______ _______ _______ _____ _____    ______ ____
ROOT
ATOM      1  O   UNL     1      -5.950   4.094  25.783  0.00  0.00    -0.221 OA
ATOM      2  C   UNL     1      -5.391   3.551  25.513  0.00  0.00    +0.174 C 
ATOM      3  C   UNL     1      -4.647   3.734  25.207  0.00  0.00    +0.064 C 
ATOM      4  C   UNL     1      -4.273   3.027  25.006  0.00  0.00    +0.157 C 
ATOM      5  N   UNL     1      -4.785   2.407  25.187  0.00  0.00    -0.267 N 
ATOM      6  C   UNL     1      -5.477   2.731  25.501  0.00  0.00    +0.127 C 
ATOM      7  C   UNL     1      -4.668   1.596  25.089  0.00  0.00    +0.251 C 
ATOM      8  O   UNL     1      -5.293   1.113  25.326  0.00  0.00    -0.270 OA
ATOM      9  C   UNL     1      -4.008   1.206  24.785  0.00  0.00    +0.069 A 
ATOM     10  C   UNL     1      -4.117   0.388  24.783  0.00  0.00    +0.006 A 
ATOM     11  C   UNL     1      -3.520  -0.107  24.500  0.00  0.00    +0.002 A 
ATOM     12  C   UNL     1      -2.815   0.217  24.219  0.00  0.00    +0.001 A 
ATOM     13  C   UNL     1      -2.706   1.035  24.221  0.00  0.00    +0.017 A 
ATOM     14  C   UNL     1      -3.303   1.528  24.504  0.00  0.00    +0.078 A 
ATOM     15  N   UNL     1      -3.084   2.323  24.458  0.00  0.00    -0.178 NA
ATOM     16  C   UNL     1      -3.516   2.989  24.681  0.00  0.00    +0.264 C 
ATOM     17  O   UNL     1      -3.140   3.715  24.564  0.00  0.00    -0.271 OA
ENDROOT
BRANCH  11  18
ATOM     18  C   UNL     1      -3.628  -0.924  24.497  0.00  0.00    +0.028 A 
ATOM     19  C   UNL     1      -3.331  -1.382  25.117  0.00  0.00    +0.142 A 
ATOM     20  F   UNL     1      -2.925  -1.021  25.738  0.00  0.00    -0.204 F 
ATOM     21  C   UNL     1      -3.439  -2.199  25.115  0.00  0.00    +0.059 A 
ATOM     22  C   UNL     1      -3.844  -2.560  24.493  0.00  0.00    +0.142 A 
ATOM     23  F   UNL     1      -3.952  -3.379  24.491  0.00  0.00    -0.204 F 
ATOM     24  C   UNL     1      -4.141  -2.103  23.875  0.00  0.00    +0.030 A 
ATOM     25  C   UNL     1      -4.033  -1.286  23.877  0.00  0.00    +0.005 A 
ENDBRANCH  11  18
TORSDOF 1
ENDMDL
MODEL 2
REMARK VINA RESULT:     -14.7      1.005      1.906
REMARK  Name = 
REMARK  1 active torsions:
REMARK  status: ('A' for Active; 'I' for Inactive)
REMARK    1  A    between atoms: C_11  and  C_18
REMARK                            x       y       z     vdW  Elec       q    Type
REMARK                         _______ _______ _______ _____ _____    ______ ____
ROOT
ATOM      1  O   UNL     1      -1.325   4.305  24.994  0.00  0.00    -0.221 OA
ATOM      2  C   UNL     1      -1.939   3.754  25.006  0.00  0.00    +0.174 C 
ATOM      3  C   UNL     1      -2.736   3.919  25.135  0.00  0.00    +0.064 C 
ATOM      4  C   UNL     1      -3.154   3.209  25.100  0.00  0.00    +0.157 C 
ATOM      5  N   UNL     1      -2.614   2.604  24.950  0.00  0.00    -0.267 N 
ATOM      6  C   UNL     1      -1.862   2.940  24.892  0.00  0.00    +0.127 C 
ATOM      7  C   UNL     1      -2.757   1.796  24.866  0.00  0.00    +0.251 C 
ATOM      8  O   UNL     1      -2.094   1.328  24.717  0.00  0.00    -0.270 OA
ATOM      9  C   UNL     1      -3.476   1.393  24.911  0.00  0.00    +0.069 A 
ATOM     10  C   UNL     1      -3.376   0.583  24.794  0.00  0.00    +0.006 A 
ATOM     11  C   UNL     1      -4.029   0.079  24.817  0.00  0.00    +0.002 A 
ATOM     12  C   UNL     1      -4.782   0.386  24.958  0.00  0.00    +0.001 A 
ATOM     13  C   UNL     1      -4.882   1.197  25.075  0.00  0.00    +0.017 A 
ATOM     14  C   UNL     1      -4.229   1.700  25.051  0.00  0.00    +0.078 A 
ATOM     15  N   UNL     1      -4.449   2.485  25.181  0.00  0.00    -0.178 NA
ATOM     16  C   UNL     1      -3.970   3.156  25.203  0.00  0.00    +0.264 C 
ATOM     17  O   UNL     1      -4.361   3.869  25.347  0.00  0.00    -0.271 OA
ENDROOT
BRANCH  11  18
ATOM     18  C   UNL     1      -3.929  -0.731  24.700  0.00  0.00    +0.028 A 
ATOM     19  C   UNL     1      -3.712  -1.216  25.332  0.00  0.00    +0.142 A 
ATOM     20  F   UNL     1      -3.594  -0.890  26.081  0.00  0.00    -0.204 F 
ATOM     21  C   UNL     1      -3.612  -2.026  25.215  0.00  0.00    +0.059 A 
ATOM     22  C   UNL     1      -3.729  -2.353  24.467  0.00  0.00    +0.142 A 
ATOM     23  F   UNL     1      -3.629  -3.164  24.350  0.00  0.00    -0.204 F 
ATOM     24  C   UNL     1      -3.947  -1.868  23.836  0.00  0.00    +0.030 A 
ATOM     25  C   UNL     1      -4.046  -1.058  23.953  0.00  0.00    +0.005 A 
ENDBRANCH  11  18
TORSDOF 1
ENDMDL
MODEL 3
REMARK VINA RESULT:     -13.0      2.541      4.656
REMARK  Name = 
REMARK  1 active torsions:
REMARK  status: ('A' for Active; 'I' for Inactive)
REMARK    1  A    between atoms: C_11  and  C_18
REMARK                            x       y       z     vdW  Elec       q    Type
REMARK                         _______ _______ _______ _____ _____    ______ ____
ROOT
ATOM      1  O   UNL     1      -0.024  -1.856  25.372  0.00  0.00    -0.221 OA
ATOM      2  C   UNL     1      -0.794  -1.626  25.186  0.00  0.00    +0.174 C 
ATOM      3  C   UNL     1      -1.375  -2.105  24.848  0.00  0.00    +0.064 C 
ATOM      4  C   UNL     1      -2.058  -1.653  24.758  0.00  0.00    +0.157 C 
ATOM      5  N   UNL     1      -1.900  -0.893  25.039  0.00  0.00    -0.267 N 
ATOM      6  C   UNL     1      -1.118  -0.877  25.304  0.00  0.00    +0.127 C 
ATOM      7  C   UNL     1      -2.403  -0.240  25.069  0.00  0.00    +0.251 C 
ATOM      8  O   UNL     1      -2.077   0.449  25.384  0.00  0.00    -0.270 OA
ATOM      9  C   UNL     1      -3.189  -0.185  24.824  0.00  0.00    +0.069 A 
ATOM     10  C   UNL     1      -3.492   0.571  24.951  0.00  0.00    +0.006 A 
ATOM     11  C   UNL     1      -4.272   0.744  24.744  0.00  0.00    +0.002 A 
ATOM     12  C   UNL     1      -4.748   0.159  24.410  0.00  0.00    +0.001 A 
ATOM     13  C   UNL     1      -4.445  -0.598  24.282  0.00  0.00    +0.017 A 
ATOM     14  C   UNL     1      -3.666  -0.769  24.490  0.00  0.00    +0.078 A 
ATOM     15  N   UNL     1      -3.474  -1.554  24.317  0.00  0.00    -0.178 NA
ATOM     16  C   UNL     1      -2.758  -1.946  24.437  0.00  0.00    +0.264 C 
ATOM     17  O   UNL     1      -2.742  -2.738  24.203  0.00  0.00    -0.271 OA
ENDROOT
BRANCH  11  18
ATOM     18  C   UNL     1      -4.575   1.500  24.871  0.00  0.00    +0.028 A 
ATOM     19  C   UNL     1      -5.125   1.628  25.474  0.00  0.00    +0.142 A 
ATOM     20  F   UNL     1      -5.370   1.001  25.949  0.00  0.00    -0.204 F 
ATOM     21  C   UNL     1      -5.428   2.385  25.601  0.00  0.00    +0.059 A 
ATOM     22  C   UNL     1      -5.182   3.013  25.126  0.00  0.00    +0.142 A 
ATOM     23  F   UNL     1      -5.486   3.770  25.254  0.00  0.00    -0.204 F 
ATOM     24  C   UNL     1      -4.634   2.885  24.524  0.00  0.00    +0.030 A 
ATOM     25  C   UNL     1      -4.331   2.128  24.397  0.00  0.00    +0.005 A 
ENDBRANCH  11  18
TORSDOF 1
ENDMDL
MODEL 4
REMARK VINA RESULT:     -12.7      2.755      4.902
REMARK  Name = 
REMARK  1 active torsions:
REMARK  status: ('A' for Active; 'I' for Inactive)
REMARK    1  A    between atoms: C_11  and  C_18
REMARK                            x       y       z     vdW  Elec       q    Type
REMARK                         _______ _______ _______ _____ _____    ______ ____
ROOT
ATOM      1  O   UNL     1      -4.347  -1.438  23.947  0.00  0.00    -0.221 OA
ATOM      2  C   UNL     1      -3.739  -0.969  24.247  0.00  0.00    +0.174 C 
ATOM      3  C   UNL     1      -3.060  -1.241  24.628  0.00  0.00    +0.064 C 
ATOM      4  C   UNL     1      -2.603  -0.586  24.836  0.00  0.00    +0.157 C 
ATOM      5  N   UNL     1      -3.000   0.091  24.584  0.00  0.00    -0.267 N 
ATOM      6  C   UNL     1      -3.703  -0.145  24.219  0.00  0.00    +0.127 C 
ATOM      7  C   UNL     1      -2.773   0.880  24.661  0.00  0.00    +0.251 C 
ATOM      8  O   UNL     1      -3.296   1.436  24.348  0.00  0.00    -0.270 OA
ATOM      9  C   UNL     1      -2.091   1.187  25.010  0.00  0.00    +0.069 A 
ATOM     10  C   UNL     1      -2.077   2.011  24.971  0.00  0.00    +0.006 A 
ATOM     11  C   UNL     1      -1.440   2.428  25.290  0.00  0.00    +0.002 A 
ATOM     12  C   UNL     1      -0.818   2.021  25.648  0.00  0.00    +0.001 A 
ATOM     13  C   UNL     1      -0.832   1.196  25.687  0.00  0.00    +0.017 A 
ATOM     14  C   UNL     1      -1.469   0.780  25.368  0.00  0.00    +0.078 A 
ATOM     15  N   UNL     1      -1.375  -0.034  25.466  0.00  0.00    -0.178 NA
ATOM     16  C   UNL     1      -1.881  -0.642  25.229  0.00  0.00    +0.264 C 
ATOM     17  O   UNL     1      -1.628  -1.407  25.408  0.00  0.00    -0.271 OA
ENDROOT
BRANCH  11  18
ATOM     18  C   UNL     1      -1.425   3.252  25.251  0.00  0.00    +0.028 A 
ATOM     19  C   UNL     1      -0.933   3.630  24.705  0.00  0.00    +0.142 A 
ATOM     20  F   UNL     1      -0.458   3.184  24.200  0.00  0.00    -0.204 F 
ATOM     21  C   UNL     1      -0.919   4.453  24.666  0.00  0.00    +0.059 A 
ATOM     22  C   UNL     1      -1.395   4.900  25.172  0.00  0.00    +0.142 A 
ATOM     23  F   UNL     1      -1.380   5.724  25.132  0.00  0.00    -0.204 F 
ATOM     24  C   UNL     1      -1.885   4.521  25.716  0.00  0.00    +0.030 A 
ATOM     25  C   UNL     1      -1.900   3.698  25.755  0.00  0.00    +0.005 A 
ENDBRANCH  11  18
TORSDOF 1
ENDMDL
MODEL 5
REMARK VINA RESULT:     -12.5      2.436      4.838
REMARK  Name = 
REMARK  1 active torsions:
REMARK  status: ('A' for Active; 'I' for Inactive)
REMARK    1  A    between atoms: C_11  and  C_18
REMARK                            x       y       z     vdW  Elec       q    Type
REMARK                         _______ _______ _______ _____ _____    ______ ____
ROOT
ATOM      1  O   UNL     1      -2.184  -2.438  24.982  0.00  0.00    -0.221 OA
ATOM      2  C   UNL     1      -2.497  -1.682  24.880  0.00  0.00    +0.174 C 
ATOM      3  C   UNL     1      -3.256  -1.504  24.610  0.00  0.00    +0.064 C 
ATOM      4  C   UNL     1      -3.335  -0.683  24.593  0.00  0.00    +0.157 C 
ATOM      5  N   UNL     1      -2.625  -0.353  24.852  0.00  0.00    -0.267 N 
ATOM      6  C   UNL     1      -2.106  -0.971  25.029  0.00  0.00    +0.127 C 
ATOM      7  C   UNL     1      -2.426   0.443  24.933  0.00  0.00    +0.251 C 
ATOM      8  O   UNL     1      -1.663   0.596  25.208  0.00  0.00    -0.270 OA
ATOM      9  C   UNL     1      -2.889   1.107  24.776  0.00  0.00    +0.069 A 
ATOM     10  C   UNL     1      -2.479   1.805  24.932  0.00  0.00    +0.006 A 
ATOM     11  C   UNL     1      -2.845   2.535  24.811  0.00  0.00    +0.002 A 
ATOM     12  C   UNL     1      -3.621   2.566  24.534  0.00  0.00    +0.001 A 
ATOM     13  C   UNL     1      -4.032   1.868  24.377  0.00  0.00    +0.017 A 
ATOM     14  C   UNL     1      -3.665   1.139  24.499  0.00  0.00    +0.078 A 
ATOM     15  N   UNL     1      -4.171   0.513  24.310  0.00  0.00    -0.178 NA
ATOM     16  C   UNL     1      -4.022  -0.297  24.352  0.00  0.00    +0.264 C 
ATOM     17  O   UNL     1      -4.646  -0.787  24.122  0.00  0.00    -0.271 OA
ENDROOT
BRANCH  11  18
ATOM     18  C   UNL     1      -2.434   3.233  24.967  0.00  0.00    +0.028 A 
ATOM     19  C   UNL     1      -2.666   3.717  25.595  0.00  0.00    +0.142 A 
ATOM     20  F   UNL     1      -3.308   3.501  26.066  0.00  0.00    -0.204 F 
ATOM     21  C   UNL     1      -2.256   4.415  25.751  0.00  0.00    +0.059 A 
ATOM     22  C   UNL     1      -1.614   4.630  25.280  0.00  0.00    +0.142 A 
ATOM     23  F   UNL     1      -1.203   5.329  25.437  0.00  0.00    -0.204 F 
ATOM     24  C   UNL     1      -1.382   4.147  24.653  0.00  0.00    +0.030 A 
ATOM     25  C   UNL     1      -1.793   3.449  24.497  0.00  0.00    +0.005 A 
ENDBRANCH  11  18
TORSDOF 1
ENDMDL
MODEL 6
REMARK VINA RESULT:     -12.4      2.371      4.622
REMARK  Name = 
REMARK  1 active torsions:
REMARK  status: ('A' for Active; 'I' for Inactive)
REMARK    1  A    between atoms: C_11  and  C_18
REMARK                            x       y       z     vdW  Elec       q    Type
REMARK                         _______ _______ _______ _____ _____    ______ ____
ROOT
ATOM      1  O   UNL     1      -3.906  -3.403  24.244  0.00  0.00    -0.221 OA
ATOM      2  C   UNL     1      -3.548  -2.668  24.355  0.00  0.00    +0.174 C 
ATOM      3  C   UNL     1      -2.755  -2.538  24.537  0.00  0.00    +0.064 C 
ATOM      4  C   UNL     1      -2.636  -1.725  24.597  0.00  0.00    +0.157 C 
ATOM      5  N   UNL     1      -3.356  -1.351  24.452  0.00  0.00    -0.267 N 
ATOM      6  C   UNL     1      -3.921  -1.934  24.302  0.00  0.00    +0.127 C 
ATOM      7  C   UNL     1      -3.526  -0.543  24.447  0.00  0.00    +0.251 C 
ATOM      8  O   UNL     1      -4.309  -0.343  24.280  0.00  0.00    -0.270 OA
ATOM      9  C   UNL     1      -3.016   0.090  24.587  0.00  0.00    +0.069 A 
ATOM     10  C   UNL     1      -3.409   0.812  24.529  0.00  0.00    +0.006 A 
ATOM     11  C   UNL     1      -2.998   1.517  24.650  0.00  0.00    +0.002 A 
ATOM     12  C   UNL     1      -2.193   1.499  24.829  0.00  0.00    +0.001 A 
ATOM     13  C   UNL     1      -1.799   0.776  24.887  0.00  0.00    +0.017 A 
ATOM     14  C   UNL     1      -2.211   0.072  24.766  0.00  0.00    +0.078 A 
ATOM     15  N   UNL     1      -1.717  -0.584  24.850  0.00  0.00    -0.178 NA
ATOM     16  C   UNL     1      -1.907  -1.383  24.774  0.00  0.00    +0.264 C 
ATOM     17  O   UNL     1      -1.283  -1.911  24.892  0.00  0.00    -0.271 OA
ENDROOT
BRANCH  11  18
ATOM     18  C   UNL     1      -3.391   2.240  24.592  0.00  0.00    +0.028 A 
ATOM     19  C   UNL     1      -3.402   2.647  23.873  0.00  0.00    +0.142 A 
ATOM     20  F   UNL     1      -3.020   2.332  23.215  0.00  0.00    -0.204 F 
ATOM     21  C   UNL     1      -3.795   3.370  23.815  0.00  0.00    +0.059 A 
ATOM     22  C   UNL     1      -4.178   3.686  24.475  0.00  0.00    +0.142 A 
ATOM     23  F   UNL     1      -4.571   4.409  24.416  0.00  0.00    -0.204 F 
ATOM     24  C   UNL     1      -4.167   3.279  25.192  0.00  0.00    +0.030 A 
ATOM     25  C   UNL     1      -3.773   2.556  25.250  0.00  0.00    +0.005 A 
ENDBRANCH  11  18
TORSDOF 1
ENDMDL
MODEL 7
REMARK VINA RESULT:     -12.3      2.777      4.480
REMARK  Name = 
REMARK  1 active torsions:
REMARK  status: ('A' for Active; 'I' for Inactive)
REMARK    1  A    between atoms: C_11  and  C_18
REMARK                            x       y       z     vdW  Elec       q    Type
REMARK                         _______ _______ _______ _____ _____    ______ ____
ROOT
ATOM      1  O   UNL     1      -0.236  -1.804  25.376  0.00  0.00    -0.221 OA
ATOM      2  C   UNL     1      -0.587  -1.119  25.079  0.00  0.00    +0.174 C 
ATOM      3  C   UNL     1      -0.292  -0.649  24.469  0.00  0.00    +0.064 C 
ATOM      4  C   UNL     1      -0.817  -0.023  24.352  0.00  0.00    +0.157 C 
ATOM      5  N   UNL     1      -1.436  -0.106  24.891  0.00  0.00    -0.267 N 
ATOM      6  C   UNL     1      -1.294  -0.784  25.341  0.00  0.00    +0.127 C 
ATOM      7  C   UNL     1      -2.097   0.377  24.995  0.00  0.00    +0.251 C 
ATOM      8  O   UNL     1      -2.622   0.143  25.586  0.00  0.00    -0.270 OA
ATOM      9  C   UNL     1      -2.301   1.063  24.585  0.00  0.00    +0.069 A 
ATOM     10  C   UNL     1      -3.010   1.380  24.863  0.00  0.00    +0.006 A 
ATOM     11  C   UNL     1      -3.314   2.069  24.526  0.00  0.00    +0.002 A 
ATOM     12  C   UNL     1      -2.908   2.441  23.912  0.00  0.00    +0.001 A 
ATOM     13  C   UNL     1      -2.199   2.125  23.634  0.00  0.00    +0.017 A 
ATOM     14  C   UNL     1      -1.896   1.436  23.971  0.00  0.00    +0.078 A 
ATOM     15  N   UNL     1      -1.185   1.214  23.614  0.00  0.00    -0.178 NA
ATOM     16  C   UNL     1      -0.705   0.564  23.785  0.00  0.00    +0.264 C 
ATOM     17  O   UNL     1      -0.023   0.494  23.325  0.00  0.00    -0.271 OA
ENDROOT
BRANCH  11  18
ATOM     18  C   UNL     1      -4.023   2.386  24.804  0.00  0.00    +0.028 A 
ATOM     19  C   UNL     1      -4.013   3.044  25.303  0.00  0.00    +0.142 A 
ATOM     20  F   UNL     1      -3.296   3.384  25.523  0.00  0.00    -0.204 F 
ATOM     21  C   UNL     1      -4.723   3.361  25.580  0.00  0.00    +0.059 A 
ATOM     22  C   UNL     1      -5.441   3.021  25.359  0.00  0.00    +0.142 A 
ATOM     23  F   UNL     1      -6.151   3.339  25.637  0.00  0.00    -0.204 F 
ATOM     24  C   UNL     1      -5.450   2.364  24.861  0.00  0.00    +0.030 A 
ATOM     25  C   UNL     1      -4.741   2.047  24.584  0.00  0.00    +0.005 A 
ENDBRANCH  11  18
TORSDOF 1
ENDMDL
MODEL 8
REMARK VINA RESULT:     -12.1      1.464      2.191
REMARK  Name = 
REMARK  1 active torsions:
REMARK  status: ('A' for Active; 'I' for Inactive)
REMARK    1  A    between atoms: C_11  and  C_18
REMARK                            x       y       z     vdW  Elec       q    Type
REMARK                         _______ _______ _______ _____ _____    ______ ____
ROOT
ATOM      1  O   UNL     1      -4.680   4.391  25.104  0.00  0.00    -0.221 OA
ATOM      2  C   UNL     1      -4.577   3.573  25.066  0.00  0.00    +0.174 C 
ATOM      3  C   UNL     1      -5.176   3.012  24.993  0.00  0.00    +0.064 C 
ATOM      4  C   UNL     1      -4.827   2.265  24.976  0.00  0.00    +0.157 C 
ATOM      5  N   UNL     1      -4.010   2.365  25.037  0.00  0.00    -0.267 N 
ATOM      6  C   UNL     1      -3.855   3.174  25.093  0.00  0.00    +0.127 C 
ATOM      7  C   UNL     1      -3.420   1.788  25.046  0.00  0.00    +0.251 C 
ATOM      8  O   UNL     1      -2.647   2.068  25.115  0.00  0.00    -0.270 OA
ATOM      9  C   UNL     1      -3.501   0.969  24.995  0.00  0.00    +0.069 A 
ATOM     10  C   UNL     1      -2.769   0.591  25.024  0.00  0.00    +0.006 A 
ATOM     11  C   UNL     1      -2.727  -0.232  24.981  0.00  0.00    +0.002 A 
ATOM     12  C   UNL     1      -3.417  -0.676  24.909  0.00  0.00    +0.001 A 
ATOM     13  C   UNL     1      -4.151  -0.299  24.880  0.00  0.00    +0.017 A 
ATOM     14  C   UNL     1      -4.192   0.524  24.923  0.00  0.00    +0.078 A 
ATOM     15  N   UNL     1      -4.973   0.789  24.884  0.00  0.00    -0.178 NA
ATOM     16  C   UNL     1      -5.255   1.564  24.907  0.00  0.00    +0.264 C 
ATOM     17  O   UNL     1      -6.074   1.648  24.856  0.00  0.00    -0.271 OA
ENDROOT
BRANCH  11  18
ATOM     18  C   UNL     1      -1.994  -0.610  25.011  0.00  0.00    +0.028 A 
ATOM     19  C   UNL     1      -1.708  -0.899  25.729  0.00  0.00    +0.142 A 
ATOM     20  F   UNL     1      -2.154  -0.811  26.417  0.00  0.00    -0.204 F 
ATOM     21  C   UNL     1      -0.975  -1.277  25.758  0.00  0.00    +0.059 A 
ATOM     22  C   UNL     1      -0.528  -1.366  25.070  0.00  0.00    +0.142 A 
ATOM     23  F   UNL     1       0.205  -1.744  25.100  0.00  0.00    -0.204 F 
ATOM     24  C   UNL     1      -0.815  -1.076  24.353  0.00  0.00    +0.030 A 
ATOM     25  C   UNL     1      -1.547  -0.698  24.324  0.00  0.00    +0.005 A 
ENDBRANCH  11  18
TORSDOF 1
ENDMDL
