MODEL 1
REMARK VINA RESULT:     -11.5      0.000      0.000
REMARK  Name = 
REMARK  7 active torsions:
REMARK  status: ('A' for Active; 'I' for Inactive)
REMARK    1  A    between atoms: O_2  and  C_3
REMARK    2  A    between atoms: C_6  and  C_7
REMARK    3  A    between atoms: C_7  and  N_8
REMARK    4  A    between atoms: C_11  and  C_13
REMARK    5  A    between atoms: C_16  and  C_17
REMARK    6  A    between atoms: C_17  and  O_18
REMARK    7  A    between atoms: O_18  and  C_19
REMARK                            x       y       z     vdW  Elec       q    Type
REMARK                         _______ _______ _______ _____ _____    ______ ____
ROOT
ATOM      8  N   UNL     1      -3.067   3.803  25.297  0.00  0.00    -0.268 NA
ATOM      9  C   UNL     1      -3.652   4.190  24.864  0.00  0.00    +0.073 C 
ATOM     10  C   UNL     1      -4.248   3.644  24.695  0.00  0.00    +0.028 C 
ATOM     11  C   UNL     1      -4.031   2.919  25.024  0.00  0.00    +0.096 C 
ATOM     12  C   UNL     1      -3.300   3.017  25.396  0.00  0.00    +0.082 C 
ENDROOT
BRANCH  11  13
ATOM     13  C   UNL     1      -4.466   2.220  24.987  0.00  0.00    +0.227 A 
ATOM     14  N   UNL     1      -5.287   2.157  25.037  0.00  0.00    -0.112 NA
ATOM     15  N   UNL     1      -5.485   1.359  24.975  0.00  0.00    -0.108 NA
ATOM     16  C   UNL     1      -4.788   0.928  24.886  0.00  0.00    +0.270 A 
ATOM     26  O   UNL     1      -4.157   1.460  24.894  0.00  0.00    -0.420 OA
BRANCH  16  17
ATOM     17  C   UNL     1      -4.730   0.110  24.804  0.00  0.00    +0.291 C 
BRANCH  17  18
ATOM     18  O   UNL     1      -4.040  -0.228  24.503  0.00  0.00    -0.465 OA
BRANCH  18  19
ATOM     19  C   UNL     1      -3.955  -1.048  24.489  0.00  0.00    +0.139 A 
ATOM     20  C   UNL     1      -3.558  -1.432  25.102  0.00  0.00    +0.039 A 
ATOM     21  C   UNL     1      -3.472  -2.252  25.088  0.00  0.00    +0.033 A 
ATOM     22  C   UNL     1      -3.784  -2.689  24.461  0.00  0.00    +0.140 A 
ATOM     23  F   UNL     1      -3.698  -3.509  24.448  0.00  0.00    -0.204 F 
ATOM     24  C   UNL     1      -4.181  -2.305  23.849  0.00  0.00    +0.033 A 
ATOM     25  C   UNL     1      -4.266  -1.484  23.862  0.00  0.00    +0.039 A 
ENDBRANCH  18  19
ENDBRANCH  17  18
ENDBRANCH  16  17
ENDBRANCH  11  13
BRANCH   8   7
ATOM      7  C   UNL     1      -2.370   4.141  25.582  0.00  0.00    +0.099 C 
BRANCH   7   6
ATOM      3  C   UNL     1      -0.197   3.037  25.157  0.00  0.00    +0.139 A 
ATOM      4  C   UNL     1      -0.497   3.580  24.613  0.00  0.00    +0.037 A 
ATOM      5  C   UNL     1      -1.221   3.947  24.754  0.00  0.00    +0.000 A 
ATOM      6  C   UNL     1      -1.646   3.773  25.440  0.00  0.00    -0.006 A 
ATOM     27  C   UNL     1      -1.346   3.231  25.984  0.00  0.00    +0.000 A 
ATOM     28  C   UNL     1      -0.620   2.863  25.843  0.00  0.00    +0.037 A 
BRANCH   3   2
ATOM      1  C   UNL     1       0.558   1.972  24.575  0.00  0.00    +0.252 C 
ATOM      2  O   UNL     1       0.529   2.669  25.016  0.00  0.00    -0.471 OA
ENDBRANCH   3   2
ENDBRANCH   7   6
ENDBRANCH   8   7
TORSDOF 7
ENDMDL
MODEL 2
REMARK VINA RESULT:     -11.4      1.781      3.197
REMARK  Name = 
REMARK  7 active torsions:
REMARK  status: ('A' for Active; 'I' for Inactive)
REMARK    1  A    between atoms: O_2  and  C_3
REMARK    2  A    between atoms: C_6  and  C_7
REMARK    3  A    between atoms: C_7  and  N_8
REMARK    4  A    between atoms: C_11  and  C_13
REMARK    5  A    between atoms: C_16  and  C_17
REMARK    6  A    between atoms: C_17  and  O_18
REMARK    7  A    between atoms: O_18  and  C_19
REMARK                            x       y       z     vdW  Elec       q    Type
REMARK                         _______ _______ _______ _____ _____    ______ ____
ROOT
ATOM      8  N   UNL     1      -1.366   3.083  25.301  0.00  0.00    -0.268 NA
ATOM      9  C   UNL     1      -0.725   3.002  25.814  0.00  0.00    +0.073 C 
ATOM     10  C   UNL     1      -0.491   2.210  25.807  0.00  0.00    +0.028 C 
ATOM     11  C   UNL     1      -0.988   1.803  25.290  0.00  0.00    +0.096 C 
ATOM     12  C   UNL     1      -1.529   2.342  24.977  0.00  0.00    +0.082 C 
ENDROOT
BRANCH  11  13
ATOM     13  C   UNL     1      -0.951   0.997  25.116  0.00  0.00    +0.227 A 
ATOM     14  N   UNL     1      -0.262   0.551  25.029  0.00  0.00    -0.112 NA
ATOM     15  N   UNL     1      -0.481  -0.225  24.857  0.00  0.00    -0.108 NA
ATOM     16  C   UNL     1      -1.305  -0.260  24.838  0.00  0.00    +0.270 A 
ATOM     26  O   UNL     1      -1.596   0.496  24.997  0.00  0.00    -0.420 OA
BRANCH  16  17
ATOM     17  C   UNL     1      -1.759  -0.931  24.685  0.00  0.00    +0.291 C 
BRANCH  17  18
ATOM     18  O   UNL     1      -2.514  -1.002  25.010  0.00  0.00    -0.465 OA
BRANCH  18  19
ATOM     19  C   UNL     1      -3.065  -1.507  24.664  0.00  0.00    +0.139 A 
ATOM     20  C   UNL     1      -3.705  -1.196  24.246  0.00  0.00    +0.039 A 
ATOM     21  C   UNL     1      -4.257  -1.701  23.899  0.00  0.00    +0.033 A 
ATOM     22  C   UNL     1      -4.170  -2.519  23.971  0.00  0.00    +0.140 A 
ATOM     23  F   UNL     1      -4.722  -3.024  23.624  0.00  0.00    -0.204 F 
ATOM     24  C   UNL     1      -3.531  -2.830  24.389  0.00  0.00    +0.033 A 
ATOM     25  C   UNL     1      -2.978  -2.324  24.735  0.00  0.00    +0.039 A 
ENDBRANCH  18  19
ENDBRANCH  17  18
ENDBRANCH  16  17
ENDBRANCH  11  13
BRANCH   8   7
ATOM      7  C   UNL     1      -1.772   3.783  25.141  0.00  0.00    +0.099 C 
BRANCH   7   6
ATOM      3  C   UNL     1      -4.234   3.865  25.383  0.00  0.00    +0.139 A 
ATOM      4  C   UNL     1      -3.751   3.956  26.046  0.00  0.00    +0.037 A 
ATOM      5  C   UNL     1      -2.931   3.929  25.965  0.00  0.00    +0.000 A 
ATOM      6  C   UNL     1      -2.592   3.810  25.222  0.00  0.00    -0.006 A 
ATOM     27  C   UNL     1      -3.075   3.720  24.559  0.00  0.00    +0.000 A 
ATOM     28  C   UNL     1      -3.897   3.747  24.640  0.00  0.00    +0.037 A 
BRANCH   3   2
ATOM      1  C   UNL     1      -5.475   3.206  25.644  0.00  0.00    +0.252 C 
ATOM      2  O   UNL     1      -5.055   3.893  25.464  0.00  0.00    -0.471 OA
ENDBRANCH   3   2
ENDBRANCH   7   6
ENDBRANCH   8   7
TORSDOF 7
ENDMDL
MODEL 3
REMARK VINA RESULT:     -10.9      2.379      5.053
REMARK  Name = 
REMARK  7 active torsions:
REMARK  status: ('A' for Active; 'I' for Inactive)
REMARK    1  A    between atoms: O_2  and  C_3
REMARK    2  A    between atoms: C_6  and  C_7
REMARK    3  A    between atoms: C_7  and  N_8
REMARK    4  A    between atoms: C_11  and  C_13
REMARK    5  A    between atoms: C_16  and  C_17
REMARK    6  A    between atoms: C_17  and  O_18
REMARK    7  A    between atoms: O_18  and  C_19
REMARK                            x       y       z     vdW  Elec       q    Type
REMARK                         _______ _______ _______ _____ _____    ______ ____
ROOT
ATOM      8  N   UNL     1      -3.988  -0.574  25.091  0.00  0.00    -0.268 NA
ATOM      9  C   UNL     1      -4.542  -0.558  24.480  0.00  0.00    +0.073 C 
ATOM     10  C   UNL     1      -4.738   0.231  24.334  0.00  0.00    +0.028 C 
ATOM     11  C   UNL     1      -4.305   0.702  24.855  0.00  0.00    +0.096 C 
ATOM     12  C   UNL     1      -3.842   0.204  25.324  0.00  0.00    +0.082 C 
ENDROOT
BRANCH  11  13
ATOM     13  C   UNL     1      -4.331   1.525  24.901  0.00  0.00    +0.227 A 
ATOM     14  N   UNL     1      -5.012   1.986  24.963  0.00  0.00    -0.112 NA
ATOM     15  N   UNL     1      -4.783   2.777  24.993  0.00  0.00    -0.108 NA
ATOM     16  C   UNL     1      -3.959   2.806  24.949  0.00  0.00    +0.270 A 
ATOM     26  O   UNL     1      -3.680   2.032  24.892  0.00  0.00    -0.420 OA
BRANCH  16  17
ATOM     17  C   UNL     1      -3.497   3.489  24.960  0.00  0.00    +0.291 C 
BRANCH  17  18
ATOM     18  O   UNL     1      -2.880   3.561  25.503  0.00  0.00    -0.465 OA
BRANCH  18  19
ATOM     19  C   UNL     1      -2.241   4.054  25.337  0.00  0.00    +0.139 A 
ATOM     20  C   UNL     1      -1.496   3.730  25.192  0.00  0.00    +0.039 A 
ATOM     21  C   UNL     1      -0.857   4.223  25.025  0.00  0.00    +0.033 A 
ATOM     22  C   UNL     1      -0.960   5.041  25.004  0.00  0.00    +0.140 A 
ATOM     23  F   UNL     1      -0.321   5.534  24.837  0.00  0.00    -0.204 F 
ATOM     24  C   UNL     1      -1.705   5.366  25.149  0.00  0.00    +0.033 A 
ATOM     25  C   UNL     1      -2.345   4.872  25.315  0.00  0.00    +0.039 A 
ENDBRANCH  18  19
ENDBRANCH  17  18
ENDBRANCH  16  17
ENDBRANCH  11  13
BRANCH   8   7
ATOM      7  C   UNL     1      -3.642  -1.250  25.414  0.00  0.00    +0.099 C 
BRANCH   7   6
ATOM      3  C   UNL     1      -1.247  -1.725  25.010  0.00  0.00    +0.139 A 
ATOM      4  C   UNL     1      -1.469  -1.200  25.607  0.00  0.00    +0.037 A 
ATOM      5  C   UNL     1      -2.266  -1.042  25.742  0.00  0.00    +0.000 A 
ATOM      6  C   UNL     1      -2.844  -1.408  25.280  0.00  0.00    -0.006 A 
ATOM     27  C   UNL     1      -2.622  -1.933  24.683  0.00  0.00    +0.000 A 
ATOM     28  C   UNL     1      -1.823  -2.091  24.548  0.00  0.00    +0.037 A 
BRANCH   3   2
ATOM      1  C   UNL     1       0.029  -1.317  24.512  0.00  0.00    +0.252 C 
ATOM      2  O   UNL     1      -0.448  -1.883  24.876  0.00  0.00    -0.471 OA
ENDBRANCH   3   2
ENDBRANCH   7   6
ENDBRANCH   8   7
TORSDOF 7
ENDMDL
MODEL 4
REMARK VINA RESULT:     -10.4      2.951      6.219
REMARK  Name = 
REMARK  7 active torsions:
REMARK  status: ('A' for Active; 'I' for Inactive)
REMARK    1  A    between atoms: O_2  and  C_3
REMARK    2  A    between atoms: C_6  and  C_7
REMARK    3  A    between atoms: C_7  and  N_8
REMARK    4  A    between atoms: C_11  and  C_13
REMARK    5  A    between atoms: C_16  and  C_17
REMARK    6  A    between atoms: C_17  and  O_18
REMARK    7  A    between atoms: O_18  and  C_19
REMARK                            x       y       z     vdW  Elec       q    Type
REMARK                         _______ _______ _______ _____ _____    ______ ____
ROOT
ATOM      8  N   UNL     1      -0.887  -1.138  24.952  0.00  0.00    -0.268 NA
ATOM      9  C   UNL     1      -0.346  -1.375  24.376  0.00  0.00    +0.073 C 
ATOM     10  C   UNL     1       0.012  -0.698  24.068  0.00  0.00    +0.028 C 
ATOM     11  C   UNL     1      -0.309  -0.042  24.453  0.00  0.00    +0.096 C 
ATOM     12  C   UNL     1      -0.864  -0.314  25.000  0.00  0.00    +0.082 C 
ENDROOT
BRANCH  11  13
ATOM     13  C   UNL     1      -0.109   0.746  24.317  0.00  0.00    +0.227 A 
ATOM     14  N   UNL     1       0.606   1.019  24.008  0.00  0.00    -0.112 NA
ATOM     15  N   UNL     1       0.568   1.841  23.965  0.00  0.00    -0.108 NA
ATOM     16  C   UNL     1      -0.170   2.078  24.247  0.00  0.00    +0.270 A 
ATOM     26  O   UNL     1      -0.589   1.401  24.464  0.00  0.00    -0.420 OA
BRANCH  16  17
ATOM     17  C   UNL     1      -0.442   2.854  24.302  0.00  0.00    +0.291 C 
BRANCH  17  18
ATOM     18  O   UNL     1      -0.553   3.202  25.042  0.00  0.00    -0.465 OA
BRANCH  18  19
ATOM     19  C   UNL     1      -0.937   3.929  25.102  0.00  0.00    +0.139 A 
ATOM     20  C   UNL     1      -1.696   3.969  25.423  0.00  0.00    +0.039 A 
ATOM     21  C   UNL     1      -2.081   4.696  25.483  0.00  0.00    +0.033 A 
ATOM     22  C   UNL     1      -1.707   5.384  25.222  0.00  0.00    +0.140 A 
ATOM     23  F   UNL     1      -2.091   6.111  25.283  0.00  0.00    -0.204 F 
ATOM     24  C   UNL     1      -0.948   5.344  24.902  0.00  0.00    +0.033 A 
ATOM     25  C   UNL     1      -0.563   4.616  24.841  0.00  0.00    +0.039 A 
ENDBRANCH  18  19
ENDBRANCH  17  18
ENDBRANCH  16  17
ENDBRANCH  11  13
BRANCH   8   7
ATOM      7  C   UNL     1      -1.366  -1.637  25.401  0.00  0.00    +0.099 C 
BRANCH   7   6
ATOM      3  C   UNL     1      -3.591  -2.309  24.551  0.00  0.00    +0.139 A 
ATOM      4  C   UNL     1      -2.918  -2.726  24.320  0.00  0.00    +0.037 A 
ATOM      5  C   UNL     1      -2.177  -2.502  24.604  0.00  0.00    +0.000 A 
ATOM      6  C   UNL     1      -2.107  -1.861  25.118  0.00  0.00    -0.006 A 
ATOM     27  C   UNL     1      -2.781  -1.443  25.349  0.00  0.00    +0.000 A 
ATOM     28  C   UNL     1      -3.523  -1.667  25.065  0.00  0.00    +0.037 A 
BRANCH   3   2
ATOM      1  C   UNL     1      -4.603  -2.244  23.543  0.00  0.00    +0.252 C 
ATOM      2  O   UNL     1      -4.333  -2.533  24.268  0.00  0.00    -0.471 OA
ENDBRANCH   3   2
ENDBRANCH   7   6
ENDBRANCH   8   7
TORSDOF 7
ENDMDL
MODEL 5
REMARK VINA RESULT:     -10.1      2.455      5.321
REMARK  Name = 
REMARK  7 active torsions:
REMARK  status: ('A' for Active; 'I' for Inactive)
REMARK    1  A    between atoms: O_2  and  C_3
REMARK    2  A    between atoms: C_6  and  C_7
REMARK    3  A    between atoms: C_7  and  N_8
REMARK    4  A    between atoms: C_11  and  C_13
REMARK    5  A    between atoms: C_16  and  C_17
REMARK    6  A    between atoms: C_17  and  O_18
REMARK    7  A    between atoms: O_18  and  C_19
REMARK                            x       y       z     vdW  Elec       q    Type
REMARK                         _______ _______ _______ _____ _____    ______ ____
ROOT
ATOM      8  N   UNL     1      -0.719  -0.646  24.771  0.00  0.00    -0.268 NA
ATOM      9  C   UNL     1      -0.146  -0.484  24.200  0.00  0.00    +0.073 C 
ATOM     10  C   UNL     1      -0.183   0.321  24.022  0.00  0.00    +0.028 C 
ATOM     11  C   UNL     1      -0.779   0.657  24.484  0.00  0.00    +0.096 C 
ATOM     12  C   UNL     1      -1.110   0.059  24.947  0.00  0.00    +0.082 C 
ENDROOT
BRANCH  11  13
ATOM     13  C   UNL     1      -1.004   1.450  24.484  0.00  0.00    +0.227 A 
ATOM     14  N   UNL     1      -0.520   2.091  24.296  0.00  0.00    -0.112 NA
ATOM     15  N   UNL     1      -0.969   2.779  24.367  0.00  0.00    -0.108 NA
ATOM     16  C   UNL     1      -1.731   2.564  24.599  0.00  0.00    +0.270 A 
ATOM     26  O   UNL     1      -1.753   1.742  24.671  0.00  0.00    -0.420 OA
BRANCH  16  17
ATOM     17  C   UNL     1      -2.361   3.079  24.735  0.00  0.00    +0.291 C 
BRANCH  17  18
ATOM     18  O   UNL     1      -3.065   2.991  24.313  0.00  0.00    -0.465 OA
BRANCH  18  19
ATOM     19  C   UNL     1      -3.784   3.172  24.672  0.00  0.00    +0.139 A 
ATOM     20  C   UNL     1      -4.417   2.645  24.614  0.00  0.00    +0.039 A 
ATOM     21  C   UNL     1      -5.138   2.825  24.973  0.00  0.00    +0.033 A 
ATOM     22  C   UNL     1      -5.227   3.532  25.390  0.00  0.00    +0.140 A 
ATOM     23  F   UNL     1      -5.947   3.711  25.748  0.00  0.00    -0.204 F 
ATOM     24  C   UNL     1      -4.594   4.058  25.448  0.00  0.00    +0.033 A 
ATOM     25  C   UNL     1      -3.873   3.878  25.089  0.00  0.00    +0.039 A 
ENDBRANCH  18  19
ENDBRANCH  17  18
ENDBRANCH  16  17
ENDBRANCH  11  13
BRANCH   8   7
ATOM      7  C   UNL     1      -0.873  -1.384  25.108  0.00  0.00    +0.099 C 
BRANCH   7   6
ATOM      3  C   UNL     1      -3.007  -2.540  24.627  0.00  0.00    +0.139 A 
ATOM      4  C   UNL     1      -2.340  -2.698  24.168  0.00  0.00    +0.037 A 
ATOM      5  C   UNL     1      -1.629  -2.313  24.328  0.00  0.00    +0.000 A 
ATOM      6  C   UNL     1      -1.584  -1.769  24.947  0.00  0.00    -0.006 A 
ATOM     27  C   UNL     1      -2.251  -1.611  25.406  0.00  0.00    +0.000 A 
ATOM     28  C   UNL     1      -2.963  -1.996  25.245  0.00  0.00    +0.037 A 
BRANCH   3   2
ATOM      1  C   UNL     1      -4.252  -2.601  23.926  0.00  0.00    +0.252 C 
ATOM      2  O   UNL     1      -3.719  -2.926  24.466  0.00  0.00    -0.471 OA
ENDBRANCH   3   2
ENDBRANCH   7   6
ENDBRANCH   8   7
TORSDOF 7
ENDMDL
