MODEL 1
REMARK VINA RESULT:     -14.8      0.000      0.000
REMARK  Name = 
REMARK  5 active torsions:
REMARK  status: ('A' for Active; 'I' for Inactive)
REMARK    1  A    between atoms: C_2  and  C_27
REMARK    2  A    between atoms: N_3  and  C_4
REMARK    3  A    between atoms: N_12  and  S_14
REMARK    4  A    between atoms: S_14  and  C_17
REMARK    5  A    between atoms: C_30  and  C_33
REMARK                            x       y       z     vdW  Elec       q    Type
REMARK                         _______ _______ _______ _____ _____    ______ ____
ROOT
ATOM      4  C   UNL     1      -2.483   0.236  24.308  0.00  0.00    +0.130 A 
ATOM      5  C   UNL     1      -2.163   0.981  24.159  0.00  0.00    +0.023 A 
ATOM      6  C   UNL     1      -2.637   1.654  24.218  0.00  0.00    +0.014 A 
ATOM      7  C   UNL     1      -3.432   1.581  24.426  0.00  0.00    +0.041 A 
ATOM      8  C   UNL     1      -4.182   2.092  24.569  0.00  0.00    +0.056 C 
ATOM      9  C   UNL     1      -4.403   2.758  24.565  0.00  0.00    +0.011 C 
ATOM     10  C   UNL     1      -4.716   2.020  24.712  0.00  0.00    +0.041 C 
ATOM     11  C   UNL     1      -5.270   1.230  24.924  0.00  0.00    +0.098 C 
ATOM     12  N   UNL     1      -4.698   0.629  24.833  0.00  0.00    -0.155 NA
ATOM     13  C   UNL     1      -4.730   1.338  24.777  0.00  0.00    +0.102 C 
ATOM     23  C   UNL     1      -3.938   1.478  24.564  0.00  0.00    +0.110 C 
ATOM     24  N   UNL     1      -3.752   0.835  24.575  0.00  0.00    -0.298 N 
ATOM     25  C   UNL     1      -3.278   0.163  24.516  0.00  0.00    +0.276 A 
ATOM     26  O   UNL     1      -3.599  -0.583  24.665  0.00  0.00    -0.266 OA
ENDROOT
BRANCH   4   3
ATOM      1  O   UNL     1      -0.743  -1.077  24.421  0.00  0.00    -0.268 OA
ATOM      2  C   UNL     1      -1.218  -0.404  24.480  0.00  0.00    +0.269 C 
ATOM      3  N   UNL     1      -2.009  -0.436  24.249  0.00  0.00    -0.171 NA
BRANCH   2  27
ATOM     27  C   UNL     1      -0.901   0.300  24.771  0.00  0.00    +0.055 A 
ATOM     28  C   UNL     1      -0.927   0.461  25.580  0.00  0.00    +0.005 A 
ATOM     29  C   UNL     1      -0.611   1.165  25.871  0.00  0.00    +0.010 A 
ATOM     30  C   UNL     1      -0.268   1.707  25.353  0.00  0.00    +0.068 A 
ATOM     31  C   UNL     1      -0.241   1.547  24.544  0.00  0.00    +0.010 A 
ATOM     32  C   UNL     1      -0.558   0.843  24.253  0.00  0.00    +0.005 A 
BRANCH  30  33
ATOM     33  C   UNL     1       0.049   2.412  25.644  0.00  0.00    +0.100 C 
ATOM     34  N   UNL     1       0.366   3.116  25.935  0.00  0.00    -0.191 NA
ENDBRANCH  30  33
ENDBRANCH   2  27
ENDBRANCH   4   3
BRANCH  12  14
ATOM     14  S   UNL     1      -4.374  -0.130  24.821  0.00  0.00    +0.063 S 
ATOM     15  O   UNL     1      -4.533  -0.184  24.013  0.00  0.00    -0.153 OA
ATOM     16  O   UNL     1      -4.215  -0.076  25.629  0.00  0.00    -0.153 OA
BRANCH  14  17
ATOM     17  C   UNL     1      -4.050  -0.889  24.808  0.00  0.00    +0.122 A 
ATOM     18  C   UNL     1      -4.027  -1.316  24.102  0.00  0.00    +0.020 A 
ATOM     19  C   UNL     1      -3.703  -2.075  24.089  0.00  0.00    +0.001 A 
ATOM     20  C   UNL     1      -3.403  -2.406  24.782  0.00  0.00    +0.000 A 
ATOM     21  C   UNL     1      -3.427  -1.980  25.488  0.00  0.00    +0.001 A 
ATOM     22  C   UNL     1      -3.750  -1.221  25.501  0.00  0.00    +0.020 A 
ENDBRANCH  14  17
ENDBRANCH  12  14
TORSDOF 5
ENDMDL
MODEL 2
REMARK VINA RESULT:     -14.7      1.931      3.556
REMARK  Name = 
REMARK  5 active torsions:
REMARK  status: ('A' for Active; 'I' for Inactive)
REMARK    1  A    between atoms: C_2  and  C_27
REMARK    2  A    between atoms: N_3  and  C_4
REMARK    3  A    between atoms: N_12  and  S_14
REMARK    4  A    between atoms: S_14  and  C_17
REMARK    5  A    between atoms: C_30  and  C_33
REMARK                            x       y       z     vdW  Elec       q    Type
REMARK                         _______ _______ _______ _____ _____    ______ ____
ROOT
ATOM      4  C   UNL     1      -3.049   1.832  24.646  0.00  0.00    +0.130 A 
ATOM      5  C   UNL     1      -3.455   1.145  24.434  0.00  0.00    +0.023 A 
ATOM      6  C   UNL     1      -4.273   1.103  24.533  0.00  0.00    +0.014 A 
ATOM      7  C   UNL     1      -4.685   1.747  24.843  0.00  0.00    +0.041 A 
ATOM      8  C   UNL     1      -5.537   2.010  25.066  0.00  0.00    +0.056 C 
ATOM      9  C   UNL     1      -6.200   1.781  25.070  0.00  0.00    +0.011 C 
ATOM     10  C   UNL     1      -5.795   2.456  25.277  0.00  0.00    +0.041 C 
ATOM     11  C   UNL     1      -5.491   3.346  25.583  0.00  0.00    +0.098 C 
ATOM     12  N   UNL     1      -4.672   3.271  25.438  0.00  0.00    -0.155 NA
ATOM     13  C   UNL     1      -5.258   2.873  25.365  0.00  0.00    +0.102 C 
ATOM     23  C   UNL     1      -4.902   2.191  25.048  0.00  0.00    +0.110 C 
ATOM     24  N   UNL     1      -4.278   2.434  25.055  0.00  0.00    -0.298 N 
ATOM     25  C   UNL     1      -3.460   2.476  24.956  0.00  0.00    +0.276 A 
ATOM     26  O   UNL     1      -3.053   3.162  25.167  0.00  0.00    -0.266 OA
ENDROOT
BRANCH   4   3
ATOM      1  O   UNL     1      -0.956   1.229  24.494  0.00  0.00    -0.268 OA
ATOM      2  C   UNL     1      -1.775   1.187  24.593  0.00  0.00    +0.269 C 
ATOM      3  N   UNL     1      -2.231   1.873  24.547  0.00  0.00    -0.171 NA
BRANCH   2  27
ATOM     27  C   UNL     1      -2.136   0.460  24.739  0.00  0.00    +0.055 A 
ATOM     28  C   UNL     1      -2.202   0.180  25.512  0.00  0.00    +0.005 A 
ATOM     29  C   UNL     1      -2.563  -0.547  25.658  0.00  0.00    +0.010 A 
ATOM     30  C   UNL     1      -2.858  -0.994  25.031  0.00  0.00    +0.068 A 
ATOM     31  C   UNL     1      -2.792  -0.714  24.257  0.00  0.00    +0.010 A 
ATOM     32  C   UNL     1      -2.431   0.014  24.111  0.00  0.00    +0.005 A 
BRANCH  30  33
ATOM     33  C   UNL     1      -3.219  -1.721  25.176  0.00  0.00    +0.100 C 
ATOM     34  N   UNL     1      -3.580  -2.448  25.322  0.00  0.00    -0.191 NA
ENDBRANCH  30  33
ENDBRANCH   2  27
ENDBRANCH   4   3
BRANCH  12  14
ATOM     14  S   UNL     1      -3.874   3.478  25.406  0.00  0.00    +0.063 S 
ATOM     15  O   UNL     1      -3.974   3.746  24.632  0.00  0.00    -0.153 OA
ATOM     16  O   UNL     1      -3.774   3.211  26.181  0.00  0.00    -0.153 OA
BRANCH  14  17
ATOM     17  C   UNL     1      -3.075   3.686  25.375  0.00  0.00    +0.122 A 
ATOM     18  C   UNL     1      -2.757   3.996  24.681  0.00  0.00    +0.020 A 
ATOM     19  C   UNL     1      -1.959   4.204  24.649  0.00  0.00    +0.001 A 
ATOM     20  C   UNL     1      -1.480   4.100  25.313  0.00  0.00    +0.000 A 
ATOM     21  C   UNL     1      -1.798   3.790  26.007  0.00  0.00    +0.001 A 
ATOM     22  C   UNL     1      -2.597   3.583  26.039  0.00  0.00    +0.020 A 
ENDBRANCH  14  17
ENDBRANCH  12  14
TORSDOF 5
ENDMDL
MODEL 3
REMARK VINA RESULT:     -14.2      1.686      4.172
REMARK  Name = 
REMARK  5 active torsions:
REMARK  status: ('A' for Active; 'I' for Inactive)
REMARK    1  A    between atoms: C_2  and  C_27
REMARK    2  A    between atoms: N_3  and  C_4
REMARK    3  A    between atoms: N_12  and  S_14
REMARK    4  A    between atoms: S_14  and  C_17
REMARK    5  A    between atoms: C_30  and  C_33
REMARK                            x       y       z     vdW  Elec       q    Type
REMARK                         _______ _______ _______ _____ _____    ______ ____
ROOT
ATOM      4  C   UNL     1      -3.215   1.339  24.358  0.00  0.00    +0.130 A 
ATOM      5  C   UNL     1      -2.988   0.587  24.106  0.00  0.00    +0.023 A 
ATOM      6  C   UNL     1      -2.189   0.412  23.996  0.00  0.00    +0.014 A 
ATOM      7  C   UNL     1      -1.617   0.989  24.137  0.00  0.00    +0.041 A 
ATOM      8  C   UNL     1      -0.707   1.113  24.112  0.00  0.00    +0.056 C 
ATOM      9  C   UNL     1      -0.110   0.775  23.965  0.00  0.00    +0.011 C 
ATOM     10  C   UNL     1      -0.337   1.517  24.213  0.00  0.00    +0.041 C 
ATOM     11  C   UNL     1      -0.410   2.456  24.512  0.00  0.00    +0.098 C 
ATOM     12  N   UNL     1      -1.240   2.515  24.588  0.00  0.00    -0.155 NA
ATOM     13  C   UNL     1      -0.761   2.022  24.400  0.00  0.00    +0.102 C 
ATOM     23  C   UNL     1      -1.289   1.397  24.242  0.00  0.00    +0.110 C 
ATOM     24  N   UNL     1      -1.844   1.742  24.388  0.00  0.00    -0.298 N 
ATOM     25  C   UNL     1      -2.643   1.917  24.498  0.00  0.00    +0.276 A 
ATOM     26  O   UNL     1      -2.869   2.669  24.750  0.00  0.00    -0.266 OA
ENDROOT
BRANCH   4   3
ATOM      1  O   UNL     1      -5.346   1.086  24.759  0.00  0.00    -0.268 OA
ATOM      2  C   UNL     1      -4.546   0.911  24.649  0.00  0.00    +0.269 C 
ATOM      3  N   UNL     1      -4.013   1.514  24.468  0.00  0.00    -0.171 NA
BRANCH   2  27
ATOM     27  C   UNL     1      -4.280   0.133  24.720  0.00  0.00    +0.055 A 
ATOM     28  C   UNL     1      -4.028  -0.151  25.452  0.00  0.00    +0.005 A 
ATOM     29  C   UNL     1      -3.762  -0.929  25.523  0.00  0.00    +0.010 A 
ATOM     30  C   UNL     1      -3.750  -1.422  24.862  0.00  0.00    +0.068 A 
ATOM     31  C   UNL     1      -4.002  -1.138  24.129  0.00  0.00    +0.010 A 
ATOM     32  C   UNL     1      -4.268  -0.360  24.058  0.00  0.00    +0.005 A 
BRANCH  30  33
ATOM     33  C   UNL     1      -3.484  -2.200  24.933  0.00  0.00    +0.100 C 
ATOM     34  N   UNL     1      -3.219  -2.978  25.004  0.00  0.00    -0.191 NA
ENDBRANCH  30  33
ENDBRANCH   2  27
ENDBRANCH   4   3
BRANCH  12  14
ATOM     14  S   UNL     1      -1.977   2.852  24.745  0.00  0.00    +0.063 S 
ATOM     15  O   UNL     1      -1.909   2.632  25.537  0.00  0.00    -0.153 OA
ATOM     16  O   UNL     1      -2.045   3.072  23.952  0.00  0.00    -0.153 OA
BRANCH  14  17
ATOM     17  C   UNL     1      -2.713   3.190  24.902  0.00  0.00    +0.122 A 
ATOM     18  C   UNL     1      -3.162   3.505  24.286  0.00  0.00    +0.020 A 
ATOM     19  C   UNL     1      -3.899   3.842  24.443  0.00  0.00    +0.001 A 
ATOM     20  C   UNL     1      -4.186   3.864  25.215  0.00  0.00    +0.000 A 
ATOM     21  C   UNL     1      -3.737   3.549  25.831  0.00  0.00    +0.001 A 
ATOM     22  C   UNL     1      -3.000   3.211  25.675  0.00  0.00    +0.020 A 
ENDBRANCH  14  17
ENDBRANCH  12  14
TORSDOF 5
ENDMDL
MODEL 4
REMARK VINA RESULT:     -13.8      1.478      3.930
REMARK  Name = 
REMARK  5 active torsions:
REMARK  status: ('A' for Active; 'I' for Inactive)
REMARK    1  A    between atoms: C_2  and  C_27
REMARK    2  A    between atoms: N_3  and  C_4
REMARK    3  A    between atoms: N_12  and  S_14
REMARK    4  A    between atoms: S_14  and  C_17
REMARK    5  A    between atoms: C_30  and  C_33
REMARK                            x       y       z     vdW  Elec       q    Type
REMARK                         _______ _______ _______ _____ _____    ______ ____
ROOT
ATOM      4  C   UNL     1      -2.457   1.332  24.292  0.00  0.00    +0.130 A 
ATOM      5  C   UNL     1      -3.223   1.132  24.061  0.00  0.00    +0.023 A 
ATOM      6  C   UNL     1      -3.484   0.352  24.130  0.00  0.00    +0.014 A 
ATOM      7  C   UNL     1      -2.979  -0.226  24.431  0.00  0.00    +0.041 A 
ATOM      8  C   UNL     1      -2.959  -1.124  24.625  0.00  0.00    +0.056 C 
ATOM      9  C   UNL     1      -3.357  -1.702  24.603  0.00  0.00    +0.011 C 
ATOM     10  C   UNL     1      -2.601  -1.500  24.831  0.00  0.00    +0.041 C 
ATOM     11  C   UNL     1      -1.669  -1.456  25.154  0.00  0.00    +0.098 C 
ATOM     12  N   UNL     1      -1.519  -0.642  25.038  0.00  0.00    -0.155 NA
ATOM     13  C   UNL     1      -2.058  -1.098  24.941  0.00  0.00    +0.102 C 
ATOM     23  C   UNL     1      -2.614  -0.561  24.631  0.00  0.00    +0.110 C 
ATOM     24  N   UNL     1      -2.213  -0.026  24.662  0.00  0.00    -0.298 N 
ATOM     25  C   UNL     1      -1.952   0.754  24.593  0.00  0.00    +0.276 A 
ATOM     26  O   UNL     1      -1.186   0.954  24.824  0.00  0.00    -0.266 OA
ENDROOT
BRANCH   4   3
ATOM      1  O   UNL     1      -2.463   3.515  24.268  0.00  0.00    -0.268 OA
ATOM      2  C   UNL     1      -2.724   2.735  24.337  0.00  0.00    +0.269 C 
ATOM      3  N   UNL     1      -2.197   2.112  24.223  0.00  0.00    -0.171 NA
BRANCH   2  27
ATOM     27  C   UNL     1      -3.513   2.579  24.522  0.00  0.00    +0.055 A 
ATOM     28  C   UNL     1      -3.753   2.543  25.311  0.00  0.00    +0.005 A 
ATOM     29  C   UNL     1      -4.542   2.387  25.495  0.00  0.00    +0.010 A 
ATOM     30  C   UNL     1      -5.090   2.267  24.891  0.00  0.00    +0.068 A 
ATOM     31  C   UNL     1      -4.851   2.303  24.102  0.00  0.00    +0.010 A 
ATOM     32  C   UNL     1      -4.061   2.459  23.917  0.00  0.00    +0.005 A 
BRANCH  30  33
ATOM     33  C   UNL     1      -5.879   2.111  25.075  0.00  0.00    +0.100 C 
ATOM     34  N   UNL     1      -6.668   1.955  25.260  0.00  0.00    -0.191 NA
ENDBRANCH  30  33
ENDBRANCH   2  27
ENDBRANCH   4   3
BRANCH  12  14
ATOM     14  S   UNL     1      -1.105   0.072  25.037  0.00  0.00    +0.063 S 
ATOM     15  O   UNL     1      -0.860  -0.071  24.261  0.00  0.00    -0.153 OA
ATOM     16  O   UNL     1      -1.349   0.215  25.812  0.00  0.00    -0.153 OA
BRANCH  14  17
ATOM     17  C   UNL     1      -0.691   0.786  25.035  0.00  0.00    +0.122 A 
ATOM     18  C   UNL     1      -0.296   1.033  24.355  0.00  0.00    +0.020 A 
ATOM     19  C   UNL     1       0.118   1.747  24.353  0.00  0.00    +0.001 A 
ATOM     20  C   UNL     1       0.137   2.213  25.034  0.00  0.00    +0.000 A 
ATOM     21  C   UNL     1      -0.257   1.966  25.714  0.00  0.00    +0.001 A 
ATOM     22  C   UNL     1      -0.671   1.252  25.716  0.00  0.00    +0.020 A 
ENDBRANCH  14  17
ENDBRANCH  12  14
TORSDOF 5
ENDMDL
