MODEL 1
REMARK VINA RESULT:     -12.0      0.000      0.000
REMARK  Name = 
REMARK  4 active torsions:
REMARK  status: ('A' for Active; 'I' for Inactive)
REMARK    1  A    between atoms: C_2  and  C_4
REMARK    2  A    between atoms: C_4  and  C_5
REMARK    3  A    between atoms: C_7  and  C_18
REMARK    4  A    between atoms: N_20  and  C_21
REMARK                            x       y       z     vdW  Elec       q    Type
REMARK                         _______ _______ _______ _____ _____    ______ ____
ROOT
ATOM      5  C   UNL     1      -3.364   1.873  24.371  0.00  0.00    +0.095 C 
ATOM      6  N   UNL     1      -3.393   1.050  24.325  0.00  0.00    -0.207 NA
ATOM      7  C   UNL     1      -3.986   0.541  24.588  0.00  0.00    +0.155 C 
ATOM      8  C   UNL     1      -4.698   0.729  24.961  0.00  0.00    +0.055 C 
ATOM      9  C   UNL     1      -4.991   1.473  25.163  0.00  0.00    +0.000 A 
ATOM     10  C   UNL     1      -5.717   1.589  25.538  0.00  0.00    +0.095 A 
ATOM     11  N   UNL     1      -5.821   2.400  25.649  0.00  0.00    -0.244 NA
ATOM     12  C   UNL     1      -5.159   2.786  25.342  0.00  0.00    +0.081 A 
ATOM     13  C   UNL     1      -4.646   2.213  25.042  0.00  0.00    +0.013 A 
ATOM     14  C   UNL     1      -3.921   2.390  24.689  0.00  0.00    -0.005 A 
ATOM     15  C   UNL     1      -3.729   3.236  24.653  0.00  0.00    -0.003 A 
ATOM     16  C   UNL     1      -4.241   3.810  24.953  0.00  0.00    +0.001 A 
ATOM     17  C   UNL     1      -4.956   3.584  25.298  0.00  0.00    +0.019 A 
ENDROOT
BRANCH   7  18
ATOM     18  C   UNL     1      -3.850  -0.263  24.462  0.00  0.00    +0.257 C 
ATOM     19  O   UNL     1      -4.155  -0.632  23.788  0.00  0.00    -0.272 OA
ATOM     20  N   UNL     1      -3.410  -0.698  25.007  0.00  0.00    -0.206 NA
BRANCH  20  21
ATOM     21  C   UNL     1      -3.275  -1.502  24.879  0.00  0.00    +0.095 C 
ATOM     22  C   UNL     1      -3.671  -2.198  25.076  0.00  0.00    +0.022 C 
ATOM     23  C   UNL     1      -3.083  -2.639  24.699  0.00  0.00    +0.004 C 
ATOM     24  C   UNL     1      -2.687  -1.942  24.503  0.00  0.00    +0.022 C 
ENDBRANCH  20  21
ENDBRANCH   7  18
BRANCH   5   4
ATOM      4  C   UNL     1      -2.688   2.225  24.055  0.00  0.00    +0.022 C 
BRANCH   4   2
ATOM      1  C   UNL     1      -2.653   1.942  22.654  0.00  0.00    +0.000 C 
ATOM      2  C   UNL     1      -2.312   1.884  23.403  0.00  0.00    +0.002 C 
ATOM      3  C   UNL     1      -1.596   1.486  23.502  0.00  0.00    +0.000 C 
ENDBRANCH   4   2
ENDBRANCH   5   4
TORSDOF 4
ENDMDL
MODEL 2
REMARK VINA RESULT:     -11.8      1.707      4.262
REMARK  Name = 
REMARK  4 active torsions:
REMARK  status: ('A' for Active; 'I' for Inactive)
REMARK    1  A    between atoms: C_2  and  C_4
REMARK    2  A    between atoms: C_4  and  C_5
REMARK    3  A    between atoms: C_7  and  C_18
REMARK    4  A    between atoms: N_20  and  C_21
REMARK                            x       y       z     vdW  Elec       q    Type
REMARK                         _______ _______ _______ _____ _____    ______ ____
ROOT
ATOM      5  C   UNL     1      -3.384  -0.023  24.358  0.00  0.00    +0.095 C 
ATOM      6  N   UNL     1      -2.774   0.513  24.502  0.00  0.00    -0.207 NA
ATOM      7  C   UNL     1      -1.984   0.358  24.684  0.00  0.00    +0.155 C 
ATOM      8  C   UNL     1      -1.610  -0.373  24.767  0.00  0.00    +0.055 C 
ATOM      9  C   UNL     1      -1.932  -1.128  24.690  0.00  0.00    +0.000 A 
ATOM     10  C   UNL     1      -1.496  -1.821  24.788  0.00  0.00    +0.095 A 
ATOM     11  N   UNL     1      -2.003  -2.461  24.668  0.00  0.00    -0.244 NA
ATOM     12  C   UNL     1      -2.753  -2.164  24.496  0.00  0.00    +0.081 A 
ATOM     13  C   UNL     1      -2.710  -1.339  24.509  0.00  0.00    +0.013 A 
ATOM     14  C   UNL     1      -3.355  -0.847  24.362  0.00  0.00    -0.005 A 
ATOM     15  C   UNL     1      -4.099  -1.260  24.188  0.00  0.00    -0.003 A 
ATOM     16  C   UNL     1      -4.143  -2.084  24.175  0.00  0.00    +0.001 A 
ATOM     17  C   UNL     1      -3.470  -2.536  24.329  0.00  0.00    +0.019 A 
ENDROOT
BRANCH   7  18
ATOM     18  C   UNL     1      -1.506   1.021  24.797  0.00  0.00    +0.257 C 
ATOM     19  O   UNL     1      -1.183   1.412  24.146  0.00  0.00    -0.272 OA
ATOM     20  N   UNL     1      -1.351   1.292  25.560  0.00  0.00    -0.206 NA
BRANCH  20  21
ATOM     21  C   UNL     1      -0.872   1.955  25.672  0.00  0.00    +0.095 C 
ATOM     22  C   UNL     1      -1.009   2.762  25.772  0.00  0.00    +0.022 C 
ATOM     23  C   UNL     1      -0.196   2.892  25.831  0.00  0.00    +0.004 C 
ATOM     24  C   UNL     1      -0.060   2.085  25.731  0.00  0.00    +0.022 C 
ENDBRANCH  20  21
ENDBRANCH   7  18
BRANCH   5   4
ATOM      4  C   UNL     1      -4.120   0.309  24.190  0.00  0.00    +0.022 C 
BRANCH   4   2
ATOM      1  C   UNL     1      -4.646   0.984  25.335  0.00  0.00    +0.000 C 
ATOM      2  C   UNL     1      -4.352   1.007  24.564  0.00  0.00    +0.002 C 
ATOM      3  C   UNL     1      -4.291   1.728  24.167  0.00  0.00    +0.000 C 
ENDBRANCH   4   2
ENDBRANCH   5   4
TORSDOF 4
ENDMDL
MODEL 3
REMARK VINA RESULT:     -11.7      1.195      2.790
REMARK  Name = 
REMARK  4 active torsions:
REMARK  status: ('A' for Active; 'I' for Inactive)
REMARK    1  A    between atoms: C_2  and  C_4
REMARK    2  A    between atoms: C_4  and  C_5
REMARK    3  A    between atoms: C_7  and  C_18
REMARK    4  A    between atoms: N_20  and  C_21
REMARK                            x       y       z     vdW  Elec       q    Type
REMARK                         _______ _______ _______ _____ _____    ______ ____
ROOT
ATOM      5  C   UNL     1      -4.143   0.989  24.646  0.00  0.00    +0.095 C 
ATOM      6  N   UNL     1      -3.360   0.990  24.387  0.00  0.00    -0.207 NA
ATOM      7  C   UNL     1      -2.834   1.625  24.343  0.00  0.00    +0.155 C 
ATOM      8  C   UNL     1      -2.962   2.414  24.546  0.00  0.00    +0.055 C 
ATOM      9  C   UNL     1      -3.647   2.764  24.844  0.00  0.00    +0.000 A 
ATOM     10  C   UNL     1      -3.705   3.566  25.027  0.00  0.00    +0.095 A 
ATOM     11  N   UNL     1      -4.467   3.710  25.309  0.00  0.00    -0.244 NA
ATOM     12  C   UNL     1      -4.881   2.996  25.300  0.00  0.00    +0.081 A 
ATOM     13  C   UNL     1      -4.374   2.411  25.013  0.00  0.00    +0.013 A 
ATOM     14  C   UNL     1      -4.594   1.621  24.924  0.00  0.00    -0.005 A 
ATOM     15  C   UNL     1      -5.411   1.440  25.158  0.00  0.00    -0.003 A 
ATOM     16  C   UNL     1      -5.918   2.024  25.445  0.00  0.00    +0.001 A 
ATOM     17  C   UNL     1      -5.652   2.802  25.516  0.00  0.00    +0.019 A 
ENDROOT
BRANCH   7  18
ATOM     18  C   UNL     1      -2.081   1.446  24.057  0.00  0.00    +0.257 C 
ATOM     19  O   UNL     1      -1.939   1.439  23.244  0.00  0.00    -0.272 OA
ATOM     20  N   UNL     1      -1.470   1.273  24.584  0.00  0.00    -0.206 NA
BRANCH  20  21
ATOM     21  C   UNL     1      -0.718   1.094  24.297  0.00  0.00    +0.095 C 
ATOM     22  C   UNL     1      -0.010   1.511  24.217  0.00  0.00    +0.022 C 
ATOM     23  C   UNL     1       0.347   0.842  23.892  0.00  0.00    +0.004 C 
ATOM     24  C   UNL     1      -0.361   0.425  23.973  0.00  0.00    +0.022 C 
ENDBRANCH  20  21
ENDBRANCH   7  18
BRANCH   5   4
ATOM      4  C   UNL     1      -4.526   0.259  24.624  0.00  0.00    +0.022 C 
BRANCH   4   2
ATOM      1  C   UNL     1      -3.820  -0.656  25.465  0.00  0.00    +0.000 C 
ATOM      2  C   UNL     1      -4.092  -0.437  24.718  0.00  0.00    +0.002 C 
ATOM      3  C   UNL     1      -3.930  -0.914  24.063  0.00  0.00    +0.000 C 
ENDBRANCH   4   2
ENDBRANCH   5   4
TORSDOF 4
ENDMDL
MODEL 4
REMARK VINA RESULT:     -11.5      1.231      3.982
REMARK  Name = 
REMARK  4 active torsions:
REMARK  status: ('A' for Active; 'I' for Inactive)
REMARK    1  A    between atoms: C_2  and  C_4
REMARK    2  A    between atoms: C_4  and  C_5
REMARK    3  A    between atoms: C_7  and  C_18
REMARK    4  A    between atoms: N_20  and  C_21
REMARK                            x       y       z     vdW  Elec       q    Type
REMARK                         _______ _______ _______ _____ _____    ______ ____
ROOT
ATOM      5  C   UNL     1      -2.345  -0.230  24.930  0.00  0.00    +0.095 C 
ATOM      6  N   UNL     1      -2.867   0.406  24.864  0.00  0.00    -0.207 NA
ATOM      7  C   UNL     1      -3.651   0.403  24.606  0.00  0.00    +0.155 C 
ATOM      8  C   UNL     1      -4.106  -0.236  24.350  0.00  0.00    +0.055 C 
ATOM      9  C   UNL     1      -3.890  -1.030  24.289  0.00  0.00    +0.000 A 
ATOM     10  C   UNL     1      -4.400  -1.621  24.024  0.00  0.00    +0.095 A 
ATOM     11  N   UNL     1      -3.991  -2.338  24.039  0.00  0.00    -0.244 NA
ATOM     12  C   UNL     1      -3.228  -2.189  24.314  0.00  0.00    +0.081 A 
ATOM     13  C   UNL     1      -3.165  -1.381  24.469  0.00  0.00    +0.013 A 
ATOM     14  C   UNL     1      -2.477  -1.024  24.754  0.00  0.00    -0.005 A 
ATOM     15  C   UNL     1      -1.810  -1.565  24.884  0.00  0.00    -0.003 A 
ATOM     16  C   UNL     1      -1.872  -2.373  24.729  0.00  0.00    +0.001 A 
ATOM     17  C   UNL     1      -2.582  -2.685  24.444  0.00  0.00    +0.019 A 
ENDROOT
BRANCH   7  18
ATOM     18  C   UNL     1      -4.029   1.136  24.603  0.00  0.00    +0.257 C 
ATOM     19  O   UNL     1      -4.022   1.602  23.921  0.00  0.00    -0.272 OA
ATOM     20  N   UNL     1      -4.414   1.404  25.281  0.00  0.00    -0.206 NA
BRANCH  20  21
ATOM     21  C   UNL     1      -4.792   2.137  25.278  0.00  0.00    +0.095 C 
ATOM     22  C   UNL     1      -4.553   2.917  25.399  0.00  0.00    +0.022 C 
ATOM     23  C   UNL     1      -5.326   3.174  25.273  0.00  0.00    +0.004 C 
ATOM     24  C   UNL     1      -5.566   2.395  25.152  0.00  0.00    +0.022 C 
ENDBRANCH  20  21
ENDBRANCH   7  18
BRANCH   5   4
ATOM      4  C   UNL     1      -1.591  -0.045  25.208  0.00  0.00    +0.022 C 
BRANCH   4   2
ATOM      1  C   UNL     1      -0.962   0.780  24.224  0.00  0.00    +0.000 C 
ATOM      2  C   UNL     1      -1.236   0.669  24.995  0.00  0.00    +0.002 C 
ATOM      3  C   UNL     1      -1.155   1.272  25.553  0.00  0.00    +0.000 C 
ENDBRANCH   4   2
ENDBRANCH   5   4
TORSDOF 4
ENDMDL
MODEL 5
REMARK VINA RESULT:     -11.5      1.228      2.452
REMARK  Name = 
REMARK  4 active torsions:
REMARK  status: ('A' for Active; 'I' for Inactive)
REMARK    1  A    between atoms: C_2  and  C_4
REMARK    2  A    between atoms: C_4  and  C_5
REMARK    3  A    between atoms: C_7  and  C_18
REMARK    4  A    between atoms: N_20  and  C_21
REMARK                            x       y       z     vdW  Elec       q    Type
REMARK                         _______ _______ _______ _____ _____    ______ ____
ROOT
ATOM      5  C   UNL     1      -3.977   2.396  24.930  0.00  0.00    +0.095 C 
ATOM      6  N   UNL     1      -3.957   1.617  24.661  0.00  0.00    -0.207 NA
ATOM      7  C   UNL     1      -3.305   1.119  24.575  0.00  0.00    +0.155 C 
ATOM      8  C   UNL     1      -2.512   1.278  24.736  0.00  0.00    +0.055 C 
ATOM      9  C   UNL     1      -2.174   1.974  25.024  0.00  0.00    +0.000 A 
ATOM     10  C   UNL     1      -1.366   2.064  25.163  0.00  0.00    +0.095 A 
ATOM     11  N   UNL     1      -1.239   2.828  25.446  0.00  0.00    -0.244 NA
ATOM     12  C   UNL     1      -1.969   3.211  25.482  0.00  0.00    +0.081 A 
ATOM     13  C   UNL     1      -2.547   2.683  25.221  0.00  0.00    +0.013 A 
ATOM     14  C   UNL     1      -3.350   2.870  25.179  0.00  0.00    -0.005 A 
ATOM     15  C   UNL     1      -3.551   3.676  25.433  0.00  0.00    -0.003 A 
ATOM     16  C   UNL     1      -2.974   4.205  25.694  0.00  0.00    +0.001 A 
ATOM     17  C   UNL     1      -2.183   3.971  25.719  0.00  0.00    +0.019 A 
ENDROOT
BRANCH   7  18
ATOM     18  C   UNL     1      -3.468   0.362  24.289  0.00  0.00    +0.257 C 
ATOM     19  O   UNL     1      -3.535   0.234  23.476  0.00  0.00    -0.272 OA
ATOM     20  N   UNL     1      -3.563  -0.266  24.815  0.00  0.00    -0.206 NA
BRANCH  20  21
ATOM     21  C   UNL     1      -3.726  -1.022  24.529  0.00  0.00    +0.095 C 
ATOM     22  C   UNL     1      -4.357  -1.370  24.126  0.00  0.00    +0.022 C 
ATOM     23  C   UNL     1      -3.957  -2.091  24.124  0.00  0.00    +0.004 C 
ATOM     24  C   UNL     1      -3.327  -1.744  24.526  0.00  0.00    +0.022 C 
ENDBRANCH  20  21
ENDBRANCH   7  18
BRANCH   5   4
ATOM      4  C   UNL     1      -4.723   2.748  24.953  0.00  0.00    +0.022 C 
BRANCH   4   2
ATOM      1  C   UNL     1      -5.902   2.010  24.625  0.00  0.00    +0.000 C 
ATOM      2  C   UNL     1      -5.379   2.306  25.190  0.00  0.00    +0.002 C 
ATOM      3  C   UNL     1      -5.512   2.163  25.992  0.00  0.00    +0.000 C 
ENDBRANCH   4   2
ENDBRANCH   5   4
TORSDOF 4
ENDMDL
