REMARK  Name = 
REMARK  6 active torsions:
REMARK  status: ('A' for Active; 'I' for Inactive)
REMARK    1  A    between atoms: C_2  and  N_3
REMARK    2  A    between atoms: C_2  and  C_27
REMARK    3  A    between atoms: C_4  and  O_6
REMARK    4  A    between atoms: O_6  and  C_7
REMARK    5  A    between atoms: C_9  and  C_12
REMARK    6  A    between atoms: N_15  and  C_19
REMARK                            x       y       z     vdW  Elec       q    Type
REMARK                         _______ _______ _______ _____ _____    ______ ____
ROOT
ATOM      7  C   UNL     1       2.143  -3.712   0.000  0.00  0.00    +0.193 C 
ATOM      8  C   UNL     1       2.811  -4.197   0.000  0.00  0.00    +0.057 C 
ATOM      9  C   UNL     1       2.556  -4.982   0.000  0.00  0.00    +0.050 C 
ATOM     10  C   UNL     1       1.731  -4.982   0.000  0.00  0.00    -0.023 C 
ATOM     11  C   UNL     1       1.476  -4.197   0.000  0.00  0.00    +0.012 C 
ENDROOT
BRANCH   9  12
ATOM     12  C   UNL     1       3.041  -5.649   0.000  0.00  0.00    +0.011 A 
ATOM     13  C   UNL     1       3.866  -5.649   0.000  0.00  0.00    +0.058 A 
ATOM     14  C   UNL     1       4.351  -4.982   0.000  0.00  0.00    +0.052 C 
ATOM     15  N   UNL     1       4.121  -6.434   0.000  0.00  0.00    -0.234 N 
ATOM     16  N   UNL     1       3.453  -6.919   0.000  0.00  0.00    -0.170 NA
ATOM     17  C   UNL     1       2.786  -6.434   0.000  0.00  0.00    +0.077 A 
ATOM     18  C   UNL     1       2.001  -6.689   0.000  0.00  0.00    +0.054 C 
BRANCH  15  19
ATOM     19  C   UNL     1       4.905  -6.689   0.000  0.00  0.00    +0.083 A 
ATOM     20  C   UNL     1       5.519  -6.137   0.000  0.00  0.00    +0.019 A 
ATOM     21  C   UNL     1       6.303  -6.392   0.000  0.00  0.00    -0.002 A 
ATOM     22  C   UNL     1       6.475  -7.199   0.000  0.00  0.00    -0.011 A 
ATOM     23  C   UNL     1       7.259  -7.454   0.000  0.00  0.00    +0.032 C 
ATOM     24  C   UNL     1       5.862  -7.751   0.000  0.00  0.00    +0.055 A 
ATOM     25 CL   UNL     1       6.033  -8.558   0.000  0.00  0.00    -0.083 Cl
ATOM     26  C   UNL     1       5.077  -7.496   0.000  0.00  0.00    +0.030 A 
ENDBRANCH  15  19
ENDBRANCH   9  12
BRANCH   7   6
ATOM      6  O   UNL     1       2.143  -2.888   0.000  0.00  0.00    -0.433 OA
BRANCH   6   4
ATOM      3  N   UNL     1       1.429  -1.650   0.000  0.00  0.00    -0.166 NA
ATOM      4  C   UNL     1       1.429  -2.475   0.000  0.00  0.00    +0.422 C 
ATOM      5  O   UNL     1       0.715  -2.888   0.000  0.00  0.00    -0.225 OA
BRANCH   3   2
ATOM      1  C   UNL     1       0.000  -1.650   0.000  0.00  0.00    +0.028 C 
ATOM      2  C   UNL     1       0.715  -1.238   0.000  0.00  0.00    +0.121 C 
BRANCH   2  27
ATOM     27  C   UNL     1       0.715  -0.412   0.000  0.00  0.00    -0.002 A 
ATOM     28  C   UNL     1       0.000   0.000   0.000  0.00  0.00    -0.003 A 
ATOM     29  C   UNL     1       0.000   0.825   0.000  0.00  0.00    -0.000 A 
ATOM     30  C   UNL     1       0.715   1.238   0.000  0.00  0.00    -0.000 A 
ATOM     31  C   UNL     1       1.429   0.825   0.000  0.00  0.00    -0.000 A 
ATOM     32  C   UNL     1       1.429   0.000   0.000  0.00  0.00    -0.003 A 
ENDBRANCH   2  27
ENDBRANCH   3   2
ENDBRANCH   6   4
ENDBRANCH   7   6
TORSDOF 6
