MODEL 1
REMARK VINA RESULT:     -14.5      0.000      0.000
REMARK  Name = 
REMARK  4 active torsions:
REMARK  status: ('A' for Active; 'I' for Inactive)
REMARK    1  A    between atoms: N_3  and  C_4
REMARK    2  A    between atoms: C_6  and  C_10
REMARK    3  A    between atoms: N_12  and  C_13
REMARK    4  A    between atoms: N_21  and  C_23
REMARK                            x       y       z     vdW  Elec       q    Type
REMARK                         _______ _______ _______ _____ _____    ______ ____
ROOT
ATOM     13  C   UNL     1      -2.725   0.064  24.414  0.00  0.00    +0.131 A 
ATOM     14  C   UNL     1      -3.459   0.161  24.049  0.00  0.00    +0.023 A 
ATOM     15  C   UNL     1      -3.936  -0.495  23.898  0.00  0.00    +0.014 A 
ATOM     16  C   UNL     1      -3.679  -1.249  24.113  0.00  0.00    +0.041 A 
ATOM     17  C   UNL     1      -3.947  -2.127  24.090  0.00  0.00    +0.054 C 
ATOM     18  C   UNL     1      -4.480  -2.535  23.883  0.00  0.00    +0.011 C 
ATOM     19  C   UNL     1      -3.755  -2.628  24.243  0.00  0.00    +0.039 C 
ATOM     20  C   UNL     1      -2.926  -2.941  24.681  0.00  0.00    +0.074 C 
ATOM     21  N   UNL     1      -2.536  -2.209  24.781  0.00  0.00    -0.273 NA
ATOM     22  C   UNL     1      -3.152  -2.445  24.512  0.00  0.00    +0.078 C 
ATOM     29  C   UNL     1      -3.466  -1.713  24.272  0.00  0.00    +0.110 C 
ATOM     30  N   UNL     1      -2.946  -1.346  24.479  0.00  0.00    -0.298 N 
ATOM     31  C   UNL     1      -2.469  -0.690  24.629  0.00  0.00    +0.276 A 
ATOM     32  O   UNL     1      -1.801  -0.291  24.903  0.00  0.00    -0.266 OA
ENDROOT
BRANCH  21  23
ATOM     23  C   UNL     1      -1.946  -1.674  25.000  0.00  0.00    +0.063 C 
ATOM     24  C   UNL     1      -1.964  -1.325  25.747  0.00  0.00    +0.048 C 
ATOM     25  C   UNL     1      -1.375  -0.790  25.966  0.00  0.00    +0.144 C 
ATOM     26  O   UNL     1      -0.767  -0.606  25.439  0.00  0.00    -0.354 OA
ATOM     27  C   UNL     1      -0.750  -0.956  24.692  0.00  0.00    +0.144 C 
ATOM     28  C   UNL     1      -1.339  -1.490  24.473  0.00  0.00    +0.048 C 
ENDBRANCH  21  23
BRANCH  13  12
ATOM      1  O   UNL     1      -2.099   2.134  24.710  0.00  0.00    -0.248 OA
ATOM      2  C   UNL     1      -2.577   1.477  24.560  0.00  0.00    +0.348 C 
ATOM      3  N   UNL     1      -3.381   1.578  24.405  0.00  0.00    -0.161 NA
ATOM     12  N   UNL     1      -2.249   0.720  24.564  0.00  0.00    -0.156 NA
BRANCH   3   4
ATOM      4  C   UNL     1      -3.708   2.336  24.400  0.00  0.00    +0.076 A 
ATOM      5  C   UNL     1      -4.276   2.544  24.961  0.00  0.00    +0.027 A 
ATOM      6  C   UNL     1      -4.603   3.301  24.956  0.00  0.00    +0.070 A 
ATOM      7  C   UNL     1      -4.360   3.851  24.390  0.00  0.00    +0.010 A 
ATOM      8  C   UNL     1      -3.792   3.643  23.830  0.00  0.00    +0.002 A 
ATOM      9  C   UNL     1      -3.466   2.886  23.835  0.00  0.00    +0.017 A 
BRANCH   6  10
ATOM     10  C   UNL     1      -5.171   3.509  25.516  0.00  0.00    +0.100 C 
ATOM     11  N   UNL     1      -5.740   3.715  26.076  0.00  0.00    -0.191 NA
ENDBRANCH   6  10
ENDBRANCH   3   4
ENDBRANCH  13  12
TORSDOF 4
ENDMDL
MODEL 2
REMARK VINA RESULT:     -14.1      1.723      5.225
REMARK  Name = 
REMARK  4 active torsions:
REMARK  status: ('A' for Active; 'I' for Inactive)
REMARK    1  A    between atoms: N_3  and  C_4
REMARK    2  A    between atoms: C_6  and  C_10
REMARK    3  A    between atoms: N_12  and  C_13
REMARK    4  A    between atoms: N_21  and  C_23
REMARK                            x       y       z     vdW  Elec       q    Type
REMARK                         _______ _______ _______ _____ _____    ______ ____
ROOT
ATOM     13  C   UNL     1      -3.053   1.923  24.713  0.00  0.00    +0.131 A 
ATOM     14  C   UNL     1      -2.316   1.552  24.706  0.00  0.00    +0.023 A 
ATOM     15  C   UNL     1      -1.634   1.986  24.868  0.00  0.00    +0.014 A 
ATOM     16  C   UNL     1      -1.688   2.792  25.037  0.00  0.00    +0.041 A 
ATOM     17  C   UNL     1      -1.160   3.514  25.247  0.00  0.00    +0.054 C 
ATOM     18  C   UNL     1      -0.490   3.694  25.353  0.00  0.00    +0.011 C 
ATOM     19  C   UNL     1      -1.219   4.057  25.359  0.00  0.00    +0.039 C 
ATOM     20  C   UNL     1      -1.995   4.667  25.413  0.00  0.00    +0.074 C 
ATOM     21  N   UNL     1      -2.609   4.128  25.235  0.00  0.00    -0.273 NA
ATOM     22  C   UNL     1      -1.900   4.116  25.303  0.00  0.00    +0.078 C 
ATOM     29  C   UNL     1      -1.779   3.308  25.140  0.00  0.00    +0.110 C 
ATOM     30  N   UNL     1      -2.425   3.163  25.044  0.00  0.00    -0.298 N 
ATOM     31  C   UNL     1      -3.108   2.729  24.882  0.00  0.00    +0.276 A 
ATOM     32  O   UNL     1      -3.916   2.608  24.775  0.00  0.00    -0.266 OA
ENDROOT
BRANCH  21  23
ATOM     23  C   UNL     1      -3.374   3.852  25.099  0.00  0.00    +0.063 C 
ATOM     24  C   UNL     1      -3.674   3.830  24.331  0.00  0.00    +0.048 C 
ATOM     25  C   UNL     1      -4.439   3.553  24.194  0.00  0.00    +0.144 C 
ATOM     26  O   UNL     1      -4.905   3.298  24.827  0.00  0.00    -0.354 OA
ATOM     27  C   UNL     1      -4.605   3.320  25.594  0.00  0.00    +0.144 C 
ATOM     28  C   UNL     1      -3.840   3.597  25.731  0.00  0.00    +0.048 C 
ENDBRANCH  21  23
BRANCH  13  12
ATOM      1  O   UNL     1      -4.434   0.242  24.534  0.00  0.00    -0.248 OA
ATOM      2  C   UNL     1      -3.751   0.677  24.697  0.00  0.00    +0.348 C 
ATOM      3  N   UNL     1      -3.086   0.300  25.007  0.00  0.00    -0.161 NA
ATOM     12  N   UNL     1      -3.735   1.489  24.550  0.00  0.00    -0.156 NA
BRANCH   3   4
ATOM      4  C   UNL     1      -3.104  -0.512  25.154  0.00  0.00    +0.076 A 
ATOM      5  C   UNL     1      -2.625  -1.021  24.715  0.00  0.00    +0.027 A 
ATOM      6  C   UNL     1      -2.643  -1.833  24.862  0.00  0.00    +0.070 A 
ATOM      7  C   UNL     1      -3.140  -2.135  25.448  0.00  0.00    +0.010 A 
ATOM      8  C   UNL     1      -3.618  -1.626  25.886  0.00  0.00    +0.002 A 
ATOM      9  C   UNL     1      -3.600  -0.815  25.739  0.00  0.00    +0.017 A 
BRANCH   6  10
ATOM     10  C   UNL     1      -2.164  -2.342  24.424  0.00  0.00    +0.100 C 
ATOM     11  N   UNL     1      -1.685  -2.850  23.985  0.00  0.00    -0.191 NA
ENDBRANCH   6  10
ENDBRANCH   3   4
ENDBRANCH  13  12
TORSDOF 4
ENDMDL
MODEL 3
REMARK VINA RESULT:     -13.9      1.734      4.726
REMARK  Name = 
REMARK  4 active torsions:
REMARK  status: ('A' for Active; 'I' for Inactive)
REMARK    1  A    between atoms: N_3  and  C_4
REMARK    2  A    between atoms: C_6  and  C_10
REMARK    3  A    between atoms: N_12  and  C_13
REMARK    4  A    between atoms: N_21  and  C_23
REMARK                            x       y       z     vdW  Elec       q    Type
REMARK                         _______ _______ _______ _____ _____    ______ ____
ROOT
ATOM     13  C   UNL     1      -1.946   1.570  24.821  0.00  0.00    +0.131 A 
ATOM     14  C   UNL     1      -2.766   1.516  24.745  0.00  0.00    +0.023 A 
ATOM     15  C   UNL     1      -3.237   2.180  24.877  0.00  0.00    +0.014 A 
ATOM     16  C   UNL     1      -2.889   2.899  25.084  0.00  0.00    +0.041 A 
ATOM     17  C   UNL     1      -3.110   3.767  25.286  0.00  0.00    +0.054 C 
ATOM     18  C   UNL     1      -3.664   4.193  25.351  0.00  0.00    +0.011 C 
ATOM     19  C   UNL     1      -2.854   4.243  25.425  0.00  0.00    +0.039 C 
ATOM     20  C   UNL     1      -1.910   4.501  25.561  0.00  0.00    +0.074 C 
ATOM     21  N   UNL     1      -1.541   3.768  25.404  0.00  0.00    -0.273 NA
ATOM     22  C   UNL     1      -2.202   4.032  25.421  0.00  0.00    +0.078 C 
ATOM     29  C   UNL     1      -2.613   3.338  25.215  0.00  0.00    +0.110 C 
ATOM     30  N   UNL     1      -2.069   2.953  25.159  0.00  0.00    -0.298 N 
ATOM     31  C   UNL     1      -1.597   2.288  25.028  0.00  0.00    +0.276 A 
ATOM     32  O   UNL     1      -0.893   1.863  24.974  0.00  0.00    -0.266 OA
ENDROOT
BRANCH  21  23
ATOM     23  C   UNL     1      -0.935   3.216  25.311  0.00  0.00    +0.063 C 
ATOM     24  C   UNL     1      -0.599   3.093  24.568  0.00  0.00    +0.048 C 
ATOM     25  C   UNL     1       0.008   2.541  24.475  0.00  0.00    +0.144 C 
ATOM     26  O   UNL     1       0.278   2.111  25.125  0.00  0.00    -0.354 OA
ATOM     27  C   UNL     1      -0.058   2.234  25.868  0.00  0.00    +0.144 C 
ATOM     28  C   UNL     1      -0.664   2.786  25.962  0.00  0.00    +0.048 C 
ENDBRANCH  21  23
BRANCH  13  12
ATOM      1  O   UNL     1      -1.320  -0.515  24.657  0.00  0.00    -0.248 OA
ATOM      2  C   UNL     1      -1.791   0.150  24.789  0.00  0.00    +0.348 C 
ATOM      3  N   UNL     1      -2.578   0.059  25.022  0.00  0.00    -0.161 NA
ATOM     12  N   UNL     1      -1.476   0.906  24.689  0.00  0.00    -0.156 NA
BRANCH   3   4
ATOM      4  C   UNL     1      -2.893  -0.697  25.122  0.00  0.00    +0.076 A 
ATOM      5  C   UNL     1      -3.325  -1.049  24.514  0.00  0.00    +0.027 A 
ATOM      6  C   UNL     1      -3.640  -1.804  24.615  0.00  0.00    +0.070 A 
ATOM      7  C   UNL     1      -3.522  -2.209  25.324  0.00  0.00    +0.010 A 
ATOM      8  C   UNL     1      -3.089  -1.858  25.933  0.00  0.00    +0.002 A 
ATOM      9  C   UNL     1      -2.775  -1.102  25.832  0.00  0.00    +0.017 A 
BRANCH   6  10
ATOM     10  C   UNL     1      -4.072  -2.155  24.006  0.00  0.00    +0.100 C 
ATOM     11  N   UNL     1      -4.505  -2.506  23.399  0.00  0.00    -0.191 NA
ENDBRANCH   6  10
ENDBRANCH   3   4
ENDBRANCH  13  12
TORSDOF 4
ENDMDL
MODEL 4
REMARK VINA RESULT:     -13.6      1.302      4.763
REMARK  Name = 
REMARK  4 active torsions:
REMARK  status: ('A' for Active; 'I' for Inactive)
REMARK    1  A    between atoms: N_3  and  C_4
REMARK    2  A    between atoms: C_6  and  C_10
REMARK    3  A    between atoms: N_12  and  C_13
REMARK    4  A    between atoms: N_21  and  C_23
REMARK                            x       y       z     vdW  Elec       q    Type
REMARK                         _______ _______ _______ _____ _____    ______ ____
ROOT
ATOM     13  C   UNL     1      -3.286   1.799  24.673  0.00  0.00    +0.131 A 
ATOM     14  C   UNL     1      -3.720   1.098  24.663  0.00  0.00    +0.023 A 
ATOM     15  C   UNL     1      -4.515   1.102  24.885  0.00  0.00    +0.014 A 
ATOM     16  C   UNL     1      -4.875   1.807  25.116  0.00  0.00    +0.041 A 
ATOM     17  C   UNL     1      -5.684   2.135  25.402  0.00  0.00    +0.054 C 
ATOM     18  C   UNL     1      -6.341   1.932  25.546  0.00  0.00    +0.011 C 
ATOM     19  C   UNL     1      -5.908   2.622  25.555  0.00  0.00    +0.039 C 
ATOM     20  C   UNL     1      -5.561   3.544  25.630  0.00  0.00    +0.074 C 
ATOM     21  N   UNL     1      -4.772   3.416  25.387  0.00  0.00    -0.273 NA
ATOM     22  C   UNL     1      -5.363   3.031  25.480  0.00  0.00    +0.078 C 
ATOM     29  C   UNL     1      -5.059   2.289  25.257  0.00  0.00    +0.110 C 
ATOM     30  N   UNL     1      -4.440   2.508  25.126  0.00  0.00    -0.298 N 
ATOM     31  C   UNL     1      -3.645   2.504  24.904  0.00  0.00    +0.276 A 
ATOM     32  O   UNL     1      -2.902   2.831  24.759  0.00  0.00    -0.266 OA
ENDROOT
BRANCH  21  23
ATOM     23  C   UNL     1      -3.986   3.588  25.201  0.00  0.00    +0.063 C 
ATOM     24  C   UNL     1      -3.776   3.763  24.423  0.00  0.00    +0.048 C 
ATOM     25  C   UNL     1      -2.990   3.935  24.237  0.00  0.00    +0.144 C 
ATOM     26  O   UNL     1      -2.415   3.932  24.830  0.00  0.00    -0.354 OA
ATOM     27  C   UNL     1      -2.627   3.758  25.607  0.00  0.00    +0.144 C 
ATOM     28  C   UNL     1      -3.411   3.586  25.794  0.00  0.00    +0.048 C 
ENDBRANCH  21  23
BRANCH  13  12
ATOM      1  O   UNL     1      -1.234   1.121  24.365  0.00  0.00    -0.248 OA
ATOM      2  C   UNL     1      -2.029   1.125  24.587  0.00  0.00    +0.348 C 
ATOM      3  N   UNL     1      -2.361   0.460  24.944  0.00  0.00    -0.161 NA
ATOM     12  N   UNL     1      -2.491   1.794  24.451  0.00  0.00    -0.156 NA
BRANCH   3   4
ATOM      4  C   UNL     1      -1.898  -0.210  25.079  0.00  0.00    +0.076 A 
ATOM      5  C   UNL     1      -2.072  -0.917  24.692  0.00  0.00    +0.027 A 
ATOM      6  C   UNL     1      -1.609  -1.586  24.828  0.00  0.00    +0.070 A 
ATOM      7  C   UNL     1      -0.971  -1.548  25.350  0.00  0.00    +0.010 A 
ATOM      8  C   UNL     1      -0.797  -0.841  25.738  0.00  0.00    +0.002 A 
ATOM      9  C   UNL     1      -1.261  -0.172  25.602  0.00  0.00    +0.017 A 
BRANCH   6  10
ATOM     10  C   UNL     1      -1.783  -2.294  24.440  0.00  0.00    +0.100 C 
ATOM     11  N   UNL     1      -1.957  -3.001  24.054  0.00  0.00    -0.191 NA
ENDBRANCH   6  10
ENDBRANCH   3   4
ENDBRANCH  13  12
TORSDOF 4
ENDMDL
MODEL 5
REMARK VINA RESULT:     -13.0      1.685      2.593
REMARK  Name = 
REMARK  4 active torsions:
REMARK  status: ('A' for Active; 'I' for Inactive)
REMARK    1  A    between atoms: N_3  and  C_4
REMARK    2  A    between atoms: C_6  and  C_10
REMARK    3  A    between atoms: N_12  and  C_13
REMARK    4  A    between atoms: N_21  and  C_23
REMARK                            x       y       z     vdW  Elec       q    Type
REMARK                         _______ _______ _______ _____ _____    ______ ____
ROOT
ATOM     13  C   UNL     1      -2.602   0.740  24.487  0.00  0.00    +0.131 A 
ATOM     14  C   UNL     1      -1.821   1.005  24.501  0.00  0.00    +0.023 A 
ATOM     15  C   UNL     1      -1.206   0.471  24.633  0.00  0.00    +0.014 A 
ATOM     16  C   UNL     1      -1.372  -0.328  24.751  0.00  0.00    +0.041 A 
ATOM     17  C   UNL     1      -0.950  -1.128  24.913  0.00  0.00    +0.054 C 
ATOM     18  C   UNL     1      -0.312  -1.405  25.005  0.00  0.00    +0.011 C 
ATOM     19  C   UNL     1      -1.084  -1.664  24.990  0.00  0.00    +0.039 C 
ATOM     20  C   UNL     1      -1.937  -2.162  25.009  0.00  0.00    +0.074 C 
ATOM     21  N   UNL     1      -2.469  -1.534  24.867  0.00  0.00    -0.273 NA
ATOM     22  C   UNL     1      -1.766  -1.624  24.934  0.00  0.00    +0.078 C 
ATOM     29  C   UNL     1      -1.533  -0.832  24.822  0.00  0.00    +0.110 C 
ATOM     30  N   UNL     1      -2.153  -0.593  24.737  0.00  0.00    -0.298 N 
ATOM     31  C   UNL     1      -2.768  -0.060  24.605  0.00  0.00    +0.276 A 
ATOM     32  O   UNL     1      -3.551   0.178  24.508  0.00  0.00    -0.266 OA
ENDROOT
BRANCH  21  23
ATOM     23  C   UNL     1      -3.188  -1.146  24.751  0.00  0.00    +0.063 C 
ATOM     24  C   UNL     1      -3.603  -0.844  25.397  0.00  0.00    +0.048 C 
ATOM     25  C   UNL     1      -4.322  -0.456  25.281  0.00  0.00    +0.144 C 
ATOM     26  O   UNL     1      -4.626  -0.371  24.518  0.00  0.00    -0.354 OA
ATOM     27  C   UNL     1      -4.211  -0.673  23.873  0.00  0.00    +0.144 C 
ATOM     28  C   UNL     1      -3.493  -1.061  23.988  0.00  0.00    +0.048 C 
ENDBRANCH  21  23
BRANCH  13  12
ATOM      1  O   UNL     1      -3.766   2.586  24.488  0.00  0.00    -0.248 OA
ATOM      2  C   UNL     1      -3.151   2.052  24.620  0.00  0.00    +0.348 C 
ATOM      3  N   UNL     1      -2.471   2.296  25.019  0.00  0.00    -0.161 NA
ATOM     12  N   UNL     1      -3.216   1.274  24.354  0.00  0.00    -0.156 NA
BRANCH   3   4
ATOM      4  C   UNL     1      -2.407   3.075  25.285  0.00  0.00    +0.076 A 
ATOM      5  C   UNL     1      -1.806   3.561  24.997  0.00  0.00    +0.027 A 
ATOM      6  C   UNL     1      -1.742   4.339  25.263  0.00  0.00    +0.070 A 
ATOM      7  C   UNL     1      -2.279   4.631  25.818  0.00  0.00    +0.010 A 
ATOM      8  C   UNL     1      -2.879   4.144  26.107  0.00  0.00    +0.002 A 
ATOM      9  C   UNL     1      -2.943   3.366  25.840  0.00  0.00    +0.017 A 
BRANCH   6  10
ATOM     10  C   UNL     1      -1.142   4.826  24.974  0.00  0.00    +0.100 C 
ATOM     11  N   UNL     1      -0.542   5.311  24.685  0.00  0.00    -0.191 NA
ENDBRANCH   6  10
ENDBRANCH   3   4
ENDBRANCH  13  12
TORSDOF 4
ENDMDL
