MODEL 1
REMARK VINA RESULT:      -9.7      0.000      0.000
REMARK  Name = 
REMARK  6 active torsions:
REMARK  status: ('A' for Active; 'I' for Inactive)
REMARK    1  A    between atoms: O_2  and  C_3
REMARK    2  A    between atoms: C_7  and  C_8
REMARK    3  A    between atoms: C_8  and  N_9
REMARK    4  A    between atoms: C_13  and  C_14
REMARK    5  A    between atoms: C_16  and  C_19
REMARK    6  A    between atoms: C_22  and  N_25
REMARK                            x       y       z     vdW  Elec       q    Type
REMARK                         _______ _______ _______ _____ _____    ______ ____
ROOT
ATOM     14  C   UNL     1      -2.267  -0.351  24.717  0.00  0.00    +0.251 A 
ATOM     15  N   UNL     1      -1.707  -0.296  24.113  0.00  0.00    -0.190 NA
ATOM     16  C   UNL     1      -0.971  -0.163  24.459  0.00  0.00    +0.205 A 
ATOM     17  N   UNL     1      -1.075  -0.135  25.277  0.00  0.00    -0.056 NA
ATOM     18  O   UNL     1      -1.876  -0.251  25.436  0.00  0.00    -0.336 OA
ENDROOT
BRANCH  16  19
ATOM     19  C   UNL     1      -0.255  -0.073  24.058  0.00  0.00    +0.058 A 
ATOM     20  C   UNL     1       0.020   0.681  23.870  0.00  0.00    +0.008 A 
ATOM     21  C   UNL     1       0.736   0.771  23.469  0.00  0.00    +0.038 A 
ATOM     22  C   UNL     1       1.175   0.106  23.257  0.00  0.00    +0.149 A 
ATOM     23  N   UNL     1       0.900  -0.648  23.444  0.00  0.00    -0.226 NA
ATOM     24  C   UNL     1       0.184  -0.738  23.845  0.00  0.00    +0.104 A 
BRANCH  22  25
ATOM     25  N   UNL     1       1.891   0.196  22.855  0.00  0.00    -0.271 N 
ATOM     26  C   UNL     1       2.553   0.606  23.130  0.00  0.00    +0.104 A 
ATOM     27  C   UNL     1       3.141   0.555  22.554  0.00  0.00    +0.120 A 
ATOM     28  N   UNL     1       2.843   0.113  21.923  0.00  0.00    -0.222 NA
ATOM     29  C   UNL     1       2.071  -0.109  22.110  0.00  0.00    +0.184 A 
ENDBRANCH  22  25
ENDBRANCH  16  19
BRANCH  14  13
ATOM      9  N   UNL     1      -3.648   0.097  24.494  0.00  0.00    -0.263 NA
ATOM     10  C   UNL     1      -4.380  -0.277  24.425  0.00  0.00    +0.073 C 
ATOM     11  C   UNL     1      -4.259  -1.089  24.507  0.00  0.00    +0.019 C 
ATOM     12  C   UNL     1      -3.452  -1.216  24.626  0.00  0.00    +0.027 C 
ATOM     13  C   UNL     1      -3.075  -0.482  24.618  0.00  0.00    +0.138 C 
BRANCH   9   8
ATOM      8  C   UNL     1      -3.514   0.910  24.446  0.00  0.00    +0.103 C 
BRANCH   8   7
ATOM      3  C   UNL     1      -5.313   2.500  25.050  0.00  0.00    +0.142 A 
ATOM      4  C   UNL     1      -4.786   2.684  24.442  0.00  0.00    +0.079 A 
ATOM      5  C   UNL     1      -4.187   2.155  24.241  0.00  0.00    +0.196 A 
ATOM      6  O   UNL     1      -3.660   2.339  23.633  0.00  0.00    -0.287 OA
ATOM      7  C   UNL     1      -4.114   1.440  24.648  0.00  0.00    +0.033 A 
ATOM     30  C   UNL     1      -4.641   1.256  25.255  0.00  0.00    +0.003 A 
ATOM     31  C   UNL     1      -5.240   1.787  25.456  0.00  0.00    +0.037 A 
BRANCH   3   2
ATOM      1  C   UNL     1      -5.740   3.690  25.716  0.00  0.00    +0.252 C 
ATOM      2  O   UNL     1      -5.912   3.030  25.251  0.00  0.00    -0.471 OA
ENDBRANCH   3   2
ENDBRANCH   8   7
ENDBRANCH   9   8
ENDBRANCH  14  13
TORSDOF 6
ENDMDL
MODEL 2
REMARK VINA RESULT:      -9.0      2.952      5.087
REMARK  Name = 
REMARK  6 active torsions:
REMARK  status: ('A' for Active; 'I' for Inactive)
REMARK    1  A    between atoms: O_2  and  C_3
REMARK    2  A    between atoms: C_7  and  C_8
REMARK    3  A    between atoms: C_8  and  N_9
REMARK    4  A    between atoms: C_13  and  C_14
REMARK    5  A    between atoms: C_16  and  C_19
REMARK    6  A    between atoms: C_22  and  N_25
REMARK                            x       y       z     vdW  Elec       q    Type
REMARK                         _______ _______ _______ _____ _____    ______ ____
ROOT
ATOM     14  C   UNL     1      -3.733   2.729  24.870  0.00  0.00    +0.251 A 
ATOM     15  N   UNL     1      -3.561   1.935  25.015  0.00  0.00    -0.190 NA
ATOM     16  C   UNL     1      -3.973   1.480  24.464  0.00  0.00    +0.205 A 
ATOM     17  N   UNL     1      -4.400   1.992  23.979  0.00  0.00    -0.056 NA
ATOM     18  O   UNL     1      -4.252   2.763  24.229  0.00  0.00    -0.336 OA
ENDROOT
BRANCH  16  19
ATOM     19  C   UNL     1      -3.960   0.656  24.408  0.00  0.00    +0.058 A 
ATOM     20  C   UNL     1      -4.356   0.199  24.969  0.00  0.00    +0.008 A 
ATOM     21  C   UNL     1      -4.343  -0.624  24.913  0.00  0.00    +0.038 A 
ATOM     22  C   UNL     1      -3.935  -0.989  24.297  0.00  0.00    +0.149 A 
ATOM     23  N   UNL     1      -3.540  -0.532  23.735  0.00  0.00    -0.226 NA
ATOM     24  C   UNL     1      -3.552   0.291  23.791  0.00  0.00    +0.104 A 
BRANCH  22  25
ATOM     25  N   UNL     1      -3.923  -1.813  24.241  0.00  0.00    -0.271 N 
ATOM     26  C   UNL     1      -3.445  -2.322  24.682  0.00  0.00    +0.104 A 
ATOM     27  C   UNL     1      -3.613  -3.095  24.448  0.00  0.00    +0.120 A 
ATOM     28  N   UNL     1      -4.193  -3.064  23.862  0.00  0.00    -0.222 NA
ATOM     29  C   UNL     1      -4.384  -2.271  23.734  0.00  0.00    +0.184 A 
ENDBRANCH  22  25
ENDBRANCH  16  19
BRANCH  14  13
ATOM      9  N   UNL     1      -2.657   3.634  25.294  0.00  0.00    -0.263 NA
ATOM     10  C   UNL     1      -2.608   4.292  25.789  0.00  0.00    +0.073 C 
ATOM     11  C   UNL     1      -3.362   4.439  26.092  0.00  0.00    +0.019 C 
ATOM     12  C   UNL     1      -3.875   3.871  25.784  0.00  0.00    +0.027 C 
ATOM     13  C   UNL     1      -3.439   3.373  25.291  0.00  0.00    +0.138 C 
BRANCH   9   8
ATOM      8  C   UNL     1      -2.032   3.296  24.876  0.00  0.00    +0.103 C 
BRANCH   8   7
ATOM      3  C   UNL     1       0.095   2.777  26.031  0.00  0.00    +0.142 A 
ATOM      4  C   UNL     1       0.100   2.991  25.234  0.00  0.00    +0.079 A 
ATOM      5  C   UNL     1      -0.608   3.164  24.849  0.00  0.00    +0.196 A 
ATOM      6  O   UNL     1      -0.603   3.378  24.052  0.00  0.00    -0.287 OA
ATOM      7  C   UNL     1      -1.323   3.123  25.261  0.00  0.00    +0.033 A 
ATOM     30  C   UNL     1      -1.327   2.908  26.058  0.00  0.00    +0.003 A 
ATOM     31  C   UNL     1      -0.618   2.735  26.442  0.00  0.00    +0.037 A 
BRANCH   3   2
ATOM      1  C   UNL     1       0.835   2.599  27.241  0.00  0.00    +0.252 C 
ATOM      2  O   UNL     1       0.804   2.604  26.416  0.00  0.00    -0.471 OA
ENDBRANCH   3   2
ENDBRANCH   8   7
ENDBRANCH   9   8
ENDBRANCH  14  13
TORSDOF 6
ENDMDL
MODEL 3
REMARK VINA RESULT:      -8.9      3.166      4.488
REMARK  Name = 
REMARK  6 active torsions:
REMARK  status: ('A' for Active; 'I' for Inactive)
REMARK    1  A    between atoms: O_2  and  C_3
REMARK    2  A    between atoms: C_7  and  C_8
REMARK    3  A    between atoms: C_8  and  N_9
REMARK    4  A    between atoms: C_13  and  C_14
REMARK    5  A    between atoms: C_16  and  C_19
REMARK    6  A    between atoms: C_22  and  N_25
REMARK                            x       y       z     vdW  Elec       q    Type
REMARK                         _______ _______ _______ _____ _____    ______ ____
ROOT
ATOM     14  C   UNL     1      -5.231   1.889  25.113  0.00  0.00    +0.251 A 
ATOM     15  N   UNL     1      -4.593   1.367  25.164  0.00  0.00    -0.190 NA
ATOM     16  C   UNL     1      -4.826   0.647  24.836  0.00  0.00    +0.205 A 
ATOM     17  N   UNL     1      -5.607   0.723  24.583  0.00  0.00    -0.056 NA
ATOM     18  O   UNL     1      -5.857   1.490  24.754  0.00  0.00    -0.336 OA
ENDROOT
BRANCH  16  19
ATOM     19  C   UNL     1      -4.360  -0.031  24.773  0.00  0.00    +0.058 A 
ATOM     20  C   UNL     1      -4.035  -0.372  25.451  0.00  0.00    +0.008 A 
ATOM     21  C   UNL     1      -3.568  -1.049  25.387  0.00  0.00    +0.038 A 
ATOM     22  C   UNL     1      -3.426  -1.385  24.648  0.00  0.00    +0.149 A 
ATOM     23  N   UNL     1      -3.751  -1.044  23.970  0.00  0.00    -0.226 NA
ATOM     24  C   UNL     1      -4.218  -0.367  24.033  0.00  0.00    +0.104 A 
BRANCH  22  25
ATOM     25  N   UNL     1      -2.959  -2.063  24.584  0.00  0.00    -0.271 N 
ATOM     26  C   UNL     1      -2.134  -2.085  24.584  0.00  0.00    +0.104 A 
ATOM     27  C   UNL     1      -1.901  -2.873  24.510  0.00  0.00    +0.120 A 
ATOM     28  N   UNL     1      -2.581  -3.338  24.465  0.00  0.00    -0.222 NA
ATOM     29  C   UNL     1      -3.236  -2.836  24.510  0.00  0.00    +0.184 A 
ENDBRANCH  22  25
ENDBRANCH  16  19
BRANCH  14  13
ATOM      9  N   UNL     1      -4.643   3.227  25.260  0.00  0.00    -0.263 NA
ATOM     10  C   UNL     1      -4.881   3.934  25.611  0.00  0.00    +0.073 C 
ATOM     11  C   UNL     1      -5.626   3.815  25.944  0.00  0.00    +0.019 C 
ATOM     12  C   UNL     1      -5.849   3.034  25.798  0.00  0.00    +0.027 C 
ATOM     13  C   UNL     1      -5.240   2.671  25.375  0.00  0.00    +0.138 C 
BRANCH   9   8
ATOM      8  C   UNL     1      -3.931   3.099  24.863  0.00  0.00    +0.103 C 
BRANCH   8   7
ATOM      3  C   UNL     1      -2.016   4.625  25.230  0.00  0.00    +0.142 A 
ATOM      4  C   UNL     1      -2.239   4.420  24.462  0.00  0.00    +0.079 A 
ATOM      5  C   UNL     1      -2.877   3.911  24.339  0.00  0.00    +0.196 A 
ATOM      6  O   UNL     1      -3.100   3.707  23.572  0.00  0.00    -0.287 OA
ATOM      7  C   UNL     1      -3.293   3.608  24.985  0.00  0.00    +0.033 A 
ATOM     30  C   UNL     1      -3.069   3.812  25.753  0.00  0.00    +0.003 A 
ATOM     31  C   UNL     1      -2.431   4.321  25.874  0.00  0.00    +0.037 A 
BRANCH   3   2
ATOM      1  C   UNL     1      -0.677   5.023  24.930  0.00  0.00    +0.252 C 
ATOM      2  O   UNL     1      -1.379   5.133  25.352  0.00  0.00    -0.471 OA
ENDBRANCH   3   2
ENDBRANCH   8   7
ENDBRANCH   9   8
ENDBRANCH  14  13
TORSDOF 6
ENDMDL
MODEL 4
REMARK VINA RESULT:      -8.7      2.484      3.796
REMARK  Name = 
REMARK  6 active torsions:
REMARK  status: ('A' for Active; 'I' for Inactive)
REMARK    1  A    between atoms: O_2  and  C_3
REMARK    2  A    between atoms: C_7  and  C_8
REMARK    3  A    between atoms: C_8  and  N_9
REMARK    4  A    between atoms: C_13  and  C_14
REMARK    5  A    between atoms: C_16  and  C_19
REMARK    6  A    between atoms: C_22  and  N_25
REMARK                            x       y       z     vdW  Elec       q    Type
REMARK                         _______ _______ _______ _____ _____    ______ ____
ROOT
ATOM     14  C   UNL     1      -0.613   3.076  25.292  0.00  0.00    +0.251 A 
ATOM     15  N   UNL     1      -0.973   2.376  25.043  0.00  0.00    -0.190 NA
ATOM     16  C   UNL     1      -0.510   1.745  25.302  0.00  0.00    +0.205 A 
ATOM     17  N   UNL     1       0.136   2.054  25.712  0.00  0.00    -0.056 NA
ATOM     18  O   UNL     1       0.072   2.875  25.705  0.00  0.00    -0.336 OA
ENDROOT
BRANCH  16  19
ATOM     19  C   UNL     1      -0.665   0.945  25.175  0.00  0.00    +0.058 A 
ATOM     20  C   UNL     1      -1.089   0.513  25.735  0.00  0.00    +0.008 A 
ATOM     21  C   UNL     1      -1.245  -0.288  25.608  0.00  0.00    +0.038 A 
ATOM     22  C   UNL     1      -0.977  -0.655  24.920  0.00  0.00    +0.149 A 
ATOM     23  N   UNL     1      -0.552  -0.224  24.359  0.00  0.00    -0.226 NA
ATOM     24  C   UNL     1      -0.397   0.577  24.487  0.00  0.00    +0.104 A 
BRANCH  22  25
ATOM     25  N   UNL     1      -1.132  -1.456  24.792  0.00  0.00    -0.271 N 
ATOM     26  C   UNL     1      -1.770  -1.764  24.369  0.00  0.00    +0.104 A 
ATOM     27  C   UNL     1      -1.710  -2.587  24.380  0.00  0.00    +0.120 A 
ATOM     28  N   UNL     1      -1.034  -2.787  24.811  0.00  0.00    -0.222 NA
ATOM     29  C   UNL     1      -0.678  -2.087  25.065  0.00  0.00    +0.184 A 
ENDBRANCH  22  25
ENDBRANCH  16  19
BRANCH  14  13
ATOM      9  N   UNL     1      -1.589   4.163  25.444  0.00  0.00    -0.263 NA
ATOM     10  C   UNL     1      -1.649   4.938  25.169  0.00  0.00    +0.073 C 
ATOM     11  C   UNL     1      -0.984   5.094  24.705  0.00  0.00    +0.019 C 
ATOM     12  C   UNL     1      -0.515   4.416  24.695  0.00  0.00    +0.027 C 
ATOM     13  C   UNL     1      -0.890   3.840  25.152  0.00  0.00    +0.138 C 
BRANCH   9   8
ATOM      8  C   UNL     1      -2.136   3.778  25.928  0.00  0.00    +0.103 C 
BRANCH   8   7
ATOM      3  C   UNL     1      -4.556   3.936  25.434  0.00  0.00    +0.142 A 
ATOM      4  C   UNL     1      -4.289   3.999  26.212  0.00  0.00    +0.079 A 
ATOM      5  C   UNL     1      -3.483   3.947  26.377  0.00  0.00    +0.196 A 
ATOM      6  O   UNL     1      -3.216   4.009  27.155  0.00  0.00    -0.287 OA
ATOM      7  C   UNL     1      -2.943   3.831  25.763  0.00  0.00    +0.033 A 
ATOM     30  C   UNL     1      -3.210   3.768  24.985  0.00  0.00    +0.003 A 
ATOM     31  C   UNL     1      -4.017   3.821  24.821  0.00  0.00    +0.037 A 
BRANCH   3   2
ATOM      1  C   UNL     1      -5.863   3.359  25.453  0.00  0.00    +0.252 C 
ATOM      2  O   UNL     1      -5.362   3.989  25.269  0.00  0.00    -0.471 OA
ENDBRANCH   3   2
ENDBRANCH   8   7
ENDBRANCH   9   8
ENDBRANCH  14  13
TORSDOF 6
ENDMDL
MODEL 5
REMARK VINA RESULT:      -8.7      1.422      2.806
REMARK  Name = 
REMARK  6 active torsions:
REMARK  status: ('A' for Active; 'I' for Inactive)
REMARK    1  A    between atoms: O_2  and  C_3
REMARK    2  A    between atoms: C_7  and  C_8
REMARK    3  A    between atoms: C_8  and  N_9
REMARK    4  A    between atoms: C_13  and  C_14
REMARK    5  A    between atoms: C_16  and  C_19
REMARK    6  A    between atoms: C_22  and  N_25
REMARK                            x       y       z     vdW  Elec       q    Type
REMARK                         _______ _______ _______ _____ _____    ______ ____
ROOT
ATOM     14  C   UNL     1      -2.063   1.609  24.733  0.00  0.00    +0.251 A 
ATOM     15  N   UNL     1      -1.518   1.336  24.176  0.00  0.00    -0.190 NA
ATOM     16  C   UNL     1      -0.763   1.426  24.494  0.00  0.00    +0.205 A 
ATOM     17  N   UNL     1      -0.840   1.754  25.246  0.00  0.00    -0.056 NA
ATOM     18  O   UNL     1      -1.643   1.867  25.394  0.00  0.00    -0.336 OA
ENDROOT
BRANCH  16  19
ATOM     19  C   UNL     1      -0.053   1.223  24.123  0.00  0.00    +0.058 A 
ATOM     20  C   UNL     1      -0.007   0.534  23.672  0.00  0.00    +0.008 A 
ATOM     21  C   UNL     1       0.702   0.332  23.301  0.00  0.00    +0.038 A 
ATOM     22  C   UNL     1       1.364   0.817  23.383  0.00  0.00    +0.149 A 
ATOM     23  N   UNL     1       1.317   1.506  23.835  0.00  0.00    -0.226 NA
ATOM     24  C   UNL     1       0.608   1.709  24.205  0.00  0.00    +0.104 A 
BRANCH  22  25
ATOM     25  N   UNL     1       2.073   0.614  23.012  0.00  0.00    -0.271 N 
ATOM     26  C   UNL     1       2.794   1.007  23.097  0.00  0.00    +0.104 A 
ATOM     27  C   UNL     1       3.352   0.619  22.629  0.00  0.00    +0.120 A 
ATOM     28  N   UNL     1       2.976  -0.014  22.256  0.00  0.00    -0.222 NA
ATOM     29  C   UNL     1       2.185  -0.016  22.493  0.00  0.00    +0.184 A 
ENDBRANCH  22  25
ENDBRANCH  16  19
BRANCH  14  13
ATOM      9  N   UNL     1      -3.402   1.017  24.852  0.00  0.00    -0.263 NA
ATOM     10  C   UNL     1      -4.168   1.261  24.667  0.00  0.00    +0.073 C 
ATOM     11  C   UNL     1      -4.121   2.019  24.343  0.00  0.00    +0.019 C 
ATOM     12  C   UNL     1      -3.327   2.242  24.329  0.00  0.00    +0.027 C 
ATOM     13  C   UNL     1      -2.883   1.621  24.643  0.00  0.00    +0.138 C 
BRANCH   9   8
ATOM      8  C   UNL     1      -3.193   0.293  25.187  0.00  0.00    +0.103 C 
BRANCH   8   7
ATOM      3  C   UNL     1      -4.129  -1.811  24.276  0.00  0.00    +0.142 A 
ATOM      4  C   UNL     1      -3.801  -1.799  25.034  0.00  0.00    +0.079 A 
ATOM      5  C   UNL     1      -3.490  -1.098  25.338  0.00  0.00    +0.196 A 
ATOM      6  O   UNL     1      -3.163  -1.086  26.095  0.00  0.00    -0.287 OA
ATOM      7  C   UNL     1      -3.505  -0.409  24.884  0.00  0.00    +0.033 A 
ATOM     30  C   UNL     1      -3.832  -0.421  24.126  0.00  0.00    +0.003 A 
ATOM     31  C   UNL     1      -4.144  -1.122  23.823  0.00  0.00    +0.037 A 
BRANCH   3   2
ATOM      1  C   UNL     1      -3.936  -3.134  23.773  0.00  0.00    +0.252 C 
ATOM      2  O   UNL     1      -4.440  -2.511  23.973  0.00  0.00    -0.471 OA
ENDBRANCH   3   2
ENDBRANCH   8   7
ENDBRANCH   9   8
ENDBRANCH  14  13
TORSDOF 6
ENDMDL
MODEL 6
REMARK VINA RESULT:      -8.6      1.729      5.960
REMARK  Name = 
REMARK  6 active torsions:
REMARK  status: ('A' for Active; 'I' for Inactive)
REMARK    1  A    between atoms: O_2  and  C_3
REMARK    2  A    between atoms: C_7  and  C_8
REMARK    3  A    between atoms: C_8  and  N_9
REMARK    4  A    between atoms: C_13  and  C_14
REMARK    5  A    between atoms: C_16  and  C_19
REMARK    6  A    between atoms: C_22  and  N_25
REMARK                            x       y       z     vdW  Elec       q    Type
REMARK                         _______ _______ _______ _____ _____    ______ ____
ROOT
ATOM     14  C   UNL     1      -2.240  -0.467  24.549  0.00  0.00    +0.251 A 
ATOM     15  N   UNL     1      -2.529   0.213  24.917  0.00  0.00    -0.190 NA
ATOM     16  C   UNL     1      -3.259   0.395  24.580  0.00  0.00    +0.205 A 
ATOM     17  N   UNL     1      -3.422  -0.172  24.004  0.00  0.00    -0.056 NA
ATOM     18  O   UNL     1      -2.793  -0.704  23.985  0.00  0.00    -0.336 OA
ENDROOT
BRANCH  16  19
ATOM     19  C   UNL     1      -3.742   1.033  24.784  0.00  0.00    +0.058 A 
ATOM     20  C   UNL     1      -4.492   0.897  25.099  0.00  0.00    +0.008 A 
ATOM     21  C   UNL     1      -4.975   1.534  25.303  0.00  0.00    +0.038 A 
ATOM     22  C   UNL     1      -4.708   2.307  25.191  0.00  0.00    +0.149 A 
ATOM     23  N   UNL     1      -3.958   2.442  24.876  0.00  0.00    -0.226 NA
ATOM     24  C   UNL     1      -3.475   1.805  24.672  0.00  0.00    +0.104 A 
BRANCH  22  25
ATOM     25  N   UNL     1      -5.191   2.944  25.395  0.00  0.00    -0.271 N 
ATOM     26  C   UNL     1      -4.989   3.743  25.338  0.00  0.00    +0.104 A 
ATOM     27  C   UNL     1      -5.634   4.187  25.599  0.00  0.00    +0.120 A 
ATOM     28  N   UNL     1      -6.233   3.663  25.817  0.00  0.00    -0.222 NA
ATOM     29  C   UNL     1      -5.959   2.895  25.691  0.00  0.00    +0.184 A 
ENDBRANCH  22  25
ENDBRANCH  16  19
BRANCH  14  13
ATOM      9  N   UNL     1      -0.777  -0.582  24.489  0.00  0.00    -0.263 NA
ATOM     10  C   UNL     1      -0.221  -1.122  24.771  0.00  0.00    +0.073 C 
ATOM     11  C   UNL     1      -0.627  -1.717  25.174  0.00  0.00    +0.019 C 
ATOM     12  C   UNL     1      -1.433  -1.544  25.140  0.00  0.00    +0.027 C 
ATOM     13  C   UNL     1      -1.525  -0.842  24.716  0.00  0.00    +0.138 C 
BRANCH   9   8
ATOM      8  C   UNL     1      -0.612   0.100  24.054  0.00  0.00    +0.103 C 
BRANCH   8   7
ATOM      3  C   UNL     1       1.590   0.364  22.954  0.00  0.00    +0.142 A 
ATOM      4  C   UNL     1       1.296   0.965  23.437  0.00  0.00    +0.079 A 
ATOM      5  C   UNL     1       0.562   0.877  23.804  0.00  0.00    +0.196 A 
ATOM      6  O   UNL     1       0.268   1.477  24.287  0.00  0.00    -0.287 OA
ATOM      7  C   UNL     1       0.123   0.188  23.687  0.00  0.00    +0.033 A 
ATOM     30  C   UNL     1       0.417  -0.412  23.204  0.00  0.00    +0.003 A 
ATOM     31  C   UNL     1       1.151  -0.323  22.837  0.00  0.00    +0.037 A 
BRANCH   3   2
ATOM      1  C   UNL     1       2.935  -0.076  22.756  0.00  0.00    +0.252 C 
ATOM      2  O   UNL     1       2.324   0.453  22.588  0.00  0.00    -0.471 OA
ENDBRANCH   3   2
ENDBRANCH   8   7
ENDBRANCH   9   8
ENDBRANCH  14  13
TORSDOF 6
ENDMDL
MODEL 7
REMARK VINA RESULT:      -8.6      1.759      2.482
REMARK  Name = 
REMARK  6 active torsions:
REMARK  status: ('A' for Active; 'I' for Inactive)
REMARK    1  A    between atoms: O_2  and  C_3
REMARK    2  A    between atoms: C_7  and  C_8
REMARK    3  A    between atoms: C_8  and  N_9
REMARK    4  A    between atoms: C_13  and  C_14
REMARK    5  A    between atoms: C_16  and  C_19
REMARK    6  A    between atoms: C_22  and  N_25
REMARK                            x       y       z     vdW  Elec       q    Type
REMARK                         _______ _______ _______ _____ _____    ______ ____
ROOT
ATOM     14  C   UNL     1      -1.375   2.824  25.353  0.00  0.00    +0.251 A 
ATOM     15  N   UNL     1      -0.946   2.595  24.687  0.00  0.00    -0.190 NA
ATOM     16  C   UNL     1      -0.443   1.980  24.906  0.00  0.00    +0.205 A 
ATOM     17  N   UNL     1      -0.561   1.828  25.708  0.00  0.00    -0.056 NA
ATOM     18  O   UNL     1      -1.136   2.349  25.984  0.00  0.00    -0.336 OA
ENDROOT
BRANCH  16  19
ATOM     19  C   UNL     1       0.086   1.585  24.410  0.00  0.00    +0.058 A 
ATOM     20  C   UNL     1      -0.131   0.868  24.064  0.00  0.00    +0.008 A 
ATOM     21  C   UNL     1       0.398   0.473  23.568  0.00  0.00    +0.038 A 
ATOM     22  C   UNL     1       1.142   0.796  23.418  0.00  0.00    +0.149 A 
ATOM     23  N   UNL     1       1.359   1.513  23.764  0.00  0.00    -0.226 NA
ATOM     24  C   UNL     1       0.830   1.908  24.260  0.00  0.00    +0.104 A 
BRANCH  22  25
ATOM     25  N   UNL     1       1.671   0.401  22.922  0.00  0.00    -0.271 N 
ATOM     26  C   UNL     1       2.492   0.485  22.924  0.00  0.00    +0.104 A 
ATOM     27  C   UNL     1       2.800  -0.010  22.340  0.00  0.00    +0.120 A 
ATOM     28  N   UNL     1       2.169  -0.401  21.979  0.00  0.00    -0.222 NA
ATOM     29  C   UNL     1       1.471  -0.146  22.339  0.00  0.00    +0.184 A 
ENDBRANCH  22  25
ENDBRANCH  16  19
BRANCH  14  13
ATOM      9  N   UNL     1      -2.736   3.347  25.177  0.00  0.00    -0.263 NA
ATOM     10  C   UNL     1      -3.101   4.078  25.291  0.00  0.00    +0.073 C 
ATOM     11  C   UNL     1      -2.530   4.606  25.567  0.00  0.00    +0.019 C 
ATOM     12  C   UNL     1      -1.814   4.201  25.625  0.00  0.00    +0.027 C 
ATOM     13  C   UNL     1      -1.942   3.422  25.383  0.00  0.00    +0.138 C 
BRANCH   9   8
ATOM      8  C   UNL     1      -3.104   2.660  24.905  0.00  0.00    +0.103 C 
BRANCH   8   7
ATOM      3  C   UNL     1      -5.535   2.337  25.246  0.00  0.00    +0.142 A 
ATOM      4  C   UNL     1      -5.157   1.979  24.606  0.00  0.00    +0.079 A 
ATOM      5  C   UNL     1      -4.347   2.087  24.492  0.00  0.00    +0.196 A 
ATOM      6  O   UNL     1      -3.969   1.729  23.852  0.00  0.00    -0.287 OA
ATOM      7  C   UNL     1      -3.914   2.553  25.019  0.00  0.00    +0.033 A 
ATOM     30  C   UNL     1      -4.292   2.911  25.659  0.00  0.00    +0.003 A 
ATOM     31  C   UNL     1      -5.103   2.802  25.772  0.00  0.00    +0.037 A 
BRANCH   3   2
ATOM      1  C   UNL     1      -6.621   1.892  26.060  0.00  0.00    +0.252 C 
ATOM      2  O   UNL     1      -6.344   2.229  25.359  0.00  0.00    -0.471 OA
ENDBRANCH   3   2
ENDBRANCH   8   7
ENDBRANCH   9   8
ENDBRANCH  14  13
TORSDOF 6
ENDMDL
