MODEL 1
REMARK VINA RESULT:     -11.5      0.000      0.000
REMARK  Name = 
REMARK  5 active torsions:
REMARK  status: ('A' for Active; 'I' for Inactive)
REMARK    1  A    between atoms: C_4  and  C_5
REMARK    2  A    between atoms: C_5  and  N_6
REMARK    3  A    between atoms: C_11  and  O_13
REMARK    4  A    between atoms: O_13  and  C_14
REMARK    5  A    between atoms: C_17  and  C_20
REMARK                            x       y       z     vdW  Elec       q    Type
REMARK                         _______ _______ _______ _____ _____    ______ ____
ROOT
ATOM      6  N   UNL     1      -2.116   2.037  24.502  0.00  0.00    -0.264 NA
ATOM      7  C   UNL     1      -1.888   2.205  23.727  0.00  0.00    +0.105 C 
ATOM      8  C   UNL     1      -2.221   1.934  23.022  0.00  0.00    +0.160 C 
ATOM      9  O   UNL     1      -2.864   1.427  22.918  0.00  0.00    -0.348 OA
ATOM     10  C   UNL     1      -3.333   1.067  23.494  0.00  0.00    +0.187 C 
ATOM     11  C   UNL     1      -3.275   1.125  24.315  0.00  0.00    +0.211 C 
ATOM     12  C   UNL     1      -2.733   1.557  24.763  0.00  0.00    +0.119 C 
ENDROOT
BRANCH   6   5
ATOM      5  C   UNL     1      -1.668   2.397  25.093  0.00  0.00    +0.102 C 
BRANCH   5   4
ATOM      1  C   UNL     1      -1.363   5.285  25.131  0.00  0.00    +0.154 C 
ATOM      2  N   UNL     1      -1.640   4.524  25.285  0.00  0.00    -0.248 N 
ATOM      3  C   UNL     1      -1.340   3.825  24.964  0.00  0.00    +0.094 A 
ATOM      4  C   UNL     1      -1.780   3.196  25.267  0.00  0.00    +0.033 A 
ATOM     24  C   UNL     1      -2.351   3.506  25.775  0.00  0.00    +0.119 A 
ATOM     25  N   UNL     1      -2.264   4.327  25.786  0.00  0.00    -0.168 NA
ENDBRANCH   5   4
ENDBRANCH   6   5
BRANCH  11  13
ATOM     13  O   UNL     1      -3.833   0.694  24.745  0.00  0.00    -0.475 OA
BRANCH  13  14
ATOM     14  C   UNL     1      -3.782  -0.129  24.776  0.00  0.00    +0.139 A 
ATOM     15  C   UNL     1      -3.340  -0.492  25.371  0.00  0.00    +0.037 A 
ATOM     16  C   UNL     1      -3.289  -1.315  25.403  0.00  0.00    +0.007 A 
ATOM     17  C   UNL     1      -3.679  -1.775  24.840  0.00  0.00    +0.072 A 
ATOM     18  C   UNL     1      -4.121  -1.412  24.246  0.00  0.00    +0.007 A 
ATOM     19  C   UNL     1      -4.172  -0.589  24.214  0.00  0.00    +0.037 A 
BRANCH  17  20
ATOM     20  C   UNL     1      -3.628  -2.597  24.873  0.00  0.00    +0.419 C 
ATOM     21  F   UNL     1      -3.576  -3.420  24.904  0.00  0.00    -0.166 F 
ATOM     22  F   UNL     1      -3.594  -2.627  24.048  0.00  0.00    -0.166 F 
ATOM     23  F   UNL     1      -3.662  -2.568  25.696  0.00  0.00    -0.166 F 
ENDBRANCH  17  20
ENDBRANCH  13  14
ENDBRANCH  11  13
TORSDOF 5
ENDMDL
MODEL 2
REMARK VINA RESULT:     -11.4      1.076      1.644
REMARK  Name = 
REMARK  5 active torsions:
REMARK  status: ('A' for Active; 'I' for Inactive)
REMARK    1  A    between atoms: C_4  and  C_5
REMARK    2  A    between atoms: C_5  and  N_6
REMARK    3  A    between atoms: C_11  and  O_13
REMARK    4  A    between atoms: O_13  and  C_14
REMARK    5  A    between atoms: C_17  and  C_20
REMARK                            x       y       z     vdW  Elec       q    Type
REMARK                         _______ _______ _______ _____ _____    ______ ____
ROOT
ATOM      6  N   UNL     1      -3.466   2.590  24.620  0.00  0.00    -0.264 NA
ATOM      7  C   UNL     1      -4.073   2.852  25.115  0.00  0.00    +0.105 C 
ATOM      8  C   UNL     1      -4.765   2.461  25.332  0.00  0.00    +0.160 C 
ATOM      9  O   UNL     1      -5.024   1.710  25.109  0.00  0.00    -0.348 OA
ATOM     10  C   UNL     1      -4.652   1.165  24.612  0.00  0.00    +0.187 C 
ATOM     11  C   UNL     1      -3.931   1.237  24.217  0.00  0.00    +0.211 C 
ATOM     12  C   UNL     1      -3.404   1.872  24.221  0.00  0.00    +0.119 C 
ENDROOT
BRANCH   6   5
ATOM      5  C   UNL     1      -2.841   3.117  24.511  0.00  0.00    +0.102 C 
BRANCH   5   4
ATOM      1  C   UNL     1      -0.316   2.672  25.876  0.00  0.00    +0.154 C 
ATOM      2  N   UNL     1      -1.071   2.951  25.693  0.00  0.00    -0.248 N 
ATOM      3  C   UNL     1      -1.513   2.751  25.025  0.00  0.00    +0.094 A 
ATOM      4  C   UNL     1      -2.232   3.155  25.065  0.00  0.00    +0.033 A 
ATOM     24  C   UNL     1      -2.234   3.604  25.758  0.00  0.00    +0.119 A 
ATOM     25  N   UNL     1      -1.516   3.477  26.146  0.00  0.00    -0.168 NA
ENDBRANCH   5   4
ENDBRANCH   6   5
BRANCH  11  13
ATOM     13  O   UNL     1      -3.708   0.589  23.758  0.00  0.00    -0.475 OA
BRANCH  13  14
ATOM     14  C   UNL     1      -3.661  -0.161  24.098  0.00  0.00    +0.139 A 
ATOM     15  C   UNL     1      -4.255  -0.717  23.956  0.00  0.00    +0.037 A 
ATOM     16  C   UNL     1      -4.208  -1.466  24.297  0.00  0.00    +0.007 A 
ATOM     17  C   UNL     1      -3.567  -1.661  24.780  0.00  0.00    +0.072 A 
ATOM     18  C   UNL     1      -2.974  -1.105  24.922  0.00  0.00    +0.007 A 
ATOM     19  C   UNL     1      -3.022  -0.356  24.581  0.00  0.00    +0.037 A 
BRANCH  17  20
ATOM     20  C   UNL     1      -3.521  -2.411  25.120  0.00  0.00    +0.419 C 
ATOM     21  F   UNL     1      -3.474  -3.160  25.462  0.00  0.00    -0.166 F 
ATOM     22  F   UNL     1      -3.588  -2.074  25.871  0.00  0.00    -0.166 F 
ATOM     23  F   UNL     1      -3.453  -2.748  24.371  0.00  0.00    -0.166 F 
ENDBRANCH  17  20
ENDBRANCH  13  14
ENDBRANCH  11  13
TORSDOF 5
ENDMDL
MODEL 3
REMARK VINA RESULT:     -11.2      1.428      1.811
REMARK  Name = 
REMARK  5 active torsions:
REMARK  status: ('A' for Active; 'I' for Inactive)
REMARK    1  A    between atoms: C_4  and  C_5
REMARK    2  A    between atoms: C_5  and  N_6
REMARK    3  A    between atoms: C_11  and  O_13
REMARK    4  A    between atoms: O_13  and  C_14
REMARK    5  A    between atoms: C_17  and  C_20
REMARK                            x       y       z     vdW  Elec       q    Type
REMARK                         _______ _______ _______ _____ _____    ______ ____
ROOT
ATOM      6  N   UNL     1      -2.986   1.787  23.900  0.00  0.00    -0.264 NA
ATOM      7  C   UNL     1      -2.337   2.056  23.467  0.00  0.00    +0.105 C 
ATOM      8  C   UNL     1      -1.553   1.805  23.505  0.00  0.00    +0.160 C 
ATOM      9  O   UNL     1      -1.222   1.221  23.986  0.00  0.00    -0.348 OA
ATOM     10  C   UNL     1      -1.596   0.746  24.548  0.00  0.00    +0.187 C 
ATOM     11  C   UNL     1      -2.391   0.736  24.767  0.00  0.00    +0.211 C 
ATOM     12  C   UNL     1      -3.009   1.200  24.479  0.00  0.00    +0.119 C 
ENDROOT
BRANCH   6   5
ATOM      5  C   UNL     1      -3.705   2.154  23.733  0.00  0.00    +0.102 C 
BRANCH   5   4
ATOM      1  C   UNL     1      -5.248   3.698  25.649  0.00  0.00    +0.154 C 
ATOM      2  N   UNL     1      -4.682   3.483  25.088  0.00  0.00    -0.248 N 
ATOM      3  C   UNL     1      -4.611   2.743  24.730  0.00  0.00    +0.094 A 
ATOM      4  C   UNL     1      -3.973   2.773  24.207  0.00  0.00    +0.033 A 
ATOM     24  C   UNL     1      -3.651   3.532  24.241  0.00  0.00    +0.119 A 
ATOM     25  N   UNL     1      -4.090   3.971  24.786  0.00  0.00    -0.168 NA
ENDBRANCH   5   4
ENDBRANCH   6   5
BRANCH  11  13
ATOM     13  O   UNL     1      -2.595   0.191  25.352  0.00  0.00    -0.475 OA
BRANCH  13  14
ATOM     14  C   UNL     1      -2.861  -0.560  25.141  0.00  0.00    +0.139 A 
ATOM     15  C   UNL     1      -2.318  -1.146  24.931  0.00  0.00    +0.037 A 
ATOM     16  C   UNL     1      -2.584  -1.897  24.719  0.00  0.00    +0.007 A 
ATOM     17  C   UNL     1      -3.393  -2.064  24.717  0.00  0.00    +0.072 A 
ATOM     18  C   UNL     1      -3.934  -1.478  24.927  0.00  0.00    +0.007 A 
ATOM     19  C   UNL     1      -3.668  -0.727  25.138  0.00  0.00    +0.037 A 
BRANCH  17  20
ATOM     20  C   UNL     1      -3.658  -2.815  24.505  0.00  0.00    +0.419 C 
ATOM     21  F   UNL     1      -3.924  -3.567  24.292  0.00  0.00    -0.166 F 
ATOM     22  F   UNL     1      -3.818  -2.544  23.742  0.00  0.00    -0.166 F 
ATOM     23  F   UNL     1      -3.499  -3.087  25.267  0.00  0.00    -0.166 F 
ENDBRANCH  17  20
ENDBRANCH  13  14
ENDBRANCH  11  13
TORSDOF 5
ENDMDL
