REMARK  Name = 
REMARK  6 active torsions:
REMARK  status: ('A' for Active; 'I' for Inactive)
REMARK    1  A    between atoms: C_2  and  C_4
REMARK    2  A    between atoms: N_7  and  C_10
REMARK    3  A    between atoms: C_12  and  C_16
REMARK    4  A    between atoms: C_19  and  C_21
REMARK    5  A    between atoms: N_25  and  C_26
REMARK    6  A    between atoms: C_26  and  C_27
REMARK                            x       y       z     vdW  Elec       q    Type
REMARK                         _______ _______ _______ _____ _____    ______ ____
ROOT
ATOM     16  C   UNL     1       6.599   2.618   0.000  0.00  0.00    +0.203 A 
ATOM     17  N   UNL     1       6.854   3.403   0.000  0.00  0.00    -0.056 NA
ATOM     18  O   UNL     1       6.186   3.888   0.000  0.00  0.00    -0.336 OA
ATOM     19  C   UNL     1       5.519   3.403   0.000  0.00  0.00    +0.251 A 
ATOM     20  N   UNL     1       5.774   2.618   0.000  0.00  0.00    -0.190 NA
ENDROOT
BRANCH  16  12
ATOM     10  C   UNL     1       7.233   0.530   0.000  0.00  0.00    +0.132 A 
ATOM     11  C   UNL     1       6.748   1.197   0.000  0.00  0.00    +0.037 A 
ATOM     12  C   UNL     1       7.084   1.951   0.000  0.00  0.00    +0.043 A 
ATOM     13  C   UNL     1       7.904   2.037   0.000  0.00  0.00    +0.024 A 
ATOM     14  C   UNL     1       8.389   1.370   0.000  0.00  0.00    +0.100 A 
ATOM     15  N   UNL     1       8.053   0.616   0.000  0.00  0.00    -0.229 NA
BRANCH  10   7
ATOM      4  C   UNL     1       6.226  -1.731   0.000  0.00  0.00    +0.083 C 
ATOM      5  C   UNL     1       5.741  -1.064   0.000  0.00  0.00    +0.031 C 
ATOM      6  C   UNL     1       6.077  -0.310   0.000  0.00  0.00    +0.093 C 
ATOM      7  N   UNL     1       6.897  -0.224   0.000  0.00  0.00    -0.293 N 
ATOM      8  C   UNL     1       7.382  -0.891   0.000  0.00  0.00    +0.093 C 
ATOM      9  C   UNL     1       7.047  -1.645   0.000  0.00  0.00    +0.031 C 
BRANCH   4   2
ATOM      1  N   UNL     1       6.376  -3.152   0.000  0.00  0.00    -0.088 NA
ATOM      2  C   UNL     1       5.891  -2.485   0.000  0.00  0.00    +0.260 C 
ATOM      3  O   UNL     1       5.070  -2.571   0.000  0.00  0.00    -0.272 OA
ENDBRANCH   4   2
ENDBRANCH  10   7
ENDBRANCH  16  12
BRANCH  19  21
ATOM     21  C   UNL     1       4.734   3.658   0.000  0.00  0.00    +0.138 C 
ATOM     22  C   UNL     1       4.479   4.442   0.000  0.00  0.00    +0.027 C 
ATOM     23  C   UNL     1       3.654   4.442   0.000  0.00  0.00    +0.019 C 
ATOM     24  C   UNL     1       3.399   3.658   0.000  0.00  0.00    +0.073 C 
ATOM     25  N   UNL     1       4.067   3.173   0.000  0.00  0.00    -0.263 NA
BRANCH  25  26
ATOM     26  C   UNL     1       4.067   2.348   0.000  0.00  0.00    +0.100 C 
BRANCH  26  27
ATOM     27  C   UNL     1       3.352   1.935   0.000  0.00  0.00    -0.003 A 
ATOM     28  C   UNL     1       3.352   1.110   0.000  0.00  0.00    +0.000 A 
ATOM     29  C   UNL     1       2.638   0.698   0.000  0.00  0.00    +0.040 A 
ATOM     30  C   UNL     1       1.923   1.110   0.000  0.00  0.00    +0.176 A 
ATOM     31  O   UNL     1       1.139   0.856   0.000  0.00  0.00    -0.435 OA
ATOM     32  C   UNL     1       0.654   1.523   0.000  0.00  0.00    +0.429 C 
ATOM     33  O   UNL     1       1.139   2.190   0.000  0.00  0.00    -0.435 OA
ATOM     34  C   UNL     1       1.923   1.935   0.000  0.00  0.00    +0.176 A 
ATOM     35  C   UNL     1       2.638   2.348   0.000  0.00  0.00    +0.037 A 
ENDBRANCH  26  27
ENDBRANCH  25  26
ENDBRANCH  19  21
TORSDOF 6
