MODEL 1
REMARK VINA RESULT:     -10.3      0.000      0.000
REMARK  Name = 
REMARK  3 active torsions:
REMARK  status: ('A' for Active; 'I' for Inactive)
REMARK    1  A    between atoms: N_2  and  C_3
REMARK    2  A    between atoms: C_3  and  C_4
REMARK    3  A    between atoms: C_10  and  C_12
REMARK                            x       y       z     vdW  Elec       q    Type
REMARK                         _______ _______ _______ _____ _____    ______ ____
ROOT
ATOM      1  C   UNL     1      -3.200   0.507  24.602  0.00  0.00    +0.115 C 
ATOM      2  N   UNL     1      -4.017   0.575  24.696  0.00  0.00    -0.273 N 
ATOM     10  C   UNL     1      -4.369   1.321  24.724  0.00  0.00    +0.242 C 
ATOM     11  O   UNL     1      -5.185   1.388  24.818  0.00  0.00    -0.273 OA
ENDROOT
BRANCH  10  12
ATOM     12  C   UNL     1      -3.904   1.999  24.658  0.00  0.00    +0.155 C 
ATOM     13  C   UNL     1      -3.714   2.435  25.330  0.00  0.00    +0.074 C 
ATOM     14  C   UNL     1      -3.249   3.114  25.264  0.00  0.00    +0.078 A 
ATOM     15  C   UNL     1      -2.975   3.355  24.525  0.00  0.00    +0.092 A 
ATOM     16  C   UNL     1      -3.165   2.918  23.851  0.00  0.00    +0.136 C 
ATOM     17  N   UNL     1      -3.630   2.240  23.918  0.00  0.00    -0.203 NA
ATOM     18  N   UNL     1      -2.530   4.042  24.629  0.00  0.00    -0.226 NA
ATOM     19  C   UNL     1      -2.530   4.225  25.433  0.00  0.00    +0.198 A 
ATOM     20  N   UNL     1      -2.974   3.652  25.825  0.00  0.00    -0.227 NA
ENDBRANCH  10  12
BRANCH   2   3
ATOM      3  C   UNL     1      -4.482  -0.103  24.763  0.00  0.00    +0.120 C 
BRANCH   3   4
ATOM      4  C   UNL     1      -4.130  -0.849  24.737  0.00  0.00    -0.002 A 
ATOM      5  C   UNL     1      -4.188  -1.309  24.054  0.00  0.00    -0.003 A 
ATOM      6  C   UNL     1      -3.837  -2.055  24.027  0.00  0.00    -0.000 A 
ATOM      7  C   UNL     1      -3.427  -2.341  24.684  0.00  0.00    -0.000 A 
ATOM      8  C   UNL     1      -3.369  -1.882  25.367  0.00  0.00    -0.000 A 
ATOM      9  C   UNL     1      -3.721  -1.136  25.393  0.00  0.00    -0.003 A 
ENDBRANCH   3   4
ENDBRANCH   2   3
TORSDOF 3
ENDMDL
MODEL 2
REMARK VINA RESULT:     -10.1      1.125      1.141
REMARK  Name = 
REMARK  3 active torsions:
REMARK  status: ('A' for Active; 'I' for Inactive)
REMARK    1  A    between atoms: N_2  and  C_3
REMARK    2  A    between atoms: C_3  and  C_4
REMARK    3  A    between atoms: C_10  and  C_12
REMARK                            x       y       z     vdW  Elec       q    Type
REMARK                         _______ _______ _______ _____ _____    ______ ____
ROOT
ATOM      1  C   UNL     1      -2.572   0.013  24.613  0.00  0.00    +0.115 C 
ATOM      2  N   UNL     1      -3.335   0.322  24.662  0.00  0.00    -0.273 N 
ATOM     10  C   UNL     1      -3.456   1.135  24.583  0.00  0.00    +0.242 C 
ATOM     11  O   UNL     1      -4.220   1.444  24.632  0.00  0.00    -0.273 OA
ENDROOT
BRANCH  10  12
ATOM     12  C   UNL     1      -2.816   1.637  24.455  0.00  0.00    +0.155 C 
ATOM     13  C   UNL     1      -2.503   2.075  25.079  0.00  0.00    +0.074 C 
ATOM     14  C   UNL     1      -1.862   2.578  24.951  0.00  0.00    +0.078 A 
ATOM     15  C   UNL     1      -1.533   2.643  24.197  0.00  0.00    +0.092 A 
ATOM     16  C   UNL     1      -1.846   2.204  23.571  0.00  0.00    +0.136 C 
ATOM     17  N   UNL     1      -2.487   1.702  23.701  0.00  0.00    -0.203 NA
ATOM     18  N   UNL     1      -0.908   3.179  24.237  0.00  0.00    -0.226 NA
ATOM     19  C   UNL     1      -0.850   3.446  25.015  0.00  0.00    +0.198 A 
ATOM     20  N   UNL     1      -1.439   3.074  25.456  0.00  0.00    -0.227 NA
ENDBRANCH  10  12
BRANCH   2   3
ATOM      3  C   UNL     1      -3.976  -0.180  24.790  0.00  0.00    +0.120 C 
BRANCH   3   4
ATOM      4  C   UNL     1      -3.894  -0.993  24.675  0.00  0.00    -0.002 A 
ATOM      5  C   UNL     1      -4.165  -1.340  23.977  0.00  0.00    -0.003 A 
ATOM      6  C   UNL     1      -4.083  -2.152  23.860  0.00  0.00    -0.000 A 
ATOM      7  C   UNL     1      -3.729  -2.619  24.442  0.00  0.00    -0.000 A 
ATOM      8  C   UNL     1      -3.458  -2.272  25.140  0.00  0.00    -0.000 A 
ATOM      9  C   UNL     1      -3.540  -1.459  25.256  0.00  0.00    -0.003 A 
ENDBRANCH   3   4
ENDBRANCH   2   3
TORSDOF 3
ENDMDL
MODEL 3
REMARK VINA RESULT:      -9.8      1.473      4.433
REMARK  Name = 
REMARK  3 active torsions:
REMARK  status: ('A' for Active; 'I' for Inactive)
REMARK    1  A    between atoms: N_2  and  C_3
REMARK    2  A    between atoms: C_3  and  C_4
REMARK    3  A    between atoms: C_10  and  C_12
REMARK                            x       y       z     vdW  Elec       q    Type
REMARK                         _______ _______ _______ _____ _____    ______ ____
ROOT
ATOM      1  C   UNL     1      -4.479   0.847  25.154  0.00  0.00    +0.115 C 
ATOM      2  N   UNL     1      -4.101   1.119  24.474  0.00  0.00    -0.273 N 
ATOM     10  C   UNL     1      -3.606   0.615  24.048  0.00  0.00    +0.242 C 
ATOM     11  O   UNL     1      -3.227   0.887  23.367  0.00  0.00    -0.273 OA
ENDROOT
BRANCH  10  12
ATOM     12  C   UNL     1      -3.490  -0.161  24.302  0.00  0.00    +0.155 C 
ATOM     13  C   UNL     1      -3.908  -0.778  23.949  0.00  0.00    +0.074 C 
ATOM     14  C   UNL     1      -3.792  -1.554  24.203  0.00  0.00    +0.078 A 
ATOM     15  C   UNL     1      -3.257  -1.714  24.810  0.00  0.00    +0.092 A 
ATOM     16  C   UNL     1      -2.837  -1.096  25.163  0.00  0.00    +0.136 C 
ATOM     17  N   UNL     1      -2.954  -0.320  24.909  0.00  0.00    -0.203 NA
ATOM     18  N   UNL     1      -3.258  -2.527  24.944  0.00  0.00    -0.226 NA
ATOM     19  C   UNL     1      -3.793  -2.871  24.419  0.00  0.00    +0.198 A 
ATOM     20  N   UNL     1      -4.124  -2.269  23.962  0.00  0.00    -0.227 NA
ENDBRANCH  10  12
BRANCH   2   3
ATOM      3  C   UNL     1      -4.217   1.895  24.220  0.00  0.00    +0.120 C 
BRANCH   3   4
ATOM      4  C   UNL     1      -4.495   2.465  24.747  0.00  0.00    -0.002 A 
ATOM      5  C   UNL     1      -3.969   3.003  25.087  0.00  0.00    -0.003 A 
ATOM      6  C   UNL     1      -4.246   3.574  25.614  0.00  0.00    -0.000 A 
ATOM      7  C   UNL     1      -5.049   3.606  25.802  0.00  0.00    -0.000 A 
ATOM      8  C   UNL     1      -5.575   3.068  25.463  0.00  0.00    -0.000 A 
ATOM      9  C   UNL     1      -5.297   2.498  24.936  0.00  0.00    -0.003 A 
ENDBRANCH   3   4
ENDBRANCH   2   3
TORSDOF 3
ENDMDL
