MODEL 1
REMARK VINA RESULT:     -12.3      0.000      0.000
REMARK  Name = 
REMARK  4 active torsions:
REMARK  status: ('A' for Active; 'I' for Inactive)
REMARK    1  A    between atoms: C_2  and  C_3
REMARK    2  A    between atoms: C_3  and  N_4
REMARK    3  A    between atoms: C_19  and  C_22
REMARK    4  A    between atoms: C_24  and  C_28
REMARK                            x       y       z     vdW  Elec       q    Type
REMARK                         _______ _______ _______ _____ _____    ______ ____
ROOT
ATOM      4  N   UNL     1       1.684   0.645  23.236  0.00  0.00    -0.188 NA
ATOM      5  C   UNL     1       0.987   0.207  23.301  0.00  0.00    +0.323 C 
ATOM      6  O   UNL     1       0.982  -0.593  23.099  0.00  0.00    -0.251 OA
ATOM      7  N   UNL     1       0.296   0.570  23.569  0.00  0.00    -0.259 N 
ATOM      8  C   UNL     1      -0.400   0.133  23.634  0.00  0.00    +0.117 C 
ATOM      9  C   UNL     1      -1.092   0.495  23.902  0.00  0.00    +0.116 C 
ATOM     10  N   UNL     1      -1.086   1.295  24.104  0.00  0.00    -0.266 N 
ATOM     11  C   UNL     1      -0.390   1.732  24.038  0.00  0.00    +0.174 C 
ATOM     12  C   UNL     1       0.301   1.370  23.771  0.00  0.00    +0.124 C 
ATOM     13  C   UNL     1      -0.265   2.530  24.209  0.00  0.00    +0.265 C 
ATOM     14  O   UNL     1       0.502   2.807  24.085  0.00  0.00    -0.271 OA
ATOM     15  N   UNL     1      -0.806   3.087  24.488  0.00  0.00    -0.178 NA
ATOM     16  C   UNL     1      -1.605   2.984  24.664  0.00  0.00    +0.078 A 
ATOM     17  C   UNL     1      -2.061   2.299  24.606  0.00  0.00    +0.069 A 
ATOM     18  C   UNL     1      -2.860   2.315  24.813  0.00  0.00    +0.006 A 
ATOM     19  C   UNL     1      -3.202   3.018  25.078  0.00  0.00    +0.000 A 
ATOM     20  C   UNL     1      -2.747   3.703  25.136  0.00  0.00    +0.001 A 
ATOM     21  C   UNL     1      -1.949   3.686  24.930  0.00  0.00    +0.017 A 
ATOM     32  C   UNL     1      -1.830   1.547  24.356  0.00  0.00    +0.251 C 
ATOM     33  O   UNL     1      -2.421   0.972  24.360  0.00  0.00    -0.270 OA
ENDROOT
BRANCH  19  22
ATOM     22  C   UNL     1      -4.001   3.035  25.285  0.00  0.00    -0.000 A 
ATOM     23  C   UNL     1      -4.501   2.422  25.052  0.00  0.00    +0.004 A 
ATOM     24  C   UNL     1      -5.299   2.439  25.259  0.00  0.00    +0.071 A 
ATOM     25  C   UNL     1      -5.598   3.070  25.700  0.00  0.00    +0.004 A 
ATOM     26  C   UNL     1      -5.098   3.683  25.933  0.00  0.00    -0.000 A 
ATOM     27  C   UNL     1      -4.299   3.666  25.726  0.00  0.00    -0.000 A 
BRANCH  24  28
ATOM     28  C   UNL     1      -5.799   1.826  25.025  0.00  0.00    +0.419 C 
ATOM     29  F   UNL     1      -6.299   1.213  24.792  0.00  0.00    -0.166 F 
ATOM     30  F   UNL     1      -5.747   1.496  25.780  0.00  0.00    -0.166 F 
ATOM     31  F   UNL     1      -5.851   2.156  24.271  0.00  0.00    -0.166 F 
ENDBRANCH  24  28
ENDBRANCH  19  22
BRANCH   4   3
ATOM      3  C   UNL     1       2.375   0.283  22.968  0.00  0.00    +0.117 C 
BRANCH   3   2
ATOM      1  C   UNL     1       3.782   0.425  22.770  0.00  0.00    +0.002 C 
ATOM      2  C   UNL     1       3.022   0.742  22.744  0.00  0.00    +0.023 C 
ENDBRANCH   3   2
ENDBRANCH   4   3
TORSDOF 4
ENDMDL
MODEL 2
REMARK VINA RESULT:     -12.1      2.918      4.603
REMARK  Name = 
REMARK  4 active torsions:
REMARK  status: ('A' for Active; 'I' for Inactive)
REMARK    1  A    between atoms: C_2  and  C_3
REMARK    2  A    between atoms: C_3  and  N_4
REMARK    3  A    between atoms: C_19  and  C_22
REMARK    4  A    between atoms: C_24  and  C_28
REMARK                            x       y       z     vdW  Elec       q    Type
REMARK                         _______ _______ _______ _____ _____    ______ ____
ROOT
ATOM      4  N   UNL     1      -1.358   4.589  24.978  0.00  0.00    -0.188 NA
ATOM      5  C   UNL     1      -0.933   3.905  24.798  0.00  0.00    +0.323 C 
ATOM      6  O   UNL     1      -0.115   3.944  24.690  0.00  0.00    -0.251 OA
ATOM      7  N   UNL     1      -1.324   3.183  24.724  0.00  0.00    -0.259 N 
ATOM      8  C   UNL     1      -0.899   2.499  24.543  0.00  0.00    +0.117 C 
ATOM      9  C   UNL     1      -1.290   1.777  24.470  0.00  0.00    +0.116 C 
ATOM     10  N   UNL     1      -2.108   1.738  24.578  0.00  0.00    -0.266 N 
ATOM     11  C   UNL     1      -2.533   2.421  24.758  0.00  0.00    +0.174 C 
ATOM     12  C   UNL     1      -2.141   3.143  24.832  0.00  0.00    +0.124 C 
ATOM     13  C   UNL     1      -3.344   2.503  24.886  0.00  0.00    +0.265 C 
ATOM     14  O   UNL     1      -3.603   3.267  25.058  0.00  0.00    -0.271 OA
ATOM     15  N   UNL     1      -3.930   1.923  24.865  0.00  0.00    -0.178 NA
ATOM     16  C   UNL     1      -3.849   1.117  24.711  0.00  0.00    +0.078 A 
ATOM     17  C   UNL     1      -3.164   0.691  24.540  0.00  0.00    +0.069 A 
ATOM     18  C   UNL     1      -3.204  -0.121  24.401  0.00  0.00    +0.006 A 
ATOM     19  C   UNL     1      -3.933  -0.508  24.434  0.00  0.00    +0.000 A 
ATOM     20  C   UNL     1      -4.618  -0.083  24.606  0.00  0.00    +0.001 A 
ATOM     21  C   UNL     1      -4.577   0.729  24.744  0.00  0.00    +0.017 A 
ATOM     32  C   UNL     1      -2.388   0.968  24.480  0.00  0.00    +0.251 C 
ATOM     33  O   UNL     1      -1.818   0.400  24.300  0.00  0.00    -0.270 OA
ENDROOT
BRANCH  19  22
ATOM     22  C   UNL     1      -3.975  -1.320  24.296  0.00  0.00    -0.000 A 
ATOM     23  C   UNL     1      -3.543  -1.842  24.767  0.00  0.00    +0.004 A 
ATOM     24  C   UNL     1      -3.585  -2.654  24.629  0.00  0.00    +0.071 A 
ATOM     25  C   UNL     1      -4.059  -2.945  24.019  0.00  0.00    +0.004 A 
ATOM     26  C   UNL     1      -4.491  -2.423  23.548  0.00  0.00    -0.000 A 
ATOM     27  C   UNL     1      -4.449  -1.611  23.686  0.00  0.00    -0.000 A 
BRANCH  24  28
ATOM     28  C   UNL     1      -3.154  -3.176  25.100  0.00  0.00    +0.419 C 
ATOM     29  F   UNL     1      -2.722  -3.697  25.571  0.00  0.00    -0.166 F 
ATOM     30  F   UNL     1      -3.688  -3.058  25.719  0.00  0.00    -0.166 F 
ATOM     31  F   UNL     1      -2.621  -3.293  24.482  0.00  0.00    -0.166 F 
ENDBRANCH  24  28
ENDBRANCH  19  22
BRANCH   4   3
ATOM      3  C   UNL     1      -0.967   5.311  25.052  0.00  0.00    +0.117 C 
BRANCH   3   2
ATOM      1  C   UNL     1      -1.886   6.399  25.164  0.00  0.00    +0.002 C 
ATOM      2  C   UNL     1      -1.304   5.997  24.741  0.00  0.00    +0.023 C 
ENDBRANCH   3   2
ENDBRANCH   4   3
TORSDOF 4
ENDMDL
MODEL 3
REMARK VINA RESULT:     -10.8      2.777      4.681
REMARK  Name = 
REMARK  4 active torsions:
REMARK  status: ('A' for Active; 'I' for Inactive)
REMARK    1  A    between atoms: C_2  and  C_3
REMARK    2  A    between atoms: C_3  and  N_4
REMARK    3  A    between atoms: C_19  and  C_22
REMARK    4  A    between atoms: C_24  and  C_28
REMARK                            x       y       z     vdW  Elec       q    Type
REMARK                         _______ _______ _______ _____ _____    ______ ____
ROOT
ATOM      4  N   UNL     1      -1.758   4.568  25.060  0.00  0.00    -0.188 NA
ATOM      5  C   UNL     1      -2.507   4.220  25.063  0.00  0.00    +0.323 C 
ATOM      6  O   UNL     1      -3.182   4.695  25.087  0.00  0.00    -0.251 OA
ATOM      7  N   UNL     1      -2.581   3.399  25.041  0.00  0.00    -0.259 N 
ATOM      8  C   UNL     1      -3.330   3.052  25.045  0.00  0.00    +0.117 C 
ATOM      9  C   UNL     1      -3.405   2.231  25.023  0.00  0.00    +0.116 C 
ATOM     10  N   UNL     1      -2.729   1.756  24.999  0.00  0.00    -0.266 N 
ATOM     11  C   UNL     1      -1.981   2.104  24.995  0.00  0.00    +0.174 C 
ATOM     12  C   UNL     1      -1.907   2.925  25.017  0.00  0.00    +0.124 C 
ATOM     13  C   UNL     1      -1.243   1.734  24.973  0.00  0.00    +0.265 C 
ATOM     14  O   UNL     1      -0.591   2.239  24.976  0.00  0.00    -0.271 OA
ATOM     15  N   UNL     1      -1.072   0.928  24.948  0.00  0.00    -0.178 NA
ATOM     16  C   UNL     1      -1.596   0.291  24.939  0.00  0.00    +0.078 A 
ATOM     17  C   UNL     1      -2.420   0.303  24.953  0.00  0.00    +0.069 A 
ATOM     18  C   UNL     1      -2.845  -0.405  24.941  0.00  0.00    +0.006 A 
ATOM     19  C   UNL     1      -2.442  -1.126  24.914  0.00  0.00    +0.000 A 
ATOM     20  C   UNL     1      -1.618  -1.137  24.900  0.00  0.00    +0.001 A 
ATOM     21  C   UNL     1      -1.195  -0.430  24.912  0.00  0.00    +0.017 A 
ATOM     32  C   UNL     1      -2.925   0.955  24.980  0.00  0.00    +0.251 C 
ATOM     33  O   UNL     1      -3.732   0.784  24.989  0.00  0.00    -0.270 OA
ENDROOT
BRANCH  19  22
ATOM     22  C   UNL     1      -2.865  -1.834  24.902  0.00  0.00    -0.000 A 
ATOM     23  C   UNL     1      -3.371  -2.001  24.273  0.00  0.00    +0.004 A 
ATOM     24  C   UNL     1      -3.795  -2.709  24.260  0.00  0.00    +0.071 A 
ATOM     25  C   UNL     1      -3.711  -3.251  24.878  0.00  0.00    +0.004 A 
ATOM     26  C   UNL     1      -3.205  -3.083  25.508  0.00  0.00    -0.000 A 
ATOM     27  C   UNL     1      -2.781  -2.375  25.520  0.00  0.00    -0.000 A 
BRANCH  24  28
ATOM     28  C   UNL     1      -4.301  -2.877  23.631  0.00  0.00    +0.419 C 
ATOM     29  F   UNL     1      -4.807  -3.044  23.002  0.00  0.00    -0.166 F 
ATOM     30  F   UNL     1      -3.791  -3.476  23.381  0.00  0.00    -0.166 F 
ATOM     31  F   UNL     1      -4.810  -2.278  23.882  0.00  0.00    -0.166 F 
ENDBRANCH  24  28
ENDBRANCH  19  22
BRANCH   4   3
ATOM      3  C   UNL     1      -1.684   5.389  25.081  0.00  0.00    +0.117 C 
BRANCH   3   2
ATOM      1  C   UNL     1      -0.467   5.737  24.419  0.00  0.00    +0.002 C 
ATOM      2  C   UNL     1      -0.936   5.735  25.097  0.00  0.00    +0.023 C 
ENDBRANCH   3   2
ENDBRANCH   4   3
TORSDOF 4
ENDMDL
MODEL 4
REMARK VINA RESULT:     -10.6      3.145      4.349
REMARK  Name = 
REMARK  4 active torsions:
REMARK  status: ('A' for Active; 'I' for Inactive)
REMARK    1  A    between atoms: C_2  and  C_3
REMARK    2  A    between atoms: C_3  and  N_4
REMARK    3  A    between atoms: C_19  and  C_22
REMARK    4  A    between atoms: C_24  and  C_28
REMARK                            x       y       z     vdW  Elec       q    Type
REMARK                         _______ _______ _______ _____ _____    ______ ____
ROOT
ATOM      4  N   UNL     1      -3.126  -2.389  24.386  0.00  0.00    -0.188 NA
ATOM      5  C   UNL     1      -2.449  -2.004  24.660  0.00  0.00    +0.323 C 
ATOM      6  O   UNL     1      -1.775  -2.441  24.848  0.00  0.00    -0.251 OA
ATOM      7  N   UNL     1      -2.447  -1.184  24.747  0.00  0.00    -0.259 N 
ATOM      8  C   UNL     1      -1.771  -0.800  25.021  0.00  0.00    +0.117 C 
ATOM      9  C   UNL     1      -1.768   0.021  25.108  0.00  0.00    +0.116 C 
ATOM     10  N   UNL     1      -2.443   0.457  24.920  0.00  0.00    -0.266 N 
ATOM     11  C   UNL     1      -3.120   0.073  24.646  0.00  0.00    +0.174 C 
ATOM     12  C   UNL     1      -3.122  -0.747  24.559  0.00  0.00    +0.124 C 
ATOM     13  C   UNL     1      -3.845   0.401  24.429  0.00  0.00    +0.265 C 
ATOM     14  O   UNL     1      -4.418  -0.135  24.175  0.00  0.00    -0.271 OA
ATOM     15  N   UNL     1      -4.073   1.194  24.434  0.00  0.00    -0.178 NA
ATOM     16  C   UNL     1      -3.632   1.855  24.655  0.00  0.00    +0.078 A 
ATOM     17  C   UNL     1      -2.854   1.886  24.928  0.00  0.00    +0.069 A 
ATOM     18  C   UNL     1      -2.513   2.612  25.122  0.00  0.00    +0.006 A 
ATOM     19  C   UNL     1      -2.952   3.307  25.043  0.00  0.00    +0.000 A 
ATOM     20  C   UNL     1      -3.729   3.275  24.771  0.00  0.00    +0.001 A 
ATOM     21  C   UNL     1      -4.070   2.550  24.577  0.00  0.00    +0.017 A 
ATOM     32  C   UNL     1      -2.325   1.264  25.046  0.00  0.00    +0.251 C 
ATOM     33  O   UNL     1      -1.579   1.477  25.326  0.00  0.00    -0.270 OA
ENDROOT
BRANCH  19  22
ATOM     22  C   UNL     1      -2.611   4.033  25.237  0.00  0.00    -0.000 A 
ATOM     23  C   UNL     1      -1.890   4.253  24.903  0.00  0.00    +0.004 A 
ATOM     24  C   UNL     1      -1.550   4.979  25.097  0.00  0.00    +0.071 A 
ATOM     25  C   UNL     1      -1.932   5.486  25.625  0.00  0.00    +0.004 A 
ATOM     26  C   UNL     1      -2.653   5.266  25.959  0.00  0.00    -0.000 A 
ATOM     27  C   UNL     1      -2.994   4.540  25.765  0.00  0.00    -0.000 A 
BRANCH  24  28
ATOM     28  C   UNL     1      -0.828   5.199  24.764  0.00  0.00    +0.419 C 
ATOM     29  F   UNL     1      -0.107   5.419  24.430  0.00  0.00    -0.166 F 
ATOM     30  F   UNL     1      -1.212   5.778  24.317  0.00  0.00    -0.166 F 
ATOM     31  F   UNL     1      -0.446   4.621  25.210  0.00  0.00    -0.166 F 
ENDBRANCH  24  28
ENDBRANCH  19  22
BRANCH   4   3
ATOM      3  C   UNL     1      -3.128  -3.209  24.299  0.00  0.00    +0.117 C 
BRANCH   3   2
ATOM      1  C   UNL     1      -4.256  -3.600  23.514  0.00  0.00    +0.002 C 
ATOM      2  C   UNL     1      -3.843  -3.614  24.228  0.00  0.00    +0.023 C 
ENDBRANCH   3   2
ENDBRANCH   4   3
TORSDOF 4
ENDMDL
MODEL 5
REMARK VINA RESULT:     -10.6      1.202      2.090
REMARK  Name = 
REMARK  4 active torsions:
REMARK  status: ('A' for Active; 'I' for Inactive)
REMARK    1  A    between atoms: C_2  and  C_3
REMARK    2  A    between atoms: C_3  and  N_4
REMARK    3  A    between atoms: C_19  and  C_22
REMARK    4  A    between atoms: C_24  and  C_28
REMARK                            x       y       z     vdW  Elec       q    Type
REMARK                         _______ _______ _______ _____ _____    ______ ____
ROOT
ATOM      4  N   UNL     1       1.539   0.640  23.513  0.00  0.00    -0.188 NA
ATOM      5  C   UNL     1       1.178   1.363  23.682  0.00  0.00    +0.323 C 
ATOM      6  O   UNL     1       1.622   2.058  23.665  0.00  0.00    -0.251 OA
ATOM      7  N   UNL     1       0.375   1.391  23.867  0.00  0.00    -0.259 N 
ATOM      8  C   UNL     1       0.015   2.114  24.036  0.00  0.00    +0.117 C 
ATOM      9  C   UNL     1      -0.788   2.142  24.221  0.00  0.00    +0.116 C 
ATOM     10  N   UNL     1      -1.232   1.446  24.238  0.00  0.00    -0.266 N 
ATOM     11  C   UNL     1      -0.872   0.723  24.069  0.00  0.00    +0.174 C 
ATOM     12  C   UNL     1      -0.069   0.696  23.884  0.00  0.00    +0.124 C 
ATOM     13  C   UNL     1      -1.211  -0.029  24.055  0.00  0.00    +0.265 C 
ATOM     14  O   UNL     1      -0.700  -0.648  23.865  0.00  0.00    -0.271 OA
ATOM     15  N   UNL     1      -1.993  -0.244  24.206  0.00  0.00    -0.178 NA
ATOM     16  C   UNL     1      -2.629   0.241  24.409  0.00  0.00    +0.078 A 
ATOM     17  C   UNL     1      -2.641   1.059  24.510  0.00  0.00    +0.069 A 
ATOM     18  C   UNL     1      -3.344   1.440  24.715  0.00  0.00    +0.006 A 
ATOM     19  C   UNL     1      -4.035   1.001  24.819  0.00  0.00    +0.000 A 
ATOM     20  C   UNL     1      -4.023   0.183  24.717  0.00  0.00    +0.001 A 
ATOM     21  C   UNL     1      -3.321  -0.198  24.512  0.00  0.00    +0.017 A 
ATOM     32  C   UNL     1      -2.019   1.596  24.434  0.00  0.00    +0.251 C 
ATOM     33  O   UNL     1      -2.209   2.386  24.573  0.00  0.00    -0.270 OA
ENDROOT
BRANCH  19  22
ATOM     22  C   UNL     1      -4.738   1.381  25.024  0.00  0.00    -0.000 A 
ATOM     23  C   UNL     1      -4.729   2.175  25.245  0.00  0.00    +0.004 A 
ATOM     24  C   UNL     1      -5.432   2.556  25.450  0.00  0.00    +0.071 A 
ATOM     25  C   UNL     1      -6.145   2.140  25.434  0.00  0.00    +0.004 A 
ATOM     26  C   UNL     1      -6.155   1.346  25.213  0.00  0.00    -0.000 A 
ATOM     27  C   UNL     1      -5.452   0.966  25.008  0.00  0.00    -0.000 A 
BRANCH  24  28
ATOM     28  C   UNL     1      -5.422   3.350  25.671  0.00  0.00    +0.419 C 
ATOM     29  F   UNL     1      -5.412   4.144  25.892  0.00  0.00    -0.166 F 
ATOM     30  F   UNL     1      -5.369   3.128  26.464  0.00  0.00    -0.166 F 
ATOM     31  F   UNL     1      -5.475   3.571  24.878  0.00  0.00    -0.166 F 
ENDBRANCH  24  28
ENDBRANCH  19  22
BRANCH   4   3
ATOM      3  C   UNL     1       2.342   0.612  23.328  0.00  0.00    +0.117 C 
BRANCH   3   2
ATOM      1  C   UNL     1       3.435  -0.103  22.750  0.00  0.00    +0.002 C 
ATOM      2  C   UNL     1       2.625   0.042  22.803  0.00  0.00    +0.023 C 
ENDBRANCH   3   2
ENDBRANCH   4   3
TORSDOF 4
ENDMDL
MODEL 6
REMARK VINA RESULT:     -10.3      3.161      6.425
REMARK  Name = 
REMARK  4 active torsions:
REMARK  status: ('A' for Active; 'I' for Inactive)
REMARK    1  A    between atoms: C_2  and  C_3
REMARK    2  A    between atoms: C_3  and  N_4
REMARK    3  A    between atoms: C_19  and  C_22
REMARK    4  A    between atoms: C_24  and  C_28
REMARK                            x       y       z     vdW  Elec       q    Type
REMARK                         _______ _______ _______ _____ _____    ______ ____
ROOT
ATOM      4  N   UNL     1      -4.541   2.037  25.145  0.00  0.00    -0.188 NA
ATOM      5  C   UNL     1      -4.102   2.424  24.562  0.00  0.00    +0.323 C 
ATOM      6  O   UNL     1      -4.387   3.121  24.226  0.00  0.00    -0.251 OA
ATOM      7  N   UNL     1      -3.378   2.114  24.316  0.00  0.00    -0.259 N 
ATOM      8  C   UNL     1      -2.940   2.500  23.734  0.00  0.00    +0.117 C 
ATOM      9  C   UNL     1      -2.216   2.190  23.488  0.00  0.00    +0.116 C 
ATOM     10  N   UNL     1      -1.931   1.492  23.825  0.00  0.00    -0.266 N 
ATOM     11  C   UNL     1      -2.369   1.106  24.407  0.00  0.00    +0.174 C 
ATOM     12  C   UNL     1      -3.093   1.416  24.652  0.00  0.00    +0.124 C 
ATOM     13  C   UNL     1      -2.187   0.410  24.811  0.00  0.00    +0.265 C 
ATOM     14  O   UNL     1      -2.744   0.162  25.366  0.00  0.00    -0.271 OA
ATOM     15  N   UNL     1      -1.521  -0.072  24.732  0.00  0.00    -0.178 NA
ATOM     16  C   UNL     1      -0.874   0.024  24.230  0.00  0.00    +0.078 A 
ATOM     17  C   UNL     1      -0.731   0.625  23.683  0.00  0.00    +0.069 A 
ATOM     18  C   UNL     1      -0.041   0.617  23.231  0.00  0.00    +0.006 A 
ATOM     19  C   UNL     1       0.507   0.007  23.327  0.00  0.00    +0.000 A 
ATOM     20  C   UNL     1       0.365  -0.593  23.874  0.00  0.00    +0.001 A 
ATOM     21  C   UNL     1      -0.325  -0.585  24.326  0.00  0.00    +0.017 A 
ATOM     32  C   UNL     1      -1.202   1.278  23.502  0.00  0.00    +0.251 C 
ATOM     33  O   UNL     1      -0.905   1.785  22.923  0.00  0.00    -0.270 OA
ENDROOT
BRANCH  19  22
ATOM     22  C   UNL     1       1.197  -0.001  22.875  0.00  0.00    -0.000 A 
ATOM     23  C   UNL     1       1.888   0.340  23.170  0.00  0.00    +0.004 A 
ATOM     24  C   UNL     1       2.578   0.331  22.719  0.00  0.00    +0.071 A 
ATOM     25  C   UNL     1       2.578  -0.019  21.971  0.00  0.00    +0.004 A 
ATOM     26  C   UNL     1       1.887  -0.360  21.676  0.00  0.00    -0.000 A 
ATOM     27  C   UNL     1       1.197  -0.352  22.128  0.00  0.00    -0.000 A 
BRANCH  24  28
ATOM     28  C   UNL     1       3.269   0.672  23.014  0.00  0.00    +0.419 C 
ATOM     29  F   UNL     1       3.959   1.014  23.309  0.00  0.00    -0.166 F 
ATOM     30  F   UNL     1       3.626  -0.071  23.037  0.00  0.00    -0.166 F 
ATOM     31  F   UNL     1       2.911   1.415  22.991  0.00  0.00    -0.166 F 
ENDBRANCH  24  28
ENDBRANCH  19  22
BRANCH   4   3
ATOM      3  C   UNL     1      -5.264   2.348  25.390  0.00  0.00    +0.117 C 
BRANCH   3   2
ATOM      1  C   UNL     1      -6.242   2.083  26.397  0.00  0.00    +0.002 C 
ATOM      2  C   UNL     1      -5.836   1.852  25.718  0.00  0.00    +0.023 C 
ENDBRANCH   3   2
ENDBRANCH   4   3
TORSDOF 4
ENDMDL
MODEL 7
REMARK VINA RESULT:      -9.8      2.975      4.467
REMARK  Name = 
REMARK  4 active torsions:
REMARK  status: ('A' for Active; 'I' for Inactive)
REMARK    1  A    between atoms: C_2  and  C_3
REMARK    2  A    between atoms: C_3  and  N_4
REMARK    3  A    between atoms: C_19  and  C_22
REMARK    4  A    between atoms: C_24  and  C_28
REMARK                            x       y       z     vdW  Elec       q    Type
REMARK                         _______ _______ _______ _____ _____    ______ ____
ROOT
ATOM      4  N   UNL     1      -3.586  -2.044  24.407  0.00  0.00    -0.188 NA
ATOM      5  C   UNL     1      -3.910  -1.349  24.101  0.00  0.00    +0.323 C 
ATOM      6  O   UNL     1      -4.630  -1.373  23.699  0.00  0.00    -0.251 OA
ATOM      7  N   UNL     1      -3.514  -0.632  24.196  0.00  0.00    -0.259 N 
ATOM      8  C   UNL     1      -3.838   0.062  23.890  0.00  0.00    +0.117 C 
ATOM      9  C   UNL     1      -3.442   0.780  23.986  0.00  0.00    +0.116 C 
ATOM     10  N   UNL     1      -2.721   0.802  24.388  0.00  0.00    -0.266 N 
ATOM     11  C   UNL     1      -2.398   0.108  24.694  0.00  0.00    +0.174 C 
ATOM     12  C   UNL     1      -2.794  -0.609  24.598  0.00  0.00    +0.124 C 
ATOM     13  C   UNL     1      -1.692   0.010  25.110  0.00  0.00    +0.265 C 
ATOM     14  O   UNL     1      -1.519  -0.762  25.344  0.00  0.00    -0.271 OA
ATOM     15  N   UNL     1      -1.135   0.581  25.321  0.00  0.00    -0.178 NA
ATOM     16  C   UNL     1      -1.148   1.392  25.170  0.00  0.00    +0.078 A 
ATOM     17  C   UNL     1      -1.719   1.832  24.770  0.00  0.00    +0.069 A 
ATOM     18  C   UNL     1      -1.625   2.647  24.678  0.00  0.00    +0.006 A 
ATOM     19  C   UNL     1      -0.957   3.021  24.988  0.00  0.00    +0.000 A 
ATOM     20  C   UNL     1      -0.386   2.581  25.388  0.00  0.00    +0.001 A 
ATOM     21  C   UNL     1      -0.481   1.767  25.480  0.00  0.00    +0.017 A 
ATOM     32  C   UNL     1      -2.420   1.569  24.422  0.00  0.00    +0.251 C 
ATOM     33  O   UNL     1      -2.879   2.151  24.059  0.00  0.00    -0.270 OA
ENDROOT
BRANCH  19  22
ATOM     22  C   UNL     1      -0.861   3.835  24.897  0.00  0.00    -0.000 A 
ATOM     23  C   UNL     1      -1.438   4.353  25.180  0.00  0.00    +0.004 A 
ATOM     24  C   UNL     1      -1.342   5.167  25.089  0.00  0.00    +0.071 A 
ATOM     25  C   UNL     1      -0.669   5.464  24.715  0.00  0.00    +0.004 A 
ATOM     26  C   UNL     1      -0.093   4.947  24.432  0.00  0.00    -0.000 A 
ATOM     27  C   UNL     1      -0.188   4.132  24.523  0.00  0.00    -0.000 A 
BRANCH  24  28
ATOM     28  C   UNL     1      -1.919   5.684  25.372  0.00  0.00    +0.419 C 
ATOM     29  F   UNL     1      -2.496   6.201  25.655  0.00  0.00    -0.166 F 
ATOM     30  F   UNL     1      -2.157   5.117  25.923  0.00  0.00    -0.166 F 
ATOM     31  F   UNL     1      -1.681   6.250  24.822  0.00  0.00    -0.166 F 
ENDBRANCH  24  28
ENDBRANCH  19  22
BRANCH   4   3
ATOM      3  C   UNL     1      -3.982  -2.761  24.311  0.00  0.00    +0.117 C 
BRANCH   3   2
ATOM      1  C   UNL     1      -3.319  -3.736  25.119  0.00  0.00    +0.002 C 
ATOM      2  C   UNL     1      -3.570  -3.472  24.379  0.00  0.00    +0.023 C 
ENDBRANCH   3   2
ENDBRANCH   4   3
TORSDOF 4
ENDMDL
MODEL 8
REMARK VINA RESULT:      -9.6      3.508      6.886
REMARK  Name = 
REMARK  4 active torsions:
REMARK  status: ('A' for Active; 'I' for Inactive)
REMARK    1  A    between atoms: C_2  and  C_3
REMARK    2  A    between atoms: C_3  and  N_4
REMARK    3  A    between atoms: C_19  and  C_22
REMARK    4  A    between atoms: C_24  and  C_28
REMARK                            x       y       z     vdW  Elec       q    Type
REMARK                         _______ _______ _______ _____ _____    ______ ____
ROOT
ATOM      4  N   UNL     1      -2.934   1.944  24.818  0.00  0.00    -0.188 NA
ATOM      5  C   UNL     1      -2.269   2.410  24.966  0.00  0.00    +0.323 C 
ATOM      6  O   UNL     1      -2.347   3.122  25.376  0.00  0.00    -0.251 OA
ATOM      7  N   UNL     1      -1.526   2.164  24.705  0.00  0.00    -0.259 N 
ATOM      8  C   UNL     1      -0.862   2.629  24.852  0.00  0.00    +0.117 C 
ATOM      9  C   UNL     1      -0.118   2.384  24.591  0.00  0.00    +0.116 C 
ATOM     10  N   UNL     1      -0.041   1.671  24.181  0.00  0.00    -0.266 N 
ATOM     11  C   UNL     1      -0.705   1.206  24.034  0.00  0.00    +0.174 C 
ATOM     12  C   UNL     1      -1.448   1.452  24.295  0.00  0.00    +0.124 C 
ATOM     13  C   UNL     1      -0.749   0.483  23.638  0.00  0.00    +0.265 C 
ATOM     14  O   UNL     1      -1.502   0.152  23.581  0.00  0.00    -0.271 OA
ATOM     15  N   UNL     1      -0.139   0.047  23.294  0.00  0.00    -0.178 NA
ATOM     16  C   UNL     1       0.665   0.227  23.259  0.00  0.00    +0.078 A 
ATOM     17  C   UNL     1       1.059   0.886  23.560  0.00  0.00    +0.069 A 
ATOM     18  C   UNL     1       1.875   0.961  23.464  0.00  0.00    +0.006 A 
ATOM     19  C   UNL     1       2.298   0.373  23.066  0.00  0.00    +0.000 A 
ATOM     20  C   UNL     1       1.904  -0.286  22.765  0.00  0.00    +0.001 A 
ATOM     21  C   UNL     1       1.089  -0.359  22.861  0.00  0.00    +0.017 A 
ATOM     32  C   UNL     1       0.744   1.530  23.971  0.00  0.00    +0.251 C 
ATOM     33  O   UNL     1       1.286   2.107  24.201  0.00  0.00    -0.270 OA
ENDROOT
BRANCH  19  22
ATOM     22  C   UNL     1       3.114   0.447  22.970  0.00  0.00    -0.000 A 
ATOM     23  C   UNL     1       3.626   0.050  23.480  0.00  0.00    +0.004 A 
ATOM     24  C   UNL     1       4.443   0.123  23.384  0.00  0.00    +0.071 A 
ATOM     25  C   UNL     1       4.746   0.594  22.777  0.00  0.00    +0.004 A 
ATOM     26  C   UNL     1       4.233   0.990  22.267  0.00  0.00    -0.000 A 
ATOM     27  C   UNL     1       3.417   0.917  22.363  0.00  0.00    -0.000 A 
BRANCH  24  28
ATOM     28  C   UNL     1       4.955  -0.274  23.893  0.00  0.00    +0.419 C 
ATOM     29  F   UNL     1       5.468  -0.671  24.403  0.00  0.00    -0.166 F 
ATOM     30  F   UNL     1       4.720  -0.995  23.567  0.00  0.00    -0.166 F 
ATOM     31  F   UNL     1       5.190   0.447  24.219  0.00  0.00    -0.166 F 
ENDBRANCH  24  28
ENDBRANCH  19  22
BRANCH   4   3
ATOM      3  C   UNL     1      -3.676   2.190  25.080  0.00  0.00    +0.117 C 
BRANCH   3   2
ATOM      1  C   UNL     1      -5.094   2.015  25.082  0.00  0.00    +0.002 C 
ATOM      2  C   UNL     1      -4.337   1.713  24.953  0.00  0.00    +0.023 C 
ENDBRANCH   3   2
ENDBRANCH   4   3
TORSDOF 4
ENDMDL
