MODEL 1
REMARK VINA RESULT:     -10.2      0.000      0.000
REMARK  Name = 
REMARK  6 active torsions:
REMARK  status: ('A' for Active; 'I' for Inactive)
REMARK    1  A    between atoms: O_2  and  C_3
REMARK    2  A    between atoms: C_6  and  C_9
REMARK    3  A    between atoms: C_12  and  C_14
REMARK    4  A    between atoms: N_19  and  C_20
REMARK    5  A    between atoms: C_20  and  C_21
REMARK    6  A    between atoms: C_24  and  N_25
REMARK                            x       y       z     vdW  Elec       q    Type
REMARK                         _______ _______ _______ _____ _____    ______ ____
ROOT
ATOM     14  C   UNL     1      -3.964   2.204  24.827  0.00  0.00    +0.144 C 
ATOM     15  C   UNL     1      -4.539   2.717  25.120  0.00  0.00    +0.073 C 
ATOM     16  C   UNL     1      -5.325   2.471  25.172  0.00  0.00    +0.077 A 
ATOM     17  C   UNL     1      -5.535   1.710  24.930  0.00  0.00    +0.090 A 
ATOM     18  C   UNL     1      -4.960   1.196  24.637  0.00  0.00    +0.121 C 
ATOM     19  N   UNL     1      -4.174   1.443  24.585  0.00  0.00    -0.257 NA
ATOM     31  N   UNL     1      -6.347   1.622  25.045  0.00  0.00    -0.226 NA
ATOM     32  C   UNL     1      -6.638   2.327  25.358  0.00  0.00    +0.198 A 
ATOM     33  N   UNL     1      -6.006   2.851  25.436  0.00  0.00    -0.227 NA
ENDROOT
BRANCH  14  12
ATOM      9  C   UNL     1      -1.891   2.656  25.062  0.00  0.00    +0.203 A 
ATOM     10  N   UNL     1      -2.047   3.002  24.330  0.00  0.00    -0.056 NA
ATOM     11  O   UNL     1      -2.844   2.874  24.152  0.00  0.00    -0.336 OA
ATOM     12  C   UNL     1      -3.179   2.450  24.775  0.00  0.00    +0.251 A 
ATOM     13  N   UNL     1      -2.590   2.315  25.337  0.00  0.00    -0.190 NA
BRANCH   9   6
ATOM      3  C   UNL     1       0.291   2.643  26.229  0.00  0.00    +0.139 A 
ATOM      4  C   UNL     1      -0.354   3.029  26.567  0.00  0.00    +0.037 A 
ATOM      5  C   UNL     1      -1.082   3.034  26.178  0.00  0.00    +0.006 A 
ATOM      6  C   UNL     1      -1.164   2.652  25.451  0.00  0.00    +0.039 A 
ATOM      7  C   UNL     1      -0.517   2.266  25.113  0.00  0.00    +0.006 A 
ATOM      8  C   UNL     1       0.210   2.261  25.503  0.00  0.00    +0.037 A 
BRANCH   3   2
ATOM      1  C   UNL     1       1.046   2.618  27.442  0.00  0.00    +0.252 C 
ATOM      2  O   UNL     1       1.019   2.639  26.618  0.00  0.00    -0.471 OA
ENDBRANCH   3   2
ENDBRANCH   9   6
ENDBRANCH  14  12
BRANCH  19  20
ATOM     20  C   UNL     1      -3.600   0.929  24.292  0.00  0.00    +0.100 C 
BRANCH  20  21
ATOM     21  C   UNL     1      -3.701   0.114  24.362  0.00  0.00    -0.006 A 
ATOM     22  C   UNL     1      -3.577  -0.255  25.089  0.00  0.00    -0.002 A 
ATOM     23  C   UNL     1      -3.678  -1.071  25.160  0.00  0.00    +0.016 A 
ATOM     24  C   UNL     1      -3.902  -1.518  24.504  0.00  0.00    +0.073 A 
ATOM     29  C   UNL     1      -4.025  -1.148  23.776  0.00  0.00    +0.016 A 
ATOM     30  C   UNL     1      -3.924  -0.332  23.705  0.00  0.00    -0.002 A 
BRANCH  24  25
ATOM     25  N   UNL     1      -4.003  -2.334  24.574  0.00  0.00    -0.179 NA
ATOM     26  C   UNL     1      -3.360  -2.839  24.464  0.00  0.00    +0.246 C 
ATOM     27  C   UNL     1      -3.461  -3.655  24.535  0.00  0.00    +0.097 C 
ATOM     28  O   UNL     1      -2.617  -2.530  24.284  0.00  0.00    -0.273 OA
ENDBRANCH  24  25
ENDBRANCH  20  21
ENDBRANCH  19  20
TORSDOF 6
ENDMDL
MODEL 2
REMARK VINA RESULT:     -10.1      1.624      4.505
REMARK  Name = 
REMARK  6 active torsions:
REMARK  status: ('A' for Active; 'I' for Inactive)
REMARK    1  A    between atoms: O_2  and  C_3
REMARK    2  A    between atoms: C_6  and  C_9
REMARK    3  A    between atoms: C_12  and  C_14
REMARK    4  A    between atoms: N_19  and  C_20
REMARK    5  A    between atoms: C_20  and  C_21
REMARK    6  A    between atoms: C_24  and  N_25
REMARK                            x       y       z     vdW  Elec       q    Type
REMARK                         _______ _______ _______ _____ _____    ______ ____
ROOT
ATOM     14  C   UNL     1      -4.546   1.209  24.961  0.00  0.00    +0.144 C 
ATOM     15  C   UNL     1      -5.276   1.090  25.326  0.00  0.00    +0.073 C 
ATOM     16  C   UNL     1      -5.667   1.722  25.684  0.00  0.00    +0.077 A 
ATOM     17  C   UNL     1      -5.328   2.474  25.677  0.00  0.00    +0.090 A 
ATOM     18  C   UNL     1      -4.597   2.594  25.312  0.00  0.00    +0.121 C 
ATOM     19  N   UNL     1      -4.207   1.961  24.954  0.00  0.00    -0.257 NA
ATOM     31  N   UNL     1      -5.838   2.988  26.072  0.00  0.00    -0.226 NA
ATOM     32  C   UNL     1      -6.493   2.554  26.323  0.00  0.00    +0.198 A 
ATOM     33  N   UNL     1      -6.386   1.772  26.083  0.00  0.00    -0.227 NA
ENDROOT
BRANCH  14  12
ATOM      9  C   UNL     1      -3.345  -0.464  24.402  0.00  0.00    +0.203 A 
ATOM     10  N   UNL     1      -3.762  -0.327  23.704  0.00  0.00    -0.056 NA
ATOM     11  O   UNL     1      -4.263   0.317  23.828  0.00  0.00    -0.336 OA
ATOM     12  C   UNL     1      -4.155   0.578  24.604  0.00  0.00    +0.251 A 
ATOM     13  N   UNL     1      -3.588   0.095  24.958  0.00  0.00    -0.190 NA
BRANCH   9   6
ATOM      3  C   UNL     1      -1.659  -2.238  24.767  0.00  0.00    +0.139 A 
ATOM      4  C   UNL     1      -2.458  -2.434  24.716  0.00  0.00    +0.037 A 
ATOM      5  C   UNL     1      -3.021  -1.842  24.594  0.00  0.00    +0.006 A 
ATOM      6  C   UNL     1      -2.783  -1.056  24.523  0.00  0.00    +0.039 A 
ATOM      7  C   UNL     1      -1.983  -0.860  24.574  0.00  0.00    +0.006 A 
ATOM      8  C   UNL     1      -1.421  -1.452  24.695  0.00  0.00    +0.037 A 
BRANCH   3   2
ATOM      1  C   UNL     1      -0.384  -2.651  25.264  0.00  0.00    +0.252 C 
ATOM      2  O   UNL     1      -1.096  -2.830  24.888  0.00  0.00    -0.471 OA
ENDBRANCH   3   2
ENDBRANCH   9   6
ENDBRANCH  14  12
BRANCH  19  20
ATOM     20  C   UNL     1      -3.477   2.082  24.590  0.00  0.00    +0.100 C 
BRANCH  20  21
ATOM     21  C   UNL     1      -3.054   2.776  24.731  0.00  0.00    -0.006 A 
ATOM     22  C   UNL     1      -2.532   2.818  25.368  0.00  0.00    -0.002 A 
ATOM     23  C   UNL     1      -2.109   3.512  25.509  0.00  0.00    +0.016 A 
ATOM     24  C   UNL     1      -2.208   4.164  25.014  0.00  0.00    +0.073 A 
ATOM     29  C   UNL     1      -2.730   4.121  24.376  0.00  0.00    +0.016 A 
ATOM     30  C   UNL     1      -3.153   3.427  24.235  0.00  0.00    -0.002 A 
BRANCH  24  25
ATOM     25  N   UNL     1      -1.784   4.858  25.156  0.00  0.00    -0.179 NA
ATOM     26  C   UNL     1      -1.019   4.941  24.860  0.00  0.00    +0.246 C 
ATOM     27  C   UNL     1      -0.596   5.635  25.001  0.00  0.00    +0.097 C 
ATOM     28  O   UNL     1      -0.676   4.332  24.423  0.00  0.00    -0.273 OA
ENDBRANCH  24  25
ENDBRANCH  20  21
ENDBRANCH  19  20
TORSDOF 6
ENDMDL
MODEL 3
REMARK VINA RESULT:     -10.0      2.644      6.201
REMARK  Name = 
REMARK  6 active torsions:
REMARK  status: ('A' for Active; 'I' for Inactive)
REMARK    1  A    between atoms: O_2  and  C_3
REMARK    2  A    between atoms: C_6  and  C_9
REMARK    3  A    between atoms: C_12  and  C_14
REMARK    4  A    between atoms: N_19  and  C_20
REMARK    5  A    between atoms: C_20  and  C_21
REMARK    6  A    between atoms: C_24  and  N_25
REMARK                            x       y       z     vdW  Elec       q    Type
REMARK                         _______ _______ _______ _____ _____    ______ ____
ROOT
ATOM     14  C   UNL     1      -0.033  -0.135  24.172  0.00  0.00    +0.144 C 
ATOM     15  C   UNL     1       0.519  -0.492  23.674  0.00  0.00    +0.073 C 
ATOM     16  C   UNL     1       1.118  -0.041  23.330  0.00  0.00    +0.077 A 
ATOM     17  C   UNL     1       1.167   0.768  23.486  0.00  0.00    +0.090 A 
ATOM     18  C   UNL     1       0.615   1.125  23.985  0.00  0.00    +0.121 C 
ATOM     19  N   UNL     1       0.016   0.674  24.328  0.00  0.00    -0.257 NA
ATOM     31  N   UNL     1       1.813   1.069  23.073  0.00  0.00    -0.226 NA
ATOM     32  C   UNL     1       2.165   0.447  22.661  0.00  0.00    +0.198 A 
ATOM     33  N   UNL     1       1.735  -0.239  22.821  0.00  0.00    -0.227 NA
ENDROOT
BRANCH  14  12
ATOM      9  C   UNL     1      -1.765  -1.270  24.688  0.00  0.00    +0.203 A 
ATOM     10  N   UNL     1      -1.344  -1.291  25.397  0.00  0.00    -0.056 NA
ATOM     11  O   UNL     1      -0.643  -0.868  25.290  0.00  0.00    -0.336 OA
ATOM     12  C   UNL     1      -0.632  -0.586  24.515  0.00  0.00    +0.251 A 
ATOM     13  N   UNL     1      -1.325  -0.834  24.143  0.00  0.00    -0.190 NA
BRANCH   9   6
ATOM      3  C   UNL     1      -3.963  -2.328  24.268  0.00  0.00    +0.139 A 
ATOM      4  C   UNL     1      -3.879  -1.511  24.200  0.00  0.00    +0.037 A 
ATOM      5  C   UNL     1      -3.147  -1.157  24.340  0.00  0.00    +0.006 A 
ATOM      6  C   UNL     1      -2.498  -1.622  24.548  0.00  0.00    +0.039 A 
ATOM      7  C   UNL     1      -2.581  -2.441  24.616  0.00  0.00    +0.006 A 
ATOM      8  C   UNL     1      -3.314  -2.793  24.476  0.00  0.00    +0.037 A 
BRANCH   3   2
ATOM      1  C   UNL     1      -4.927  -2.858  23.357  0.00  0.00    +0.252 C 
ATOM      2  O   UNL     1      -4.695  -2.682  24.128  0.00  0.00    -0.471 OA
ENDBRANCH   3   2
ENDBRANCH   9   6
ENDBRANCH  14  12
BRANCH  19  20
ATOM     20  C   UNL     1      -0.535   1.032  24.827  0.00  0.00    +0.100 C 
BRANCH  20  21
ATOM     21  C   UNL     1      -0.613   1.853  24.835  0.00  0.00    -0.006 A 
ATOM     22  C   UNL     1      -0.248   2.295  25.427  0.00  0.00    -0.002 A 
ATOM     23  C   UNL     1      -0.325   3.117  25.435  0.00  0.00    +0.016 A 
ATOM     24  C   UNL     1      -0.767   3.496  24.851  0.00  0.00    +0.073 A 
ATOM     29  C   UNL     1      -1.133   3.052  24.258  0.00  0.00    +0.016 A 
ATOM     30  C   UNL     1      -1.056   2.231  24.250  0.00  0.00    -0.002 A 
BRANCH  24  25
ATOM     25  N   UNL     1      -0.845   4.317  24.860  0.00  0.00    -0.179 NA
ATOM     26  C   UNL     1      -1.516   4.664  25.190  0.00  0.00    +0.246 C 
ATOM     27  C   UNL     1      -1.593   5.486  25.199  0.00  0.00    +0.097 C 
ATOM     28  O   UNL     1      -2.109   4.191  25.513  0.00  0.00    -0.273 OA
ENDBRANCH  24  25
ENDBRANCH  20  21
ENDBRANCH  19  20
TORSDOF 6
ENDMDL
MODEL 4
REMARK VINA RESULT:      -9.9      2.386      3.996
REMARK  Name = 
REMARK  6 active torsions:
REMARK  status: ('A' for Active; 'I' for Inactive)
REMARK    1  A    between atoms: O_2  and  C_3
REMARK    2  A    between atoms: C_6  and  C_9
REMARK    3  A    between atoms: C_12  and  C_14
REMARK    4  A    between atoms: N_19  and  C_20
REMARK    5  A    between atoms: C_20  and  C_21
REMARK    6  A    between atoms: C_24  and  N_25
REMARK                            x       y       z     vdW  Elec       q    Type
REMARK                         _______ _______ _______ _____ _____    ______ ____
ROOT
ATOM     14  C   UNL     1      -0.009   1.141  24.487  0.00  0.00    +0.144 C 
ATOM     15  C   UNL     1       0.605   1.145  23.937  0.00  0.00    +0.073 C 
ATOM     16  C   UNL     1       0.760   0.472  23.486  0.00  0.00    +0.077 A 
ATOM     17  C   UNL     1       0.301  -0.206  23.585  0.00  0.00    +0.090 A 
ATOM     18  C   UNL     1      -0.314  -0.211  24.136  0.00  0.00    +0.121 C 
ATOM     19  N   UNL     1      -0.469   0.463  24.587  0.00  0.00    -0.257 NA
ATOM     31  N   UNL     1       0.581  -0.782  23.066  0.00  0.00    -0.226 NA
ATOM     32  C   UNL     1       1.213  -0.461  22.646  0.00  0.00    +0.198 A 
ATOM     33  N   UNL     1       1.324   0.314  22.906  0.00  0.00    -0.227 NA
ENDROOT
BRANCH  14  12
ATOM      9  C   UNL     1      -0.614   3.011  25.319  0.00  0.00    +0.203 A 
ATOM     10  N   UNL     1      -0.190   2.687  25.947  0.00  0.00    -0.056 NA
ATOM     11  O   UNL     1       0.089   1.947  25.713  0.00  0.00    -0.336 OA
ATOM     12  C   UNL     1      -0.164   1.813  24.938  0.00  0.00    +0.251 A 
ATOM     13  N   UNL     1      -0.598   2.471  24.695  0.00  0.00    -0.190 NA
BRANCH   9   6
ATOM      3  C   UNL     1      -1.738   5.216  25.302  0.00  0.00    +0.139 A 
ATOM      4  C   UNL     1      -2.118   4.563  25.632  0.00  0.00    +0.037 A 
ATOM      5  C   UNL     1      -1.743   3.827  25.638  0.00  0.00    +0.006 A 
ATOM      6  C   UNL     1      -0.989   3.746  25.313  0.00  0.00    +0.039 A 
ATOM      7  C   UNL     1      -0.609   4.400  24.983  0.00  0.00    +0.006 A 
ATOM      8  C   UNL     1      -0.984   5.135  24.978  0.00  0.00    +0.037 A 
BRANCH   3   2
ATOM      1  C   UNL     1      -2.085   6.423  24.620  0.00  0.00    +0.252 C 
ATOM      2  O   UNL     1      -2.113   5.952  25.296  0.00  0.00    -0.471 OA
ENDBRANCH   3   2
ENDBRANCH   9   6
ENDBRANCH  14  12
BRANCH  19  20
ATOM     20  C   UNL     1      -1.083   0.458  25.137  0.00  0.00    +0.100 C 
BRANCH  20  21
ATOM     21  C   UNL     1      -1.674  -0.116  25.091  0.00  0.00    -0.006 A 
ATOM     22  C   UNL     1      -2.306  -0.016  24.570  0.00  0.00    -0.002 A 
ATOM     23  C   UNL     1      -2.897  -0.590  24.524  0.00  0.00    +0.016 A 
ATOM     24  C   UNL     1      -2.856  -1.264  24.998  0.00  0.00    +0.073 A 
ATOM     29  C   UNL     1      -2.223  -1.364  25.519  0.00  0.00    +0.016 A 
ATOM     30  C   UNL     1      -1.632  -0.790  25.565  0.00  0.00    -0.002 A 
BRANCH  24  25
ATOM     25  N   UNL     1      -3.447  -1.838  24.952  0.00  0.00    -0.179 NA
ATOM     26  C   UNL     1      -3.330  -2.513  24.492  0.00  0.00    +0.246 C 
ATOM     27  C   UNL     1      -3.921  -3.087  24.446  0.00  0.00    +0.097 C 
ATOM     28  O   UNL     1      -2.624  -2.615  24.080  0.00  0.00    -0.273 OA
ENDBRANCH  24  25
ENDBRANCH  20  21
ENDBRANCH  19  20
TORSDOF 6
ENDMDL
MODEL 5
REMARK VINA RESULT:      -9.8      3.461      5.586
REMARK  Name = 
REMARK  6 active torsions:
REMARK  status: ('A' for Active; 'I' for Inactive)
REMARK    1  A    between atoms: O_2  and  C_3
REMARK    2  A    between atoms: C_6  and  C_9
REMARK    3  A    between atoms: C_12  and  C_14
REMARK    4  A    between atoms: N_19  and  C_20
REMARK    5  A    between atoms: C_20  and  C_21
REMARK    6  A    between atoms: C_24  and  N_25
REMARK                            x       y       z     vdW  Elec       q    Type
REMARK                         _______ _______ _______ _____ _____    ______ ____
ROOT
ATOM     14  C   UNL     1       0.024  -0.187  23.877  0.00  0.00    +0.144 C 
ATOM     15  C   UNL     1      -0.277  -0.937  24.038  0.00  0.00    +0.073 C 
ATOM     16  C   UNL     1      -0.934  -1.022  24.531  0.00  0.00    +0.077 A 
ATOM     17  C   UNL     1      -1.289  -0.356  24.863  0.00  0.00    +0.090 A 
ATOM     18  C   UNL     1      -0.988   0.396  24.702  0.00  0.00    +0.121 C 
ATOM     19  N   UNL     1      -0.331   0.480  24.209  0.00  0.00    -0.257 NA
ATOM     31  N   UNL     1      -1.924  -0.608  25.324  0.00  0.00    -0.226 NA
ATOM     32  C   UNL     1      -1.962  -1.431  25.278  0.00  0.00    +0.198 A 
ATOM     33  N   UNL     1      -1.349  -1.686  24.788  0.00  0.00    -0.227 NA
ENDROOT
BRANCH  14  12
ATOM      9  C   UNL     1       1.936   0.038  22.957  0.00  0.00    +0.203 A 
ATOM     10  N   UNL     1       1.443   0.017  22.296  0.00  0.00    -0.056 NA
ATOM     11  O   UNL     1       0.666  -0.070  22.560  0.00  0.00    -0.336 OA
ATOM     12  C   UNL     1       0.679  -0.102  23.385  0.00  0.00    +0.251 A 
ATOM     13  N   UNL     1       1.464  -0.036  23.629  0.00  0.00    -0.190 NA
BRANCH   9   6
ATOM      3  C   UNL     1       4.399   0.282  22.928  0.00  0.00    +0.139 A 
ATOM      4  C   UNL     1       4.059  -0.433  23.156  0.00  0.00    +0.037 A 
ATOM      5  C   UNL     1       3.237  -0.515  23.166  0.00  0.00    +0.006 A 
ATOM      6  C   UNL     1       2.758   0.119  22.947  0.00  0.00    +0.039 A 
ATOM      7  C   UNL     1       3.098   0.836  22.719  0.00  0.00    +0.006 A 
ATOM      8  C   UNL     1       3.919   0.917  22.710  0.00  0.00    +0.037 A 
BRANCH   3   2
ATOM      1  C   UNL     1       5.664   0.144  23.577  0.00  0.00    +0.252 C 
ATOM      2  O   UNL     1       5.220   0.364  22.918  0.00  0.00    -0.471 OA
ENDBRANCH   3   2
ENDBRANCH   9   6
ENDBRANCH  14  12
BRANCH  19  20
ATOM     20  C   UNL     1      -0.031   1.231  24.048  0.00  0.00    +0.100 C 
BRANCH  20  21
ATOM     21  C   UNL     1      -0.417   1.900  24.337  0.00  0.00    -0.006 A 
ATOM     22  C   UNL     1      -1.029   2.242  23.904  0.00  0.00    -0.002 A 
ATOM     23  C   UNL     1      -1.415   2.912  24.192  0.00  0.00    +0.016 A 
ATOM     24  C   UNL     1      -1.188   3.240  24.915  0.00  0.00    +0.073 A 
ATOM     29  C   UNL     1      -0.575   2.897  25.348  0.00  0.00    +0.016 A 
ATOM     30  C   UNL     1      -0.189   2.228  25.060  0.00  0.00    -0.002 A 
BRANCH  24  25
ATOM     25  N   UNL     1      -1.574   3.909  25.203  0.00  0.00    -0.179 NA
ATOM     26  C   UNL     1      -1.278   4.661  25.033  0.00  0.00    +0.246 C 
ATOM     27  C   UNL     1      -1.664   5.330  25.322  0.00  0.00    +0.097 C 
ATOM     28  O   UNL     1      -0.598   4.743  24.575  0.00  0.00    -0.273 OA
ENDBRANCH  24  25
ENDBRANCH  20  21
ENDBRANCH  19  20
TORSDOF 6
ENDMDL
MODEL 6
REMARK VINA RESULT:      -9.7      1.816      5.282
REMARK  Name = 
REMARK  6 active torsions:
REMARK  status: ('A' for Active; 'I' for Inactive)
REMARK    1  A    between atoms: O_2  and  C_3
REMARK    2  A    between atoms: C_6  and  C_9
REMARK    3  A    between atoms: C_12  and  C_14
REMARK    4  A    between atoms: N_19  and  C_20
REMARK    5  A    between atoms: C_20  and  C_21
REMARK    6  A    between atoms: C_24  and  N_25
REMARK                            x       y       z     vdW  Elec       q    Type
REMARK                         _______ _______ _______ _____ _____    ______ ____
ROOT
ATOM     14  C   UNL     1      -1.241   1.330  24.957  0.00  0.00    +0.144 C 
ATOM     15  C   UNL     1      -0.470   1.486  24.709  0.00  0.00    +0.073 C 
ATOM     16  C   UNL     1      -0.261   2.246  24.464  0.00  0.00    +0.077 A 
ATOM     17  C   UNL     1      -0.824   2.849  24.467  0.00  0.00    +0.090 A 
ATOM     18  C   UNL     1      -1.596   2.693  24.716  0.00  0.00    +0.121 C 
ATOM     19  N   UNL     1      -1.803   1.933  24.960  0.00  0.00    -0.257 NA
ATOM     31  N   UNL     1      -0.461   3.539  24.198  0.00  0.00    -0.226 NA
ATOM     32  C   UNL     1       0.327   3.362  24.028  0.00  0.00    +0.198 A 
ATOM     33  N   UNL     1       0.449   2.563  24.192  0.00  0.00    -0.227 NA
ENDROOT
BRANCH  14  12
ATOM      9  C   UNL     1      -1.979  -0.655  25.227  0.00  0.00    +0.203 A 
ATOM     10  N   UNL     1      -1.560  -0.544  25.928  0.00  0.00    -0.056 NA
ATOM     11  O   UNL     1      -1.232   0.213  25.913  0.00  0.00    -0.336 OA
ATOM     12  C   UNL     1      -1.449   0.570  25.201  0.00  0.00    +0.251 A 
ATOM     13  N   UNL     1      -1.910   0.034  24.778  0.00  0.00    -0.190 NA
BRANCH   9   6
ATOM      3  C   UNL     1      -3.227  -2.693  24.582  0.00  0.00    +0.139 A 
ATOM      4  C   UNL     1      -2.428  -2.620  24.389  0.00  0.00    +0.037 A 
ATOM      5  C   UNL     1      -2.012  -1.940  24.604  0.00  0.00    +0.006 A 
ATOM      6  C   UNL     1      -2.395  -1.334  25.012  0.00  0.00    +0.039 A 
ATOM      7  C   UNL     1      -3.194  -1.407  25.206  0.00  0.00    +0.006 A 
ATOM      8  C   UNL     1      -3.609  -2.087  24.990  0.00  0.00    +0.037 A 
BRANCH   3   2
ATOM      1  C   UNL     1      -4.264  -3.322  23.827  0.00  0.00    +0.252 C 
ATOM      2  O   UNL     1      -3.643  -3.372  24.367  0.00  0.00    -0.471 OA
ENDBRANCH   3   2
ENDBRANCH   9   6
ENDBRANCH  14  12
BRANCH  19  20
ATOM     20  C   UNL     1      -2.574   1.777  25.208  0.00  0.00    +0.100 C 
BRANCH  20  21
ATOM     21  C   UNL     1      -3.143   2.374  25.190  0.00  0.00    -0.006 A 
ATOM     22  C   UNL     1      -3.188   2.919  25.807  0.00  0.00    -0.002 A 
ATOM     23  C   UNL     1      -3.756   3.517  25.789  0.00  0.00    +0.016 A 
ATOM     24  C   UNL     1      -4.280   3.569  25.154  0.00  0.00    +0.073 A 
ATOM     29  C   UNL     1      -4.235   3.023  24.536  0.00  0.00    +0.016 A 
ATOM     30  C   UNL     1      -3.667   2.426  24.554  0.00  0.00    -0.002 A 
BRANCH  24  25
ATOM     25  N   UNL     1      -4.849   4.167  25.136  0.00  0.00    -0.179 NA
ATOM     26  C   UNL     1      -5.568   4.063  25.528  0.00  0.00    +0.246 C 
ATOM     27  C   UNL     1      -6.136   4.661  25.510  0.00  0.00    +0.097 C 
ATOM     28  O   UNL     1      -5.718   3.364  25.937  0.00  0.00    -0.273 OA
ENDBRANCH  24  25
ENDBRANCH  20  21
ENDBRANCH  19  20
TORSDOF 6
ENDMDL
MODEL 7
REMARK VINA RESULT:      -9.5      2.276      4.233
REMARK  Name = 
REMARK  6 active torsions:
REMARK  status: ('A' for Active; 'I' for Inactive)
REMARK    1  A    between atoms: O_2  and  C_3
REMARK    2  A    between atoms: C_6  and  C_9
REMARK    3  A    between atoms: C_12  and  C_14
REMARK    4  A    between atoms: N_19  and  C_20
REMARK    5  A    between atoms: C_20  and  C_21
REMARK    6  A    between atoms: C_24  and  N_25
REMARK                            x       y       z     vdW  Elec       q    Type
REMARK                         _______ _______ _______ _____ _____    ______ ____
ROOT
ATOM     14  C   UNL     1      -2.303  -0.780  24.348  0.00  0.00    +0.144 C 
ATOM     15  C   UNL     1      -2.461  -1.588  24.297  0.00  0.00    +0.073 C 
ATOM     16  C   UNL     1      -3.238  -1.853  24.212  0.00  0.00    +0.077 A 
ATOM     17  C   UNL     1      -3.857  -1.309  24.178  0.00  0.00    +0.090 A 
ATOM     18  C   UNL     1      -3.699  -0.500  24.229  0.00  0.00    +0.121 C 
ATOM     19  N   UNL     1      -2.922  -0.236  24.314  0.00  0.00    -0.257 NA
ATOM     31  N   UNL     1      -4.561  -1.729  24.093  0.00  0.00    -0.226 NA
ATOM     32  C   UNL     1      -4.378  -2.533  24.075  0.00  0.00    +0.198 A 
ATOM     33  N   UNL     1      -3.560  -2.609  24.148  0.00  0.00    -0.227 NA
ENDROOT
BRANCH  14  12
ATOM      9  C   UNL     1      -0.279  -0.129  24.155  0.00  0.00    +0.203 A 
ATOM     10  N   UNL     1      -0.381  -0.091  24.972  0.00  0.00    -0.056 NA
ATOM     11  O   UNL     1      -1.152  -0.331  25.145  0.00  0.00    -0.336 OA
ATOM     12  C   UNL     1      -1.526  -0.517  24.433  0.00  0.00    +0.251 A 
ATOM     13  N   UNL     1      -0.987  -0.392  23.822  0.00  0.00    -0.190 NA
BRANCH   9   6
ATOM      3  C   UNL     1       1.785   0.445  22.916  0.00  0.00    +0.139 A 
ATOM      4  C   UNL     1       1.479   0.971  23.473  0.00  0.00    +0.037 A 
ATOM      5  C   UNL     1       0.791   0.780  23.886  0.00  0.00    +0.006 A 
ATOM      6  C   UNL     1       0.409   0.063  23.742  0.00  0.00    +0.039 A 
ATOM      7  C   UNL     1       0.715  -0.464  23.185  0.00  0.00    +0.006 A 
ATOM      8  C   UNL     1       1.404  -0.272  22.772  0.00  0.00    +0.037 A 
BRANCH   3   2
ATOM      1  C   UNL     1       3.211   0.504  22.847  0.00  0.00    +0.252 C 
ATOM      2  O   UNL     1       2.474   0.635  22.503  0.00  0.00    -0.471 OA
ENDBRANCH   3   2
ENDBRANCH   9   6
ENDBRANCH  14  12
BRANCH  19  20
ATOM     20  C   UNL     1      -2.765   0.572  24.365  0.00  0.00    +0.100 C 
BRANCH  20  21
ATOM     21  C   UNL     1      -3.379   1.104  24.508  0.00  0.00    -0.006 A 
ATOM     22  C   UNL     1      -3.638   1.606  23.907  0.00  0.00    -0.002 A 
ATOM     23  C   UNL     1      -4.252   2.138  24.050  0.00  0.00    +0.016 A 
ATOM     24  C   UNL     1      -4.607   2.168  24.794  0.00  0.00    +0.073 A 
ATOM     29  C   UNL     1      -4.347   1.665  25.395  0.00  0.00    +0.016 A 
ATOM     30  C   UNL     1      -3.733   1.133  25.252  0.00  0.00    -0.002 A 
BRANCH  24  25
ATOM     25  N   UNL     1      -5.221   2.700  24.937  0.00  0.00    -0.179 NA
ATOM     26  C   UNL     1      -5.072   3.400  25.348  0.00  0.00    +0.246 C 
ATOM     27  C   UNL     1      -5.687   3.932  25.491  0.00  0.00    +0.097 C 
ATOM     28  O   UNL     1      -4.311   3.567  25.617  0.00  0.00    -0.273 OA
ENDBRANCH  24  25
ENDBRANCH  20  21
ENDBRANCH  19  20
TORSDOF 6
ENDMDL
MODEL 8
REMARK VINA RESULT:      -9.3      1.965      2.576
REMARK  Name = 
REMARK  6 active torsions:
REMARK  status: ('A' for Active; 'I' for Inactive)
REMARK    1  A    between atoms: O_2  and  C_3
REMARK    2  A    between atoms: C_6  and  C_9
REMARK    3  A    between atoms: C_12  and  C_14
REMARK    4  A    between atoms: N_19  and  C_20
REMARK    5  A    between atoms: C_20  and  C_21
REMARK    6  A    between atoms: C_24  and  N_25
REMARK                            x       y       z     vdW  Elec       q    Type
REMARK                         _______ _______ _______ _____ _____    ______ ____
ROOT
ATOM     14  C   UNL     1      -2.141   2.034  24.800  0.00  0.00    +0.144 C 
ATOM     15  C   UNL     1      -2.341   2.823  24.667  0.00  0.00    +0.073 C 
ATOM     16  C   UNL     1      -3.133   3.054  24.670  0.00  0.00    +0.077 A 
ATOM     17  C   UNL     1      -3.725   2.495  24.806  0.00  0.00    +0.090 A 
ATOM     18  C   UNL     1      -3.525   1.705  24.939  0.00  0.00    +0.121 C 
ATOM     19  N   UNL     1      -2.732   1.475  24.936  0.00  0.00    -0.257 NA
ATOM     31  N   UNL     1      -4.453   2.882  24.777  0.00  0.00    -0.226 NA
ATOM     32  C   UNL     1      -4.311   3.680  24.623  0.00  0.00    +0.198 A 
ATOM     33  N   UNL     1      -3.496   3.785  24.556  0.00  0.00    -0.227 NA
ENDROOT
BRANCH  14  12
ATOM      9  C   UNL     1      -0.162   1.344  24.394  0.00  0.00    +0.203 A 
ATOM     10  N   UNL     1      -0.098   1.552  25.189  0.00  0.00    -0.056 NA
ATOM     11  O   UNL     1      -0.832   1.836  25.439  0.00  0.00    -0.336 OA
ATOM     12  C   UNL     1      -1.349   1.803  24.796  0.00  0.00    +0.251 A 
ATOM     13  N   UNL     1      -0.935   1.500  24.151  0.00  0.00    -0.190 NA
BRANCH   9   6
ATOM      3  C   UNL     1       1.646   0.417  22.980  0.00  0.00    +0.139 A 
ATOM      4  C   UNL     1       1.737   1.157  23.333  0.00  0.00    +0.037 A 
ATOM      5  C   UNL     1       1.134   1.467  23.804  0.00  0.00    +0.006 A 
ATOM      6  C   UNL     1       0.441   1.036  23.922  0.00  0.00    +0.039 A 
ATOM      7  C   UNL     1       0.350   0.295  23.570  0.00  0.00    +0.006 A 
ATOM      8  C   UNL     1       0.953  -0.014  23.098  0.00  0.00    +0.037 A 
BRANCH   3   2
ATOM      1  C   UNL     1       3.030   0.336  22.636  0.00  0.00    +0.252 C 
ATOM      2  O   UNL     1       2.248   0.108  22.509  0.00  0.00    -0.471 OA
ENDBRANCH   3   2
ENDBRANCH   9   6
ENDBRANCH  14  12
BRANCH  19  20
ATOM     20  C   UNL     1      -2.533   0.686  25.069  0.00  0.00    +0.100 C 
BRANCH  20  21
ATOM     21  C   UNL     1      -3.033   0.084  24.809  0.00  0.00    -0.006 A 
ATOM     22  C   UNL     1      -3.141  -0.042  24.002  0.00  0.00    -0.002 A 
ATOM     23  C   UNL     1      -3.642  -0.644  23.742  0.00  0.00    +0.016 A 
ATOM     24  C   UNL     1      -4.034  -1.120  24.289  0.00  0.00    +0.073 A 
ATOM     29  C   UNL     1      -3.925  -0.994  25.098  0.00  0.00    +0.016 A 
ATOM     30  C   UNL     1      -3.425  -0.392  25.358  0.00  0.00    -0.002 A 
BRANCH  24  25
ATOM     25  N   UNL     1      -4.534  -1.723  24.029  0.00  0.00    -0.179 NA
ATOM     26  C   UNL     1      -4.234  -2.481  23.901  0.00  0.00    +0.246 C 
ATOM     27  C   UNL     1      -4.734  -3.083  23.641  0.00  0.00    +0.097 C 
ATOM     28  O   UNL     1      -3.435  -2.637  24.032  0.00  0.00    -0.273 OA
ENDBRANCH  24  25
ENDBRANCH  20  21
ENDBRANCH  19  20
TORSDOF 6
ENDMDL
MODEL 9
REMARK VINA RESULT:      -9.3      2.068      4.616
REMARK  Name = 
REMARK  6 active torsions:
REMARK  status: ('A' for Active; 'I' for Inactive)
REMARK    1  A    between atoms: O_2  and  C_3
REMARK    2  A    between atoms: C_6  and  C_9
REMARK    3  A    between atoms: C_12  and  C_14
REMARK    4  A    between atoms: N_19  and  C_20
REMARK    5  A    between atoms: C_20  and  C_21
REMARK    6  A    between atoms: C_24  and  N_25
REMARK                            x       y       z     vdW  Elec       q    Type
REMARK                         _______ _______ _______ _____ _____    ______ ____
ROOT
ATOM     14  C   UNL     1      -3.234  -0.160  24.375  0.00  0.00    +0.144 C 
ATOM     15  C   UNL     1      -3.641  -0.876  24.367  0.00  0.00    +0.073 C 
ATOM     16  C   UNL     1      -3.234  -1.585  24.484  0.00  0.00    +0.077 A 
ATOM     17  C   UNL     1      -2.419  -1.575  24.610  0.00  0.00    +0.090 A 
ATOM     18  C   UNL     1      -2.011  -0.858  24.619  0.00  0.00    +0.121 C 
ATOM     19  N   UNL     1      -2.419  -0.150  24.501  0.00  0.00    -0.257 NA
ATOM     31  N   UNL     1      -2.167  -2.354  24.708  0.00  0.00    -0.226 NA
ATOM     32  C   UNL     1      -2.827  -2.845  24.643  0.00  0.00    +0.198 A 
ATOM     33  N   UNL     1      -3.486  -2.369  24.504  0.00  0.00    -0.227 NA
ENDROOT
BRANCH  14  12
ATOM      9  C   UNL     1      -4.324   1.672  24.485  0.00  0.00    +0.203 A 
ATOM     10  N   UNL     1      -4.211   1.603  23.671  0.00  0.00    -0.056 NA
ATOM     11  O   UNL     1      -3.789   0.907  23.530  0.00  0.00    -0.336 OA
ATOM     12  C   UNL     1      -3.641   0.548  24.258  0.00  0.00    +0.251 A 
ATOM     13  N   UNL     1      -3.972   1.020  24.847  0.00  0.00    -0.190 NA
BRANCH   9   6
ATOM      3  C   UNL     1      -5.510   3.513  25.638  0.00  0.00    +0.139 A 
ATOM      4  C   UNL     1      -5.862   2.769  25.579  0.00  0.00    +0.037 A 
ATOM      5  C   UNL     1      -5.467   2.155  25.194  0.00  0.00    +0.006 A 
ATOM      6  C   UNL     1      -4.720   2.286  24.869  0.00  0.00    +0.039 A 
ATOM      7  C   UNL     1      -4.368   3.030  24.928  0.00  0.00    +0.006 A 
ATOM      8  C   UNL     1      -4.763   3.643  25.313  0.00  0.00    +0.037 A 
BRANCH   3   2
ATOM      1  C   UNL     1      -6.038   4.841  25.631  0.00  0.00    +0.252 C 
ATOM      2  O   UNL     1      -5.905   4.127  26.022  0.00  0.00    -0.471 OA
ENDBRANCH   3   2
ENDBRANCH   9   6
ENDBRANCH  14  12
BRANCH  19  20
ATOM     20  C   UNL     1      -2.010   0.566  24.510  0.00  0.00    +0.100 C 
BRANCH  20  21
ATOM     21  C   UNL     1      -1.227   0.598  24.253  0.00  0.00    -0.006 A 
ATOM     22  C   UNL     1      -1.060   0.743  23.458  0.00  0.00    -0.002 A 
ATOM     23  C   UNL     1      -0.277   0.775  23.201  0.00  0.00    +0.016 A 
ATOM     24  C   UNL     1       0.339   0.663  23.738  0.00  0.00    +0.073 A 
ATOM     29  C   UNL     1       0.172   0.518  24.533  0.00  0.00    +0.016 A 
ATOM     30  C   UNL     1      -0.611   0.486  24.791  0.00  0.00    -0.002 A 
BRANCH  24  25
ATOM     25  N   UNL     1       1.122   0.695  23.480  0.00  0.00    -0.179 NA
ATOM     26  C   UNL     1       1.425   0.093  23.004  0.00  0.00    +0.246 C 
ATOM     27  C   UNL     1       2.208   0.125  22.747  0.00  0.00    +0.097 C 
ATOM     28  O   UNL     1       0.945  -0.541  22.786  0.00  0.00    -0.273 OA
ENDBRANCH  24  25
ENDBRANCH  20  21
ENDBRANCH  19  20
TORSDOF 6
ENDMDL
