REMARK  Name = 
REMARK  3 active torsions:
REMARK  status: ('A' for Active; 'I' for Inactive)
REMARK    1  A    between atoms: C_5  and  C_6
REMARK    2  A    between atoms: C_6  and  N_7
REMARK    3  A    between atoms: C_17  and  C_19
REMARK                            x       y       z     vdW  Elec       q    Type
REMARK                         _______ _______ _______ _____ _____    ______ ____
ROOT
ATOM      7  N   UNL     1       0.715  -0.412   0.000  0.00  0.00    -0.271 N 
ATOM      8  C   UNL     1       0.000   0.000   0.000  0.00  0.00    +0.124 C 
ATOM      9  C   UNL     1      -0.785  -0.255   0.000  0.00  0.00    +0.116 C 
ATOM     10  N   UNL     1      -1.270   0.412   0.000  0.00  0.00    -0.269 N 
ATOM     11  C   UNL     1      -0.785   1.080   0.000  0.00  0.00    +0.125 C 
ATOM     12  C   UNL     1       0.000   0.825   0.000  0.00  0.00    +0.155 C 
ATOM     13  O   UNL     1       0.715   1.238   0.000  0.00  0.00    -0.343 OA
ATOM     14  C   UNL     1       1.429   0.825   0.000  0.00  0.00    +0.227 C 
ATOM     15  C   UNL     1       1.429   0.000   0.000  0.00  0.00    +0.256 C 
ATOM     16  O   UNL     1       2.143  -0.412   0.000  0.00  0.00    -0.272 OA
ATOM     17  C   UNL     1      -2.095   0.412   0.000  0.00  0.00    +0.287 C 
ATOM     18  O   UNL     1      -2.507  -0.302   0.000  0.00  0.00    -0.266 OA
ENDROOT
BRANCH  17  19
ATOM     19  C   UNL     1      -2.507   1.127   0.000  0.00  0.00    +0.230 A 
ATOM     20  C   UNL     1      -3.328   1.213   0.000  0.00  0.00    +0.069 A 
ATOM     21  C   UNL     1      -3.499   2.020   0.000  0.00  0.00    +0.144 A 
ATOM     22  N   UNL     1      -2.785   2.433   0.000  0.00  0.00    -0.075 NA
ATOM     23  O   UNL     1      -2.171   1.881   0.000  0.00  0.00    -0.349 OA
ENDBRANCH  17  19
BRANCH   7   6
ATOM      6  C   UNL     1       0.715  -1.238   0.000  0.00  0.00    +0.120 C 
BRANCH   6   5
ATOM      1  F   UNL     1       3.572  -2.888   0.000  0.00  0.00    -0.204 F 
ATOM      2  C   UNL     1       2.858  -2.475   0.000  0.00  0.00    +0.140 A 
ATOM      3  C   UNL     1       2.143  -2.888   0.000  0.00  0.00    +0.029 A 
ATOM      4  C   UNL     1       1.429  -2.475   0.000  0.00  0.00    -0.000 A 
ATOM      5  C   UNL     1       1.429  -1.650   0.000  0.00  0.00    -0.002 A 
ATOM     24  C   UNL     1       2.143  -1.238   0.000  0.00  0.00    -0.000 A 
ATOM     25  C   UNL     1       2.858  -1.650   0.000  0.00  0.00    +0.029 A 
ENDBRANCH   6   5
ENDBRANCH   7   6
TORSDOF 3
