MODEL 1
REMARK VINA RESULT:      -9.0      0.000      0.000
REMARK  Name = 
REMARK  9 active torsions:
REMARK  status: ('A' for Active; 'I' for Inactive)
REMARK    1  A    between atoms: O_2  and  C_3
REMARK    2  A    between atoms: C_6  and  C_9
REMARK    3  A    between atoms: C_12  and  C_13
REMARK    4  A    between atoms: C_13  and  C_14
REMARK    5  A    between atoms: C_16  and  C_17
REMARK    6  A    between atoms: C_20  and  C_21
REMARK    7  A    between atoms: C_21  and  N_22
REMARK    8  A    between atoms: N_22  and  C_23
REMARK    9  A    between atoms: C_23  and  C_24
REMARK                            x       y       z     vdW  Elec       q    Type
REMARK                         _______ _______ _______ _____ _____    ______ ____
ROOT
ATOM     14  C   UNL     1      -4.218   2.803  24.508  0.00  0.00    +0.027 C 
ATOM     15  C   UNL     1      -4.178   3.042  25.297  0.00  0.00    +0.005 C 
ATOM     16  C   UNL     1      -3.609   3.589  25.534  0.00  0.00    +0.006 C 
ATOM     20  C   UNL     1      -3.079   3.898  24.983  0.00  0.00    +0.039 C 
ATOM     26  C   UNL     1      -3.118   3.660  24.194  0.00  0.00    -0.033 C 
ATOM     27  C   UNL     1      -3.688   3.112  23.956  0.00  0.00    -0.048 C 
ATOM     28  C   UNL     1      -3.727   2.874  23.168  0.00  0.00    +0.026 C 
ENDROOT
BRANCH  16  17
ATOM     17  C   UNL     1      -3.569   3.827  26.322  0.00  0.00    +0.000 C 
ATOM     18  C   UNL     1      -4.101   4.387  26.612  0.00  0.00    +0.000 C 
ATOM     19  C   UNL     1      -2.997   3.506  26.822  0.00  0.00    +0.000 C 
ENDBRANCH  16  17
BRANCH  14  13
ATOM     13  C   UNL     1      -4.788   2.257  24.271  0.00  0.00    +0.091 C 
BRANCH  13  12
ATOM      9  C   UNL     1      -4.472   0.222  24.839  0.00  0.00    +0.250 A 
ATOM     10  N   UNL     1      -5.104   0.428  25.327  0.00  0.00    -0.107 NA
ATOM     11  N   UNL     1      -5.299   1.216  25.174  0.00  0.00    -0.111 NA
ATOM     12  C   UNL     1      -4.788   1.496  24.591  0.00  0.00    +0.227 A 
ATOM     29  O   UNL     1      -4.277   0.882  24.383  0.00  0.00    -0.420 OA
BRANCH   9   6
ATOM      3  C   UNL     1      -3.358  -1.986  24.753  0.00  0.00    +0.139 A 
ATOM      4  C   UNL     1      -3.229  -1.483  25.396  0.00  0.00    +0.037 A 
ATOM      5  C   UNL     1      -3.601  -0.747  25.424  0.00  0.00    +0.008 A 
ATOM      6  C   UNL     1      -4.101  -0.513  24.810  0.00  0.00    +0.055 A 
ATOM      7  C   UNL     1      -4.229  -1.016  24.169  0.00  0.00    +0.008 A 
ATOM      8  C   UNL     1      -3.857  -1.752  24.141  0.00  0.00    +0.037 A 
BRANCH   3   2
ATOM      1  C   UNL     1      -2.183  -2.772  24.543  0.00  0.00    +0.252 C 
ATOM      2  O   UNL     1      -2.986  -2.722  24.725  0.00  0.00    -0.471 OA
ENDBRANCH   3   2
ENDBRANCH   9   6
ENDBRANCH  13  12
ENDBRANCH  14  13
BRANCH  20  21
ATOM     21  C   UNL     1      -2.508   4.445  25.219  0.00  0.00    +0.094 C 
BRANCH  21  22
ATOM     22  N   UNL     1      -1.858   4.598  24.735  0.00  0.00    -0.204 NA
BRANCH  22  23
ATOM     23  C   UNL     1      -1.273   5.125  24.983  0.00  0.00    +0.165 C 
BRANCH  23  24
ATOM     24  C   UNL     1      -0.529   5.113  24.627  0.00  0.00    -0.059 C 
ATOM     25  C   UNL     1       0.214   5.101  24.271  0.00  0.00    -0.013 C 
ENDBRANCH  23  24
ENDBRANCH  22  23
ENDBRANCH  21  22
ENDBRANCH  20  21
TORSDOF 9
ENDMDL
MODEL 2
REMARK VINA RESULT:      -8.9      1.711      5.339
REMARK  Name = 
REMARK  9 active torsions:
REMARK  status: ('A' for Active; 'I' for Inactive)
REMARK    1  A    between atoms: O_2  and  C_3
REMARK    2  A    between atoms: C_6  and  C_9
REMARK    3  A    between atoms: C_12  and  C_13
REMARK    4  A    between atoms: C_13  and  C_14
REMARK    5  A    between atoms: C_16  and  C_17
REMARK    6  A    between atoms: C_20  and  C_21
REMARK    7  A    between atoms: C_21  and  N_22
REMARK    8  A    between atoms: N_22  and  C_23
REMARK    9  A    between atoms: C_23  and  C_24
REMARK                            x       y       z     vdW  Elec       q    Type
REMARK                         _______ _______ _______ _____ _____    ______ ____
ROOT
ATOM     14  C   UNL     1      -4.589   1.755  24.777  0.00  0.00    +0.027 C 
ATOM     15  C   UNL     1      -3.911   1.667  24.315  0.00  0.00    +0.005 C 
ATOM     16  C   UNL     1      -3.675   0.918  24.065  0.00  0.00    +0.006 C 
ATOM     20  C   UNL     1      -4.117   0.254  24.277  0.00  0.00    +0.039 C 
ATOM     26  C   UNL     1      -4.795   0.340  24.739  0.00  0.00    -0.033 C 
ATOM     27  C   UNL     1      -5.031   1.091  24.989  0.00  0.00    -0.048 C 
ATOM     28  C   UNL     1      -5.709   1.177  25.451  0.00  0.00    +0.026 C 
ENDROOT
BRANCH  16  17
ATOM     17  C   UNL     1      -2.998   0.831  23.603  0.00  0.00    +0.000 C 
ATOM     18  C   UNL     1      -3.032   0.963  22.790  0.00  0.00    +0.000 C 
ATOM     19  C   UNL     1      -2.284   0.612  23.955  0.00  0.00    +0.000 C 
ENDBRANCH  16  17
BRANCH  14  13
ATOM     13  C   UNL     1      -4.825   2.504  25.026  0.00  0.00    +0.091 C 
BRANCH  13  12
ATOM      9  C   UNL     1      -3.206   3.804  25.524  0.00  0.00    +0.250 A 
ATOM     10  N   UNL     1      -3.647   3.824  26.221  0.00  0.00    -0.107 NA
ATOM     11  N   UNL     1      -4.307   3.339  26.119  0.00  0.00    -0.111 NA
ATOM     12  C   UNL     1      -4.274   3.020  25.360  0.00  0.00    +0.227 A 
ATOM     29  O   UNL     1      -3.594   3.307  24.991  0.00  0.00    -0.420 OA
BRANCH   9   6
ATOM      3  C   UNL     1      -1.093   5.021  25.103  0.00  0.00    +0.139 A 
ATOM      4  C   UNL     1      -1.073   4.226  25.324  0.00  0.00    +0.037 A 
ATOM      5  C   UNL     1      -1.779   3.820  25.464  0.00  0.00    +0.008 A 
ATOM      6  C   UNL     1      -2.502   4.210  25.384  0.00  0.00    +0.055 A 
ATOM      7  C   UNL     1      -2.520   5.004  25.163  0.00  0.00    +0.008 A 
ATOM      8  C   UNL     1      -1.815   5.410  25.022  0.00  0.00    +0.037 A 
BRANCH   3   2
ATOM      1  C   UNL     1       0.037   5.288  24.270  0.00  0.00    +0.252 C 
ATOM      2  O   UNL     1      -0.387   5.427  24.963  0.00  0.00    -0.471 OA
ENDBRANCH   3   2
ENDBRANCH   9   6
ENDBRANCH  13  12
ENDBRANCH  14  13
BRANCH  20  21
ATOM     21  C   UNL     1      -3.882  -0.496  24.028  0.00  0.00    +0.094 C 
BRANCH  21  22
ATOM     22  N   UNL     1      -4.237  -1.168  24.351  0.00  0.00    -0.204 NA
BRANCH  22  23
ATOM     23  C   UNL     1      -4.178  -1.893  23.961  0.00  0.00    +0.165 C 
BRANCH  23  24
ATOM     24  C   UNL     1      -3.820  -2.534  24.336  0.00  0.00    -0.059 C 
ATOM     25  C   UNL     1      -3.461  -3.176  24.711  0.00  0.00    -0.013 C 
ENDBRANCH  23  24
ENDBRANCH  22  23
ENDBRANCH  21  22
ENDBRANCH  20  21
TORSDOF 9
ENDMDL
MODEL 3
REMARK VINA RESULT:      -8.8      2.982      4.558
REMARK  Name = 
REMARK  9 active torsions:
REMARK  status: ('A' for Active; 'I' for Inactive)
REMARK    1  A    between atoms: O_2  and  C_3
REMARK    2  A    between atoms: C_6  and  C_9
REMARK    3  A    between atoms: C_12  and  C_13
REMARK    4  A    between atoms: C_13  and  C_14
REMARK    5  A    between atoms: C_16  and  C_17
REMARK    6  A    between atoms: C_20  and  C_21
REMARK    7  A    between atoms: C_21  and  N_22
REMARK    8  A    between atoms: N_22  and  C_23
REMARK    9  A    between atoms: C_23  and  C_24
REMARK                            x       y       z     vdW  Elec       q    Type
REMARK                         _______ _______ _______ _____ _____    ______ ____
ROOT
ATOM     14  C   UNL     1      -1.499  -0.343  24.763  0.00  0.00    +0.027 C 
ATOM     15  C   UNL     1      -1.323   0.462  24.717  0.00  0.00    +0.005 C 
ATOM     16  C   UNL     1      -0.649   0.714  24.316  0.00  0.00    +0.006 C 
ATOM     20  C   UNL     1      -0.149   0.162  23.960  0.00  0.00    +0.039 C 
ATOM     26  C   UNL     1      -0.324  -0.643  24.006  0.00  0.00    -0.033 C 
ATOM     27  C   UNL     1      -1.000  -0.895  24.408  0.00  0.00    -0.048 C 
ATOM     28  C   UNL     1      -1.175  -1.700  24.453  0.00  0.00    +0.026 C 
ENDROOT
BRANCH  16  17
ATOM     17  C   UNL     1      -0.473   1.518  24.270  0.00  0.00    +0.000 C 
ATOM     18  C   UNL     1      -0.749   1.966  23.634  0.00  0.00    +0.000 C 
ATOM     19  C   UNL     1      -0.022   1.876  24.860  0.00  0.00    +0.000 C 
ENDBRANCH  16  17
BRANCH  14  13
ATOM     13  C   UNL     1      -2.174  -0.596  25.165  0.00  0.00    +0.091 C 
BRANCH  13  12
ATOM      9  C   UNL     1      -3.974   0.516  24.883  0.00  0.00    +0.250 A 
ATOM     10  N   UNL     1      -4.125  -0.151  24.422  0.00  0.00    -0.107 NA
ATOM     11  N   UNL     1      -3.469  -0.649  24.472  0.00  0.00    -0.111 NA
ATOM     12  C   UNL     1      -2.913  -0.290  24.963  0.00  0.00    +0.227 A 
ATOM     29  O   UNL     1      -3.225   0.431  25.217  0.00  0.00    -0.420 OA
BRANCH   9   6
ATOM      3  C   UNL     1      -5.501   2.437  25.206  0.00  0.00    +0.139 A 
ATOM      4  C   UNL     1      -4.850   2.508  24.702  0.00  0.00    +0.037 A 
ATOM      5  C   UNL     1      -4.342   1.866  24.595  0.00  0.00    +0.008 A 
ATOM      6  C   UNL     1      -4.483   1.156  24.991  0.00  0.00    +0.055 A 
ATOM      7  C   UNL     1      -5.133   1.087  25.494  0.00  0.00    +0.008 A 
ATOM      8  C   UNL     1      -5.642   1.728  25.601  0.00  0.00    +0.037 A 
BRANCH   3   2
ATOM      1  C   UNL     1      -5.713   3.799  25.585  0.00  0.00    +0.252 C 
ATOM      2  O   UNL     1      -6.009   3.079  25.313  0.00  0.00    -0.471 OA
ENDBRANCH   3   2
ENDBRANCH   9   6
ENDBRANCH  13  12
ENDBRANCH  14  13
BRANCH  20  21
ATOM     21  C   UNL     1       0.525   0.414  23.558  0.00  0.00    +0.094 C 
BRANCH  21  22
ATOM     22  N   UNL     1       1.065  -0.140  23.270  0.00  0.00    -0.204 NA
BRANCH  22  23
ATOM     23  C   UNL     1       1.506   0.027  22.593  0.00  0.00    +0.165 C 
BRANCH  23  24
ATOM     24  C   UNL     1       2.330   0.039  22.631  0.00  0.00    -0.059 C 
ATOM     25  C   UNL     1       3.154   0.051  22.669  0.00  0.00    -0.013 C 
ENDBRANCH  23  24
ENDBRANCH  22  23
ENDBRANCH  21  22
ENDBRANCH  20  21
TORSDOF 9
ENDMDL
MODEL 4
REMARK VINA RESULT:      -8.4      2.850      4.531
REMARK  Name = 
REMARK  9 active torsions:
REMARK  status: ('A' for Active; 'I' for Inactive)
REMARK    1  A    between atoms: O_2  and  C_3
REMARK    2  A    between atoms: C_6  and  C_9
REMARK    3  A    between atoms: C_12  and  C_13
REMARK    4  A    between atoms: C_13  and  C_14
REMARK    5  A    between atoms: C_16  and  C_17
REMARK    6  A    between atoms: C_20  and  C_21
REMARK    7  A    between atoms: C_21  and  N_22
REMARK    8  A    between atoms: N_22  and  C_23
REMARK    9  A    between atoms: C_23  and  C_24
REMARK                            x       y       z     vdW  Elec       q    Type
REMARK                         _______ _______ _______ _____ _____    ______ ____
ROOT
ATOM     14  C   UNL     1      -0.854   2.392  25.144  0.00  0.00    +0.027 C 
ATOM     15  C   UNL     1      -1.167   1.638  25.264  0.00  0.00    +0.005 C 
ATOM     16  C   UNL     1      -0.846   0.990  24.869  0.00  0.00    +0.006 C 
ATOM     20  C   UNL     1      -0.211   1.095  24.353  0.00  0.00    +0.039 C 
ATOM     26  C   UNL     1       0.103   1.849  24.232  0.00  0.00    -0.033 C 
ATOM     27  C   UNL     1      -0.219   2.498  24.628  0.00  0.00    -0.048 C 
ATOM     28  C   UNL     1       0.094   3.251  24.507  0.00  0.00    +0.026 C 
ENDROOT
BRANCH  16  17
ATOM     17  C   UNL     1      -1.158   0.237  24.989  0.00  0.00    +0.000 C 
ATOM     18  C   UNL     1      -1.701  -0.076  24.452  0.00  0.00    +0.000 C 
ATOM     19  C   UNL     1      -0.929  -0.205  25.647  0.00  0.00    +0.000 C 
ENDBRANCH  16  17
BRANCH  14  13
ATOM     13  C   UNL     1      -1.175   3.040  25.540  0.00  0.00    +0.091 C 
BRANCH  13  12
ATOM      9  C   UNL     1      -3.271   3.293  25.218  0.00  0.00    +0.250 A 
ATOM     10  N   UNL     1      -2.986   4.037  25.005  0.00  0.00    -0.107 NA
ATOM     11  N   UNL     1      -2.166   4.033  25.100  0.00  0.00    -0.111 NA
ATOM     12  C   UNL     1      -1.945   3.286  25.371  0.00  0.00    +0.227 A 
ATOM     29  O   UNL     1      -2.627   2.828  25.445  0.00  0.00    -0.420 OA
BRANCH   9   6
ATOM      3  C   UNL     1      -5.640   2.577  25.186  0.00  0.00    +0.139 A 
ATOM      4  C   UNL     1      -5.374   3.096  25.770  0.00  0.00    +0.037 A 
ATOM      5  C   UNL     1      -4.584   3.335  25.781  0.00  0.00    +0.008 A 
ATOM      6  C   UNL     1      -4.061   3.054  25.207  0.00  0.00    +0.055 A 
ATOM      7  C   UNL     1      -4.327   2.536  24.624  0.00  0.00    +0.008 A 
ATOM      8  C   UNL     1      -5.117   2.298  24.614  0.00  0.00    +0.037 A 
BRANCH   3   2
ATOM      1  C   UNL     1      -6.623   1.557  24.999  0.00  0.00    +0.252 C 
ATOM      2  O   UNL     1      -6.430   2.339  25.175  0.00  0.00    -0.471 OA
ENDBRANCH   3   2
ENDBRANCH   9   6
ENDBRANCH  13  12
ENDBRANCH  14  13
BRANCH  20  21
ATOM     21  C   UNL     1       0.111   0.448  23.956  0.00  0.00    +0.094 C 
BRANCH  21  22
ATOM     22  N   UNL     1       0.786   0.543  23.490  0.00  0.00    -0.204 NA
BRANCH  22  23
ATOM     23  C   UNL     1       1.050  -0.078  23.014  0.00  0.00    +0.165 C 
BRANCH  23  24
ATOM     24  C   UNL     1       1.792  -0.036  22.657  0.00  0.00    -0.059 C 
ATOM     25  C   UNL     1       2.535   0.007  22.300  0.00  0.00    -0.013 C 
ENDBRANCH  23  24
ENDBRANCH  22  23
ENDBRANCH  21  22
ENDBRANCH  20  21
TORSDOF 9
ENDMDL
MODEL 5
REMARK VINA RESULT:      -8.4      2.159      3.681
REMARK  Name = 
REMARK  9 active torsions:
REMARK  status: ('A' for Active; 'I' for Inactive)
REMARK    1  A    between atoms: O_2  and  C_3
REMARK    2  A    between atoms: C_6  and  C_9
REMARK    3  A    between atoms: C_12  and  C_13
REMARK    4  A    between atoms: C_13  and  C_14
REMARK    5  A    between atoms: C_16  and  C_17
REMARK    6  A    between atoms: C_20  and  C_21
REMARK    7  A    between atoms: C_21  and  N_22
REMARK    8  A    between atoms: N_22  and  C_23
REMARK    9  A    between atoms: C_23  and  C_24
REMARK                            x       y       z     vdW  Elec       q    Type
REMARK                         _______ _______ _______ _____ _____    ______ ____
ROOT
ATOM     14  C   UNL     1      -1.848   3.220  24.922  0.00  0.00    +0.027 C 
ATOM     15  C   UNL     1      -2.278   3.007  24.250  0.00  0.00    +0.005 C 
ATOM     16  C   UNL     1      -3.098   3.083  24.244  0.00  0.00    +0.006 C 
ATOM     20  C   UNL     1      -3.491   3.374  24.908  0.00  0.00    +0.039 C 
ATOM     26  C   UNL     1      -3.063   3.588  25.580  0.00  0.00    -0.033 C 
ATOM     27  C   UNL     1      -2.241   3.511  25.587  0.00  0.00    -0.048 C 
ATOM     28  C   UNL     1      -1.812   3.725  26.258  0.00  0.00    +0.026 C 
ENDROOT
BRANCH  16  17
ATOM     17  C   UNL     1      -3.527   2.869  23.573  0.00  0.00    +0.000 C 
ATOM     18  C   UNL     1      -3.733   2.080  23.448  0.00  0.00    +0.000 C 
ATOM     19  C   UNL     1      -3.751   3.445  23.026  0.00  0.00    +0.000 C 
ENDBRANCH  16  17
BRANCH  14  13
ATOM     13  C   UNL     1      -1.027   3.144  24.928  0.00  0.00    +0.091 C 
BRANCH  13  12
ATOM      9  C   UNL     1      -0.465   1.096  24.701  0.00  0.00    +0.250 A 
ATOM     10  N   UNL     1       0.173   1.478  24.343  0.00  0.00    -0.107 NA
ATOM     11  N   UNL     1       0.040   2.291  24.385  0.00  0.00    -0.111 NA
ATOM     12  C   UNL     1      -0.680   2.413  24.768  0.00  0.00    +0.227 A 
ATOM     29  O   UNL     1      -0.993   1.674  24.964  0.00  0.00    -0.420 OA
BRANCH   9   6
ATOM      3  C   UNL     1      -0.748  -1.350  24.943  0.00  0.00    +0.139 A 
ATOM      4  C   UNL     1      -0.997  -0.844  25.547  0.00  0.00    +0.037 A 
ATOM      5  C   UNL     1      -0.902  -0.028  25.465  0.00  0.00    +0.008 A 
ATOM      6  C   UNL     1      -0.559   0.281  24.781  0.00  0.00    +0.055 A 
ATOM      7  C   UNL     1      -0.311  -0.225  24.179  0.00  0.00    +0.008 A 
ATOM      8  C   UNL     1      -0.406  -1.041  24.260  0.00  0.00    +0.037 A 
BRANCH   3   2
ATOM      1  C   UNL     1      -1.517  -2.535  24.724  0.00  0.00    +0.252 C 
ATOM      2  O   UNL     1      -0.843  -2.166  25.025  0.00  0.00    -0.471 OA
ENDBRANCH   3   2
ENDBRANCH   9   6
ENDBRANCH  13  12
ENDBRANCH  14  13
BRANCH  20  21
ATOM     21  C   UNL     1      -4.312   3.451  24.902  0.00  0.00    +0.094 C 
BRANCH  21  22
ATOM     22  N   UNL     1      -4.739   3.369  25.605  0.00  0.00    -0.204 NA
BRANCH  22  23
ATOM     23  C   UNL     1      -5.564   3.357  25.587  0.00  0.00    +0.165 C 
BRANCH  23  24
ATOM     24  C   UNL     1      -5.975   2.743  25.955  0.00  0.00    -0.059 C 
ATOM     25  C   UNL     1      -6.386   2.130  26.323  0.00  0.00    -0.013 C 
ENDBRANCH  23  24
ENDBRANCH  22  23
ENDBRANCH  21  22
ENDBRANCH  20  21
TORSDOF 9
ENDMDL
MODEL 6
REMARK VINA RESULT:      -8.2      2.064      2.744
REMARK  Name = 
REMARK  9 active torsions:
REMARK  status: ('A' for Active; 'I' for Inactive)
REMARK    1  A    between atoms: O_2  and  C_3
REMARK    2  A    between atoms: C_6  and  C_9
REMARK    3  A    between atoms: C_12  and  C_13
REMARK    4  A    between atoms: C_13  and  C_14
REMARK    5  A    between atoms: C_16  and  C_17
REMARK    6  A    between atoms: C_20  and  C_21
REMARK    7  A    between atoms: C_21  and  N_22
REMARK    8  A    between atoms: N_22  and  C_23
REMARK    9  A    between atoms: C_23  and  C_24
REMARK                            x       y       z     vdW  Elec       q    Type
REMARK                         _______ _______ _______ _____ _____    ______ ____
ROOT
ATOM     14  C   UNL     1      -1.024   1.428  25.203  0.00  0.00    +0.027 C 
ATOM     15  C   UNL     1      -1.761   1.505  24.842  0.00  0.00    +0.005 C 
ATOM     16  C   UNL     1      -2.144   2.235  24.836  0.00  0.00    +0.006 C 
ATOM     20  C   UNL     1      -1.790   2.889  25.193  0.00  0.00    +0.039 C 
ATOM     26  C   UNL     1      -1.052   2.813  25.554  0.00  0.00    -0.033 C 
ATOM     27  C   UNL     1      -0.669   2.082  25.559  0.00  0.00    -0.048 C 
ATOM     28  C   UNL     1       0.068   2.006  25.921  0.00  0.00    +0.026 C 
ENDROOT
BRANCH  16  17
ATOM     17  C   UNL     1      -2.881   2.312  24.475  0.00  0.00    +0.000 C 
ATOM     18  C   UNL     1      -3.570   2.261  24.927  0.00  0.00    +0.000 C 
ATOM     19  C   UNL     1      -2.930   2.439  23.661  0.00  0.00    +0.000 C 
ENDBRANCH  16  17
BRANCH  14  13
ATOM     13  C   UNL     1      -0.641   0.698  25.208  0.00  0.00    +0.091 C 
BRANCH  13  12
ATOM      9  C   UNL     1      -1.869  -1.045  25.333  0.00  0.00    +0.250 A 
ATOM     10  N   UNL     1      -1.535  -1.030  26.088  0.00  0.00    -0.107 NA
ATOM     11  N   UNL     1      -1.035  -0.375  26.133  0.00  0.00    -0.111 NA
ATOM     12  C   UNL     1      -1.059   0.015  25.406  0.00  0.00    +0.227 A 
ATOM     29  O   UNL     1      -1.574  -0.399  24.912  0.00  0.00    -0.420 OA
BRANCH   9   6
ATOM      3  C   UNL     1      -3.471  -2.728  24.483  0.00  0.00    +0.139 A 
ATOM      4  C   UNL     1      -3.729  -2.138  25.000  0.00  0.00    +0.037 A 
ATOM      5  C   UNL     1      -3.194  -1.577  25.283  0.00  0.00    +0.008 A 
ATOM      6  C   UNL     1      -2.403  -1.606  25.050  0.00  0.00    +0.055 A 
ATOM      7  C   UNL     1      -2.146  -2.195  24.533  0.00  0.00    +0.008 A 
ATOM      8  C   UNL     1      -2.681  -2.756  24.250  0.00  0.00    +0.037 A 
BRANCH   3   2
ATOM      1  C   UNL     1      -4.499  -3.105  23.564  0.00  0.00    +0.252 C 
ATOM      2  O   UNL     1      -4.006  -3.289  24.199  0.00  0.00    -0.471 OA
ENDBRANCH   3   2
ENDBRANCH   9   6
ENDBRANCH  13  12
ENDBRANCH  14  13
BRANCH  20  21
ATOM     21  C   UNL     1      -2.172   3.620  25.188  0.00  0.00    +0.094 C 
BRANCH  21  22
ATOM     22  N   UNL     1      -1.771   4.297  25.438  0.00  0.00    -0.204 NA
BRANCH  22  23
ATOM     23  C   UNL     1      -2.120   5.040  25.349  0.00  0.00    +0.165 C 
BRANCH  23  24
ATOM     24  C   UNL     1      -1.675   5.672  25.059  0.00  0.00    -0.059 C 
ATOM     25  C   UNL     1      -1.231   6.303  24.770  0.00  0.00    -0.013 C 
ENDBRANCH  23  24
ENDBRANCH  22  23
ENDBRANCH  21  22
ENDBRANCH  20  21
TORSDOF 9
ENDMDL
MODEL 7
REMARK VINA RESULT:      -8.1      2.107      3.371
REMARK  Name = 
REMARK  9 active torsions:
REMARK  status: ('A' for Active; 'I' for Inactive)
REMARK    1  A    between atoms: O_2  and  C_3
REMARK    2  A    between atoms: C_6  and  C_9
REMARK    3  A    between atoms: C_12  and  C_13
REMARK    4  A    between atoms: C_13  and  C_14
REMARK    5  A    between atoms: C_16  and  C_17
REMARK    6  A    between atoms: C_20  and  C_21
REMARK    7  A    between atoms: C_21  and  N_22
REMARK    8  A    between atoms: N_22  and  C_23
REMARK    9  A    between atoms: C_23  and  C_24
REMARK                            x       y       z     vdW  Elec       q    Type
REMARK                         _______ _______ _______ _____ _____    ______ ____
ROOT
ATOM     14  C   UNL     1      -2.147   2.884  23.949  0.00  0.00    +0.027 C 
ATOM     15  C   UNL     1      -2.050   3.305  24.653  0.00  0.00    +0.005 C 
ATOM     16  C   UNL     1      -2.711   3.574  25.067  0.00  0.00    +0.006 C 
ATOM     20  C   UNL     1      -3.468   3.423  24.778  0.00  0.00    +0.039 C 
ATOM     26  C   UNL     1      -3.566   3.003  24.074  0.00  0.00    -0.033 C 
ATOM     27  C   UNL     1      -2.904   2.734  23.660  0.00  0.00    -0.048 C 
ATOM     28  C   UNL     1      -3.002   2.314  22.957  0.00  0.00    +0.026 C 
ENDROOT
BRANCH  16  17
ATOM     17  C   UNL     1      -2.614   3.993  25.770  0.00  0.00    +0.000 C 
ATOM     18  C   UNL     1      -2.556   3.590  26.487  0.00  0.00    +0.000 C 
ATOM     19  C   UNL     1      -2.575   4.817  25.756  0.00  0.00    +0.000 C 
ENDBRANCH  16  17
BRANCH  14  13
ATOM     13  C   UNL     1      -1.487   2.615  23.536  0.00  0.00    +0.091 C 
BRANCH  13  12
ATOM      9  C   UNL     1      -0.615   0.839  24.339  0.00  0.00    +0.250 A 
ATOM     10  N   UNL     1       0.031   1.352  24.349  0.00  0.00    -0.107 NA
ATOM     11  N   UNL     1      -0.217   2.080  24.049  0.00  0.00    -0.111 NA
ATOM     12  C   UNL     1      -1.016   2.017  23.854  0.00  0.00    +0.227 A 
ATOM     29  O   UNL     1      -1.262   1.250  24.033  0.00  0.00    -0.420 OA
BRANCH   9   6
ATOM      3  C   UNL     1      -0.613  -1.518  25.094  0.00  0.00    +0.139 A 
ATOM      4  C   UNL     1      -0.273  -1.317  24.369  0.00  0.00    +0.037 A 
ATOM      5  C   UNL     1      -0.274  -0.530  24.118  0.00  0.00    +0.008 A 
ATOM      6  C   UNL     1      -0.614   0.054  24.591  0.00  0.00    +0.055 A 
ATOM      7  C   UNL     1      -0.954  -0.148  25.315  0.00  0.00    +0.008 A 
ATOM      8  C   UNL     1      -0.953  -0.934  25.566  0.00  0.00    +0.037 A 
BRANCH   3   2
ATOM      1  C   UNL     1      -1.216  -2.813  25.109  0.00  0.00    +0.252 C 
ATOM      2  O   UNL     1      -0.612  -2.304  25.346  0.00  0.00    -0.471 OA
ENDBRANCH   3   2
ENDBRANCH   9   6
ENDBRANCH  13  12
ENDBRANCH  14  13
BRANCH  20  21
ATOM     21  C   UNL     1      -4.129   3.692  25.191  0.00  0.00    +0.094 C 
BRANCH  21  22
ATOM     22  N   UNL     1      -4.866   3.342  25.063  0.00  0.00    -0.204 NA
BRANCH  22  23
ATOM     23  C   UNL     1      -5.473   3.443  25.614  0.00  0.00    +0.165 C 
BRANCH  23  24
ATOM     24  C   UNL     1      -5.951   2.805  25.822  0.00  0.00    -0.059 C 
ATOM     25  C   UNL     1      -6.430   2.166  26.030  0.00  0.00    -0.013 C 
ENDBRANCH  23  24
ENDBRANCH  22  23
ENDBRANCH  21  22
ENDBRANCH  20  21
TORSDOF 9
ENDMDL
MODEL 8
REMARK VINA RESULT:      -8.0      2.337      5.956
REMARK  Name = 
REMARK  9 active torsions:
REMARK  status: ('A' for Active; 'I' for Inactive)
REMARK    1  A    between atoms: O_2  and  C_3
REMARK    2  A    between atoms: C_6  and  C_9
REMARK    3  A    between atoms: C_12  and  C_13
REMARK    4  A    between atoms: C_13  and  C_14
REMARK    5  A    between atoms: C_16  and  C_17
REMARK    6  A    between atoms: C_20  and  C_21
REMARK    7  A    between atoms: C_21  and  N_22
REMARK    8  A    between atoms: N_22  and  C_23
REMARK    9  A    between atoms: C_23  and  C_24
REMARK                            x       y       z     vdW  Elec       q    Type
REMARK                         _______ _______ _______ _____ _____    ______ ____
ROOT
ATOM     14  C   UNL     1      -1.184   0.194  24.697  0.00  0.00    +0.027 C 
ATOM     15  C   UNL     1      -1.951   0.492  24.642  0.00  0.00    +0.005 C 
ATOM     16  C   UNL     1      -2.596  -0.021  24.668  0.00  0.00    +0.006 C 
ATOM     20  C   UNL     1      -2.475  -0.833  24.748  0.00  0.00    +0.039 C 
ATOM     26  C   UNL     1      -1.708  -1.132  24.803  0.00  0.00    -0.033 C 
ATOM     27  C   UNL     1      -1.062  -0.618  24.778  0.00  0.00    -0.048 C 
ATOM     28  C   UNL     1      -0.296  -0.918  24.833  0.00  0.00    +0.026 C 
ENDROOT
BRANCH  16  17
ATOM     17  C   UNL     1      -3.363   0.278  24.613  0.00  0.00    +0.000 C 
ATOM     18  C   UNL     1      -3.682   0.465  23.875  0.00  0.00    +0.000 C 
ATOM     19  C   UNL     1      -3.812   0.389  25.296  0.00  0.00    +0.000 C 
ENDBRANCH  16  17
BRANCH  14  13
ATOM     13  C   UNL     1      -0.539   0.706  24.672  0.00  0.00    +0.091 C 
BRANCH  13  12
ATOM      9  C   UNL     1      -0.788   2.701  25.393  0.00  0.00    +0.250 A 
ATOM     10  N   UNL     1      -0.417   2.343  26.037  0.00  0.00    -0.107 NA
ATOM     11  N   UNL     1      -0.279   1.553  25.845  0.00  0.00    -0.111 NA
ATOM     12  C   UNL     1      -0.564   1.421  25.083  0.00  0.00    +0.227 A 
ATOM     29  O   UNL     1      -0.879   2.131  24.803  0.00  0.00    -0.420 OA
BRANCH   9   6
ATOM      3  C   UNL     1      -1.503   5.066  25.252  0.00  0.00    +0.139 A 
ATOM      4  C   UNL     1      -0.786   4.831  24.917  0.00  0.00    +0.037 A 
ATOM      5  C   UNL     1      -0.548   4.042  24.964  0.00  0.00    +0.008 A 
ATOM      6  C   UNL     1      -1.027   3.489  25.346  0.00  0.00    +0.055 A 
ATOM      7  C   UNL     1      -1.743   3.724  25.681  0.00  0.00    +0.008 A 
ATOM      8  C   UNL     1      -1.981   4.513  25.634  0.00  0.00    +0.037 A 
BRANCH   3   2
ATOM      1  C   UNL     1      -1.974   6.173  24.481  0.00  0.00    +0.252 C 
ATOM      2  O   UNL     1      -1.742   5.855  25.205  0.00  0.00    -0.471 OA
ENDBRANCH   3   2
ENDBRANCH   9   6
ENDBRANCH  13  12
ENDBRANCH  14  13
BRANCH  20  21
ATOM     21  C   UNL     1      -3.120  -1.346  24.774  0.00  0.00    +0.094 C 
BRANCH  21  22
ATOM     22  N   UNL     1      -3.018  -2.146  24.593  0.00  0.00    -0.204 NA
BRANCH  22  23
ATOM     23  C   UNL     1      -3.617  -2.687  24.764  0.00  0.00    +0.165 C 
BRANCH  23  24
ATOM     24  C   UNL     1      -3.976  -3.110  24.154  0.00  0.00    -0.059 C 
ATOM     25  C   UNL     1      -4.335  -3.534  23.544  0.00  0.00    -0.013 C 
ENDBRANCH  23  24
ENDBRANCH  22  23
ENDBRANCH  21  22
ENDBRANCH  20  21
TORSDOF 9
ENDMDL
MODEL 9
REMARK VINA RESULT:      -7.9      3.173      4.793
REMARK  Name = 
REMARK  9 active torsions:
REMARK  status: ('A' for Active; 'I' for Inactive)
REMARK    1  A    between atoms: O_2  and  C_3
REMARK    2  A    between atoms: C_6  and  C_9
REMARK    3  A    between atoms: C_12  and  C_13
REMARK    4  A    between atoms: C_13  and  C_14
REMARK    5  A    between atoms: C_16  and  C_17
REMARK    6  A    between atoms: C_20  and  C_21
REMARK    7  A    between atoms: C_21  and  N_22
REMARK    8  A    between atoms: N_22  and  C_23
REMARK    9  A    between atoms: C_23  and  C_24
REMARK                            x       y       z     vdW  Elec       q    Type
REMARK                         _______ _______ _______ _____ _____    ______ ____
ROOT
ATOM     14  C   UNL     1      -2.852  -0.322  24.486  0.00  0.00    +0.027 C 
ATOM     15  C   UNL     1      -2.707   0.424  24.165  0.00  0.00    +0.005 C 
ATOM     16  C   UNL     1      -3.280   1.015  24.220  0.00  0.00    +0.006 C 
ATOM     20  C   UNL     1      -3.998   0.860  24.596  0.00  0.00    +0.039 C 
ATOM     26  C   UNL     1      -4.143   0.115  24.917  0.00  0.00    -0.033 C 
ATOM     27  C   UNL     1      -3.570  -0.477  24.862  0.00  0.00    -0.048 C 
ATOM     28  C   UNL     1      -3.715  -1.222  25.183  0.00  0.00    +0.026 C 
ENDROOT
BRANCH  16  17
ATOM     17  C   UNL     1      -3.135   1.761  23.899  0.00  0.00    +0.000 C 
ATOM     18  C   UNL     1      -3.307   1.910  23.106  0.00  0.00    +0.000 C 
ATOM     19  C   UNL     1      -2.818   2.358  24.371  0.00  0.00    +0.000 C 
ENDBRANCH  16  17
BRANCH  14  13
ATOM     13  C   UNL     1      -2.279  -0.913  24.432  0.00  0.00    +0.091 C 
BRANCH  13  12
ATOM      9  C   UNL     1      -0.236  -0.378  24.120  0.00  0.00    +0.250 A 
ATOM     10  N   UNL     1      -0.258  -0.450  24.942  0.00  0.00    -0.107 NA
ATOM     11  N   UNL     1      -1.027  -0.659  25.158  0.00  0.00    -0.111 NA
ATOM     12  C   UNL     1      -1.479  -0.716  24.471  0.00  0.00    +0.227 A 
ATOM     29  O   UNL     1      -0.990  -0.543  23.829  0.00  0.00    -0.420 OA
BRANCH   9   6
ATOM      3  C   UNL     1       1.746   0.224  22.765  0.00  0.00    +0.139 A 
ATOM      4  C   UNL     1       1.347  -0.483  22.620  0.00  0.00    +0.037 A 
ATOM      5  C   UNL     1       0.686  -0.684  23.072  0.00  0.00    +0.008 A 
ATOM      6  C   UNL     1       0.425  -0.177  23.669  0.00  0.00    +0.055 A 
ATOM      7  C   UNL     1       0.824   0.529  23.814  0.00  0.00    +0.008 A 
ATOM      8  C   UNL     1       1.485   0.730  23.362  0.00  0.00    +0.037 A 
BRANCH   3   2
ATOM      1  C   UNL     1       3.141   0.520  22.676  0.00  0.00    +0.252 C 
ATOM      2  O   UNL     1       2.407   0.425  22.313  0.00  0.00    -0.471 OA
ENDBRANCH   3   2
ENDBRANCH   9   6
ENDBRANCH  13  12
ENDBRANCH  14  13
BRANCH  20  21
ATOM     21  C   UNL     1      -4.571   1.451  24.651  0.00  0.00    +0.094 C 
BRANCH  21  22
ATOM     22  N   UNL     1      -5.220   1.350  25.151  0.00  0.00    -0.204 NA
BRANCH  22  23
ATOM     23  C   UNL     1      -5.804   1.932  25.191  0.00  0.00    +0.165 C 
BRANCH  23  24
ATOM     24  C   UNL     1      -6.184   2.086  25.907  0.00  0.00    -0.059 C 
ATOM     25  C   UNL     1      -6.563   2.240  26.623  0.00  0.00    -0.013 C 
ENDBRANCH  23  24
ENDBRANCH  22  23
ENDBRANCH  21  22
ENDBRANCH  20  21
TORSDOF 9
ENDMDL
