MODEL 1
REMARK VINA RESULT:     -10.4      0.000      0.000
REMARK  Name = 
REMARK  7 active torsions:
REMARK  status: ('A' for Active; 'I' for Inactive)
REMARK    1  A    between atoms: O_2  and  C_3
REMARK    2  A    between atoms: C_3  and  C_4
REMARK    3  A    between atoms: C_4  and  N_5
REMARK    4  A    between atoms: N_5  and  C_6
REMARK    5  A    between atoms: C_7  and  C_12
REMARK    6  A    between atoms: C_15  and  C_17
REMARK    7  A    between atoms: N_21  and  C_22
REMARK                            x       y       z     vdW  Elec       q    Type
REMARK                         _______ _______ _______ _____ _____    ______ ____
ROOT
ATOM     12  C   UNL     1      -4.206   1.019  24.482  0.00  0.00    +0.206 A 
ATOM     13  N   UNL     1      -3.741   1.040  23.801  0.00  0.00    -0.056 NA
ATOM     14  O   UNL     1      -3.494   0.271  23.637  0.00  0.00    -0.336 OA
ATOM     15  C   UNL     1      -3.806  -0.226  24.217  0.00  0.00    +0.251 A 
ATOM     16  N   UNL     1      -4.246   0.236  24.739  0.00  0.00    -0.190 NA
ENDROOT
BRANCH  12   7
ATOM      6  C   UNL     1      -4.117   2.321  25.064  0.00  0.00    +0.151 A 
ATOM      7  C   UNL     1      -4.567   1.667  24.843  0.00  0.00    +0.072 A 
ATOM      8  C   UNL     1      -5.381   1.661  24.984  0.00  0.00    +0.008 A 
ATOM      9  C   UNL     1      -5.743   2.309  25.345  0.00  0.00    +0.021 A 
ATOM     10  C   UNL     1      -5.290   2.963  25.565  0.00  0.00    +0.100 A 
ATOM     11  N   UNL     1      -4.478   2.969  25.425  0.00  0.00    -0.228 NA
BRANCH   6   5
ATOM      5  N   UNL     1      -3.303   2.328  24.923  0.00  0.00    -0.218 NA
BRANCH   5   4
ATOM      4  C   UNL     1      -2.834   2.926  25.244  0.00  0.00    +0.146 C 
BRANCH   4   3
ATOM      3  C   UNL     1      -2.050   3.011  25.000  0.00  0.00    +0.166 C 
BRANCH   3   2
ATOM      1  C   UNL     1      -0.756   3.533  25.310  0.00  0.00    +0.174 C 
ATOM      2  O   UNL     1      -1.463   3.181  25.554  0.00  0.00    -0.349 OA
ENDBRANCH   3   2
ENDBRANCH   4   3
ENDBRANCH   5   4
ENDBRANCH   6   5
ENDBRANCH  12   7
BRANCH  15  17
ATOM     17  C   UNL     1      -3.697  -1.043  24.265  0.00  0.00    +0.138 C 
ATOM     18  C   UNL     1      -4.231  -1.619  24.016  0.00  0.00    +0.027 C 
ATOM     19  C   UNL     1      -3.897  -2.358  24.168  0.00  0.00    +0.019 C 
ATOM     20  C   UNL     1      -3.156  -2.238  24.510  0.00  0.00    +0.072 C 
ATOM     21  N   UNL     1      -3.032  -1.425  24.571  0.00  0.00    -0.268 NA
BRANCH  21  22
ATOM     22  C   UNL     1      -2.362  -1.058  24.881  0.00  0.00    +0.063 C 
ATOM     23  C   UNL     1      -2.315  -0.904  25.691  0.00  0.00    +0.048 C 
ATOM     24  C   UNL     1      -1.645  -0.536  26.002  0.00  0.00    +0.144 C 
ATOM     25  O   UNL     1      -1.022  -0.322  25.504  0.00  0.00    -0.354 OA
ATOM     26  C   UNL     1      -1.070  -0.476  24.695  0.00  0.00    +0.144 C 
ATOM     27  C   UNL     1      -1.740  -0.844  24.384  0.00  0.00    +0.048 C 
ENDBRANCH  21  22
ENDBRANCH  15  17
TORSDOF 7
ENDMDL
MODEL 2
REMARK VINA RESULT:      -9.8      1.063      3.740
REMARK  Name = 
REMARK  7 active torsions:
REMARK  status: ('A' for Active; 'I' for Inactive)
REMARK    1  A    between atoms: O_2  and  C_3
REMARK    2  A    between atoms: C_3  and  C_4
REMARK    3  A    between atoms: C_4  and  N_5
REMARK    4  A    between atoms: N_5  and  C_6
REMARK    5  A    between atoms: C_7  and  C_12
REMARK    6  A    between atoms: C_15  and  C_17
REMARK    7  A    between atoms: N_21  and  C_22
REMARK                            x       y       z     vdW  Elec       q    Type
REMARK                         _______ _______ _______ _____ _____    ______ ____
ROOT
ATOM     12  C   UNL     1      -3.731   0.361  24.579  0.00  0.00    +0.206 A 
ATOM     13  N   UNL     1      -3.710   0.788  23.874  0.00  0.00    -0.056 NA
ATOM     14  O   UNL     1      -4.173   1.463  23.970  0.00  0.00    -0.336 OA
ATOM     15  C   UNL     1      -4.482   1.453  24.736  0.00  0.00    +0.251 A 
ATOM     16  N   UNL     1      -4.208   0.772  25.111  0.00  0.00    -0.190 NA
ENDROOT
BRANCH  12   7
ATOM      6  C   UNL     1      -2.519  -0.383  24.720  0.00  0.00    +0.151 A 
ATOM      7  C   UNL     1      -3.343  -0.352  24.726  0.00  0.00    +0.072 A 
ATOM      8  C   UNL     1      -3.780  -1.036  24.880  0.00  0.00    +0.008 A 
ATOM      9  C   UNL     1      -3.392  -1.749  25.027  0.00  0.00    +0.021 A 
ATOM     10  C   UNL     1      -2.568  -1.778  25.020  0.00  0.00    +0.100 A 
ATOM     11  N   UNL     1      -2.131  -1.096  24.867  0.00  0.00    -0.228 NA
BRANCH   6   5
ATOM      5  N   UNL     1      -2.082   0.301  24.567  0.00  0.00    -0.218 NA
BRANCH   5   4
ATOM      4  C   UNL     1      -1.263   0.297  24.666  0.00  0.00    +0.146 C 
BRANCH   4   3
ATOM      3  C   UNL     1      -0.802   0.878  24.304  0.00  0.00    +0.166 C 
BRANCH   3   2
ATOM      1  C   UNL     1       0.314   1.770  24.351  0.00  0.00    +0.174 C 
ATOM      2  O   UNL     1      -0.219   1.270  24.736  0.00  0.00    -0.349 OA
ENDBRANCH   3   2
ENDBRANCH   4   3
ENDBRANCH   5   4
ENDBRANCH   6   5
ENDBRANCH  12   7
BRANCH  15  17
ATOM     17  C   UNL     1      -4.977   2.025  25.066  0.00  0.00    +0.138 C 
ATOM     18  C   UNL     1      -5.768   1.921  25.272  0.00  0.00    +0.027 C 
ATOM     19  C   UNL     1      -6.047   2.634  25.581  0.00  0.00    +0.019 C 
ATOM     20  C   UNL     1      -5.427   3.178  25.565  0.00  0.00    +0.072 C 
ATOM     21  N   UNL     1      -4.766   2.803  25.247  0.00  0.00    -0.268 NA
BRANCH  21  22
ATOM     22  C   UNL     1      -4.023   3.142  25.129  0.00  0.00    +0.063 C 
ATOM     23  C   UNL     1      -3.486   3.183  25.754  0.00  0.00    +0.048 C 
ATOM     24  C   UNL     1      -2.743   3.523  25.637  0.00  0.00    +0.144 C 
ATOM     25  O   UNL     1      -2.538   3.822  24.896  0.00  0.00    -0.354 OA
ATOM     26  C   UNL     1      -3.075   3.781  24.272  0.00  0.00    +0.144 C 
ATOM     27  C   UNL     1      -3.818   3.441  24.389  0.00  0.00    +0.048 C 
ENDBRANCH  21  22
ENDBRANCH  15  17
TORSDOF 7
ENDMDL
MODEL 3
REMARK VINA RESULT:      -9.8      1.329      3.710
REMARK  Name = 
REMARK  7 active torsions:
REMARK  status: ('A' for Active; 'I' for Inactive)
REMARK    1  A    between atoms: O_2  and  C_3
REMARK    2  A    between atoms: C_3  and  C_4
REMARK    3  A    between atoms: C_4  and  N_5
REMARK    4  A    between atoms: N_5  and  C_6
REMARK    5  A    between atoms: C_7  and  C_12
REMARK    6  A    between atoms: C_15  and  C_17
REMARK    7  A    between atoms: N_21  and  C_22
REMARK                            x       y       z     vdW  Elec       q    Type
REMARK                         _______ _______ _______ _____ _____    ______ ____
ROOT
ATOM     12  C   UNL     1      -3.774   2.725  24.749  0.00  0.00    +0.206 A 
ATOM     13  N   UNL     1      -3.517   2.622  23.972  0.00  0.00    -0.056 NA
ATOM     14  O   UNL     1      -2.758   2.937  23.910  0.00  0.00    -0.336 OA
ATOM     15  C   UNL     1      -2.545   3.235  24.650  0.00  0.00    +0.251 A 
ATOM     16  N   UNL     1      -3.173   3.104  25.168  0.00  0.00    -0.190 NA
ENDROOT
BRANCH  12   7
ATOM      6  C   UNL     1      -4.726   1.696  25.028  0.00  0.00    +0.151 A 
ATOM      7  C   UNL     1      -4.504   2.490  25.054  0.00  0.00    +0.072 A 
ATOM      8  C   UNL     1      -5.012   3.050  25.385  0.00  0.00    +0.008 A 
ATOM      9  C   UNL     1      -5.742   2.815  25.690  0.00  0.00    +0.021 A 
ATOM     10  C   UNL     1      -5.963   2.021  25.663  0.00  0.00    +0.100 A 
ATOM     11  N   UNL     1      -5.456   1.462  25.333  0.00  0.00    -0.228 NA
BRANCH   6   5
ATOM      5  N   UNL     1      -4.217   1.136  24.697  0.00  0.00    -0.218 NA
BRANCH   5   4
ATOM      4  C   UNL     1      -4.385   0.332  24.773  0.00  0.00    +0.146 C 
BRANCH   4   3
ATOM      3  C   UNL     1      -4.010  -0.215  24.281  0.00  0.00    +0.166 C 
BRANCH   3   2
ATOM      1  C   UNL     1      -4.004  -1.623  24.038  0.00  0.00    +0.174 C 
ATOM      2  O   UNL     1      -3.878  -0.984  24.546  0.00  0.00    -0.349 OA
ENDBRANCH   3   2
ENDBRANCH   4   3
ENDBRANCH   5   4
ENDBRANCH   6   5
ENDBRANCH  12   7
BRANCH  15  17
ATOM     17  C   UNL     1      -1.829   3.600  24.837  0.00  0.00    +0.138 C 
ATOM     18  C   UNL     1      -1.707   4.409  24.935  0.00  0.00    +0.027 C 
ATOM     19  C   UNL     1      -0.911   4.527  25.117  0.00  0.00    +0.019 C 
ATOM     20  C   UNL     1      -0.541   3.790  25.133  0.00  0.00    +0.072 C 
ATOM     21  N   UNL     1      -1.107   3.217  24.960  0.00  0.00    -0.268 NA
BRANCH  21  22
ATOM     22  C   UNL     1      -0.977   2.403  24.916  0.00  0.00    +0.063 C 
ATOM     23  C   UNL     1      -1.008   1.945  25.602  0.00  0.00    +0.048 C 
ATOM     24  C   UNL     1      -0.878   1.131  25.559  0.00  0.00    +0.144 C 
ATOM     25  O   UNL     1      -0.718   0.776  24.831  0.00  0.00    -0.354 OA
ATOM     26  C   UNL     1      -0.688   1.234  24.147  0.00  0.00    +0.144 C 
ATOM     27  C   UNL     1      -0.818   2.049  24.190  0.00  0.00    +0.048 C 
ENDBRANCH  21  22
ENDBRANCH  15  17
TORSDOF 7
ENDMDL
MODEL 4
REMARK VINA RESULT:      -9.5      1.424      3.247
REMARK  Name = 
REMARK  7 active torsions:
REMARK  status: ('A' for Active; 'I' for Inactive)
REMARK    1  A    between atoms: O_2  and  C_3
REMARK    2  A    between atoms: C_3  and  C_4
REMARK    3  A    between atoms: C_4  and  N_5
REMARK    4  A    between atoms: N_5  and  C_6
REMARK    5  A    between atoms: C_7  and  C_12
REMARK    6  A    between atoms: C_15  and  C_17
REMARK    7  A    between atoms: N_21  and  C_22
REMARK                            x       y       z     vdW  Elec       q    Type
REMARK                         _______ _______ _______ _____ _____    ______ ____
ROOT
ATOM     12  C   UNL     1      -2.694   2.720  24.467  0.00  0.00    +0.206 A 
ATOM     13  N   UNL     1      -2.867   2.447  23.708  0.00  0.00    -0.056 NA
ATOM     14  O   UNL     1      -3.617   2.107  23.724  0.00  0.00    -0.336 OA
ATOM     15  C   UNL     1      -3.910   2.170  24.493  0.00  0.00    +0.251 A 
ATOM     16  N   UNL     1      -3.339   2.548  24.952  0.00  0.00    -0.190 NA
ENDROOT
BRANCH  12   7
ATOM      6  C   UNL     1      -1.273   2.718  24.611  0.00  0.00    +0.151 A 
ATOM      7  C   UNL     1      -1.999   3.098  24.701  0.00  0.00    +0.072 A 
ATOM      8  C   UNL     1      -2.030   3.857  25.024  0.00  0.00    +0.008 A 
ATOM      9  C   UNL     1      -1.335   4.235  25.257  0.00  0.00    +0.021 A 
ATOM     10  C   UNL     1      -0.609   3.854  25.167  0.00  0.00    +0.100 A 
ATOM     11  N   UNL     1      -0.577   3.096  24.844  0.00  0.00    -0.228 NA
BRANCH   6   5
ATOM      5  N   UNL     1      -1.241   1.959  24.288  0.00  0.00    -0.218 NA
BRANCH   5   4
ATOM      4  C   UNL     1      -0.539   1.528  24.316  0.00  0.00    +0.146 C 
BRANCH   4   3
ATOM      3  C   UNL     1      -0.442   0.866  23.833  0.00  0.00    +0.166 C 
BRANCH   3   2
ATOM      1  C   UNL     1       0.210  -0.395  23.665  0.00  0.00    +0.174 C 
ATOM      2  O   UNL     1      -0.157   0.161  24.153  0.00  0.00    -0.349 OA
ENDBRANCH   3   2
ENDBRANCH   4   3
ENDBRANCH   5   4
ENDBRANCH   6   5
ENDBRANCH  12   7
BRANCH  15  17
ATOM     17  C   UNL     1      -4.644   1.901  24.756  0.00  0.00    +0.138 C 
ATOM     18  C   UNL     1      -5.305   2.368  24.912  0.00  0.00    +0.027 C 
ATOM     19  C   UNL     1      -5.915   1.871  25.161  0.00  0.00    +0.019 C 
ATOM     20  C   UNL     1      -5.631   1.097  25.158  0.00  0.00    +0.072 C 
ATOM     21  N   UNL     1      -4.846   1.114  24.908  0.00  0.00    -0.268 NA
BRANCH  21  22
ATOM     22  C   UNL     1      -4.348   0.462  24.824  0.00  0.00    +0.063 C 
ATOM     23  C   UNL     1      -3.929   0.177  25.476  0.00  0.00    +0.048 C 
ATOM     24  C   UNL     1      -3.431  -0.476  25.392  0.00  0.00    +0.144 C 
ATOM     25  O   UNL     1      -3.352  -0.843  24.658  0.00  0.00    -0.354 OA
ATOM     26  C   UNL     1      -3.770  -0.558  24.007  0.00  0.00    +0.144 C 
ATOM     27  C   UNL     1      -4.268   0.095  24.090  0.00  0.00    +0.048 C 
ENDBRANCH  21  22
ENDBRANCH  15  17
TORSDOF 7
ENDMDL
MODEL 5
REMARK VINA RESULT:      -9.5      1.484      4.171
REMARK  Name = 
REMARK  7 active torsions:
REMARK  status: ('A' for Active; 'I' for Inactive)
REMARK    1  A    between atoms: O_2  and  C_3
REMARK    2  A    between atoms: C_3  and  C_4
REMARK    3  A    between atoms: C_4  and  N_5
REMARK    4  A    between atoms: N_5  and  C_6
REMARK    5  A    between atoms: C_7  and  C_12
REMARK    6  A    between atoms: C_15  and  C_17
REMARK    7  A    between atoms: N_21  and  C_22
REMARK                            x       y       z     vdW  Elec       q    Type
REMARK                         _______ _______ _______ _____ _____    ______ ____
ROOT
ATOM     12  C   UNL     1      -3.044   0.197  24.842  0.00  0.00    +0.206 A 
ATOM     13  N   UNL     1      -2.811   0.707  25.448  0.00  0.00    -0.056 NA
ATOM     14  O   UNL     1      -2.952   1.480  25.200  0.00  0.00    -0.336 OA
ATOM     15  C   UNL     1      -3.273   1.449  24.440  0.00  0.00    +0.251 A 
ATOM     16  N   UNL     1      -3.330   0.657  24.220  0.00  0.00    -0.190 NA
ENDROOT
BRANCH  12   7
ATOM      6  C   UNL     1      -2.279  -1.003  24.717  0.00  0.00    +0.151 A 
ATOM      7  C   UNL     1      -2.999  -0.626  24.857  0.00  0.00    +0.072 A 
ATOM      8  C   UNL     1      -3.676  -1.074  25.011  0.00  0.00    +0.008 A 
ATOM      9  C   UNL     1      -3.631  -1.897  25.026  0.00  0.00    +0.021 A 
ATOM     10  C   UNL     1      -2.910  -2.274  24.886  0.00  0.00    +0.100 A 
ATOM     11  N   UNL     1      -2.234  -1.827  24.732  0.00  0.00    -0.228 NA
BRANCH   6   5
ATOM      5  N   UNL     1      -1.603  -0.556  24.563  0.00  0.00    -0.218 NA
BRANCH   5   4
ATOM      4  C   UNL     1      -0.905  -0.930  24.330  0.00  0.00    +0.146 C 
BRANCH   4   3
ATOM      3  C   UNL     1      -0.229  -0.482  24.175  0.00  0.00    +0.166 C 
BRANCH   3   2
ATOM      1  C   UNL     1       0.817  -0.157  23.258  0.00  0.00    +0.174 C 
ATOM      2  O   UNL     1       0.279  -0.703  23.564  0.00  0.00    -0.349 OA
ENDBRANCH   3   2
ENDBRANCH   4   3
ENDBRANCH   5   4
ENDBRANCH   6   5
ENDBRANCH  12   7
BRANCH  15  17
ATOM     17  C   UNL     1      -3.498   2.098  23.982  0.00  0.00    +0.138 C 
ATOM     18  C   UNL     1      -3.093   2.394  23.328  0.00  0.00    +0.027 C 
ATOM     19  C   UNL     1      -3.513   3.044  23.042  0.00  0.00    +0.019 C 
ATOM     20  C   UNL     1      -4.178   3.149  23.519  0.00  0.00    +0.072 C 
ATOM     21  N   UNL     1      -4.169   2.565  24.100  0.00  0.00    -0.268 NA
BRANCH  21  22
ATOM     22  C   UNL     1      -4.731   2.463  24.695  0.00  0.00    +0.063 C 
ATOM     23  C   UNL     1      -4.647   2.862  25.413  0.00  0.00    +0.048 C 
ATOM     24  C   UNL     1      -5.209   2.761  26.009  0.00  0.00    +0.144 C 
ATOM     25  O   UNL     1      -5.854   2.261  25.887  0.00  0.00    -0.354 OA
ATOM     26  C   UNL     1      -5.938   1.863  25.170  0.00  0.00    +0.144 C 
ATOM     27  C   UNL     1      -5.376   1.964  24.574  0.00  0.00    +0.048 C 
ENDBRANCH  21  22
ENDBRANCH  15  17
TORSDOF 7
ENDMDL
MODEL 6
REMARK VINA RESULT:      -9.4      1.271      2.826
REMARK  Name = 
REMARK  7 active torsions:
REMARK  status: ('A' for Active; 'I' for Inactive)
REMARK    1  A    between atoms: O_2  and  C_3
REMARK    2  A    between atoms: C_3  and  C_4
REMARK    3  A    between atoms: C_4  and  N_5
REMARK    4  A    between atoms: N_5  and  C_6
REMARK    5  A    between atoms: C_7  and  C_12
REMARK    6  A    between atoms: C_15  and  C_17
REMARK    7  A    between atoms: N_21  and  C_22
REMARK                            x       y       z     vdW  Elec       q    Type
REMARK                         _______ _______ _______ _____ _____    ______ ____
ROOT
ATOM     12  C   UNL     1      -1.967   1.931  24.640  0.00  0.00    +0.206 A 
ATOM     13  N   UNL     1      -2.256   1.705  23.902  0.00  0.00    -0.056 NA
ATOM     14  O   UNL     1      -2.041   0.920  23.773  0.00  0.00    -0.336 OA
ATOM     15  C   UNL     1      -1.619   0.660  24.433  0.00  0.00    +0.251 A 
ATOM     16  N   UNL     1      -1.574   1.285  24.968  0.00  0.00    -0.190 NA
ENDROOT
BRANCH  12   7
ATOM      6  C   UNL     1      -2.811   2.976  25.130  0.00  0.00    +0.151 A 
ATOM      7  C   UNL     1      -2.057   2.673  24.989  0.00  0.00    +0.072 A 
ATOM      8  C   UNL     1      -1.391   3.114  25.198  0.00  0.00    +0.008 A 
ATOM      9  C   UNL     1      -1.480   3.857  25.547  0.00  0.00    +0.021 A 
ATOM     10  C   UNL     1      -2.235   4.158  25.688  0.00  0.00    +0.100 A 
ATOM     11  N   UNL     1      -2.900   3.718  25.479  0.00  0.00    -0.228 NA
BRANCH   6   5
ATOM      5  N   UNL     1      -3.477   2.535  24.921  0.00  0.00    -0.218 NA
BRANCH   5   4
ATOM      4  C   UNL     1      -4.227   2.784  25.158  0.00  0.00    +0.146 C 
BRANCH   4   3
ATOM      3  C   UNL     1      -4.900   2.433  24.832  0.00  0.00    +0.166 C 
BRANCH   3   2
ATOM      1  C   UNL     1      -6.226   1.928  24.999  0.00  0.00    +0.174 C 
ATOM      2  O   UNL     1      -5.509   2.176  25.325  0.00  0.00    -0.349 OA
ENDBRANCH   3   2
ENDBRANCH   4   3
ENDBRANCH   5   4
ENDBRANCH   6   5
ENDBRANCH  12   7
BRANCH  15  17
ATOM     17  C   UNL     1      -1.299  -0.093  24.537  0.00  0.00    +0.138 C 
ATOM     18  C   UNL     1      -0.503  -0.296  24.467  0.00  0.00    +0.027 C 
ATOM     19  C   UNL     1      -0.432  -1.105  24.617  0.00  0.00    +0.019 C 
ATOM     20  C   UNL     1      -1.185  -1.401  24.779  0.00  0.00    +0.072 C 
ATOM     21  N   UNL     1      -1.721  -0.777  24.730  0.00  0.00    -0.268 NA
BRANCH  21  22
ATOM     22  C   UNL     1      -2.535  -0.824  24.853  0.00  0.00    +0.063 C 
ATOM     23  C   UNL     1      -2.839  -0.779  25.619  0.00  0.00    +0.048 C 
ATOM     24  C   UNL     1      -3.654  -0.826  25.742  0.00  0.00    +0.144 C 
ATOM     25  O   UNL     1      -4.164  -0.920  25.099  0.00  0.00    -0.354 OA
ATOM     26  C   UNL     1      -3.859  -0.965  24.334  0.00  0.00    +0.144 C 
ATOM     27  C   UNL     1      -3.044  -0.917  24.211  0.00  0.00    +0.048 C 
ENDBRANCH  21  22
ENDBRANCH  15  17
TORSDOF 7
ENDMDL
MODEL 7
REMARK VINA RESULT:      -9.1      1.229      4.438
REMARK  Name = 
REMARK  7 active torsions:
REMARK  status: ('A' for Active; 'I' for Inactive)
REMARK    1  A    between atoms: O_2  and  C_3
REMARK    2  A    between atoms: C_3  and  C_4
REMARK    3  A    between atoms: C_4  and  N_5
REMARK    4  A    between atoms: N_5  and  C_6
REMARK    5  A    between atoms: C_7  and  C_12
REMARK    6  A    between atoms: C_15  and  C_17
REMARK    7  A    between atoms: N_21  and  C_22
REMARK                            x       y       z     vdW  Elec       q    Type
REMARK                         _______ _______ _______ _____ _____    ______ ____
ROOT
ATOM     12  C   UNL     1      -2.757   0.757  24.576  0.00  0.00    +0.206 A 
ATOM     13  N   UNL     1      -2.984   0.948  23.807  0.00  0.00    -0.056 NA
ATOM     14  O   UNL     1      -3.695   1.363  23.845  0.00  0.00    -0.336 OA
ATOM     15  C   UNL     1      -3.909   1.428  24.640  0.00  0.00    +0.251 A 
ATOM     16  N   UNL     1      -3.330   1.054  25.091  0.00  0.00    -0.190 NA
ENDROOT
BRANCH  12   7
ATOM      6  C   UNL     1      -2.103  -0.479  24.869  0.00  0.00    +0.151 A 
ATOM      7  C   UNL     1      -2.078   0.342  24.794  0.00  0.00    +0.072 A 
ATOM      8  C   UNL     1      -1.374   0.748  24.936  0.00  0.00    +0.008 A 
ATOM      9  C   UNL     1      -0.695   0.333  25.153  0.00  0.00    +0.021 A 
ATOM     10  C   UNL     1      -0.720  -0.488  25.228  0.00  0.00    +0.100 A 
ATOM     11  N   UNL     1      -1.423  -0.894  25.086  0.00  0.00    -0.228 NA
BRANCH   6   5
ATOM      5  N   UNL     1      -2.807  -0.885  24.727  0.00  0.00    -0.218 NA
BRANCH   5   4
ATOM      4  C   UNL     1      -2.817  -1.710  24.744  0.00  0.00    +0.146 C 
BRANCH   4   3
ATOM      3  C   UNL     1      -3.537  -2.114  24.706  0.00  0.00    +0.166 C 
BRANCH   3   2
ATOM      1  C   UNL     1      -4.293  -2.959  23.837  0.00  0.00    +0.174 C 
ATOM      2  O   UNL     1      -3.599  -2.802  24.255  0.00  0.00    -0.349 OA
ENDBRANCH   3   2
ENDBRANCH   4   3
ENDBRANCH   5   4
ENDBRANCH   6   5
ENDBRANCH  12   7
BRANCH  15  17
ATOM     17  C   UNL     1      -4.585   1.802  24.930  0.00  0.00    +0.138 C 
ATOM     18  C   UNL     1      -5.309   1.442  25.087  0.00  0.00    +0.027 C 
ATOM     19  C   UNL     1      -5.826   2.021  25.368  0.00  0.00    +0.019 C 
ATOM     20  C   UNL     1      -5.420   2.739  25.384  0.00  0.00    +0.072 C 
ATOM     21  N   UNL     1      -4.653   2.605  25.113  0.00  0.00    -0.268 NA
BRANCH  21  22
ATOM     22  C   UNL     1      -4.058   3.171  25.038  0.00  0.00    +0.063 C 
ATOM     23  C   UNL     1      -3.927   3.535  24.308  0.00  0.00    +0.048 C 
ATOM     24  C   UNL     1      -3.331   4.102  24.232  0.00  0.00    +0.144 C 
ATOM     25  O   UNL     1      -2.868   4.304  24.885  0.00  0.00    -0.354 OA
ATOM     26  C   UNL     1      -2.999   3.940  25.613  0.00  0.00    +0.144 C 
ATOM     27  C   UNL     1      -3.595   3.373  25.689  0.00  0.00    +0.048 C 
ENDBRANCH  21  22
ENDBRANCH  15  17
TORSDOF 7
ENDMDL
