REMARK  Name = 
REMARK  7 active torsions:
REMARK  status: ('A' for Active; 'I' for Inactive)
REMARK    1  A    between atoms: C_3  and  N_16
REMARK    2  A    between atoms: C_6  and  C_7
REMARK    3  A    between atoms: C_7  and  N_8
REMARK    4  A    between atoms: C_9  and  C_11
REMARK    5  A    between atoms: N_16  and  C_17
REMARK    6  A    between atoms: C_17  and  C_18
REMARK    7  A    between atoms: C_22  and  C_24
REMARK                            x       y       z     vdW  Elec       q    Type
REMARK                         _______ _______ _______ _____ _____    ______ ____
ROOT
ATOM      1  O   UNL     1       0.000  -1.650   0.000  0.00  0.00    -0.219 OA
ATOM      2  C   UNL     1       0.000  -2.475   0.000  0.00  0.00    +0.199 C 
ATOM      3  C   UNL     1       0.667  -2.960   0.000  0.00  0.00    +0.135 C 
ATOM      4  C   UNL     1       0.412  -3.744   0.000  0.00  0.00    +0.162 C 
ATOM      5  O   UNL     1      -0.412  -3.744   0.000  0.00  0.00    -0.350 OA
ATOM      6  C   UNL     1      -0.667  -2.960   0.000  0.00  0.00    +0.169 C 
ENDROOT
BRANCH   6   7
ATOM      7  C   UNL     1      -1.452  -2.705   0.000  0.00  0.00    +0.148 C 
BRANCH   7   8
ATOM      8  N   UNL     1      -2.065  -3.257   0.000  0.00  0.00    -0.199 NA
ATOM      9  C   UNL     1      -2.850  -3.002   0.000  0.00  0.00    +0.271 C 
ATOM     10  O   UNL     1      -3.021  -2.195   0.000  0.00  0.00    -0.268 OA
BRANCH   9  11
ATOM     11  C   UNL     1      -3.463  -3.554   0.000  0.00  0.00    +0.084 A 
ATOM     12  C   UNL     1      -3.377  -4.375   0.000  0.00  0.00    +0.012 A 
ATOM     13  C   UNL     1      -4.130  -4.710   0.000  0.00  0.00    +0.008 A 
ATOM     14  C   UNL     1      -4.682  -4.097   0.000  0.00  0.00    +0.036 A 
ATOM     15  S   UNL     1      -4.270  -3.383   0.000  0.00  0.00    -0.082 S 
ENDBRANCH   9  11
ENDBRANCH   7   8
ENDBRANCH   6   7
BRANCH   3  16
ATOM     16  N   UNL     1       1.452  -2.705   0.000  0.00  0.00    -0.209 NA
BRANCH  16  17
ATOM     17  C   UNL     1       2.065  -3.257   0.000  0.00  0.00    +0.115 C 
BRANCH  17  18
ATOM     18  C   UNL     1       2.850  -3.002   0.000  0.00  0.00    -0.004 A 
ATOM     19  C   UNL     1       3.021  -2.195   0.000  0.00  0.00    -0.003 A 
ATOM     20  C   UNL     1       3.806  -1.940   0.000  0.00  0.00    +0.000 A 
ATOM     21  C   UNL     1       4.419  -2.492   0.000  0.00  0.00    +0.010 A 
ATOM     22  C   UNL     1       4.247  -3.299   0.000  0.00  0.00    +0.068 A 
ATOM     23  C   UNL     1       3.463  -3.554   0.000  0.00  0.00    +0.007 A 
BRANCH  22  24
ATOM     24  C   UNL     1       4.861  -3.851   0.000  0.00  0.00    +0.100 C 
ATOM     25  N   UNL     1       5.474  -4.403   0.000  0.00  0.00    -0.191 NA
ENDBRANCH  22  24
ENDBRANCH  17  18
ENDBRANCH  16  17
ENDBRANCH   3  16
TORSDOF 7
