MODEL 1
REMARK VINA RESULT:     -11.0      0.000      0.000
REMARK  Name = 
REMARK  7 active torsions:
REMARK  status: ('A' for Active; 'I' for Inactive)
REMARK    1  A    between atoms: C_2  and  N_3
REMARK    2  A    between atoms: N_6  and  C_7
REMARK    3  A    between atoms: C_7  and  C_8
REMARK    4  A    between atoms: C_12  and  C_13
REMARK    5  A    between atoms: C_13  and  C_14
REMARK    6  A    between atoms: C_17  and  C_19
REMARK    7  A    between atoms: C_26  and  C_27
REMARK                            x       y       z     vdW  Elec       q    Type
REMARK                         _______ _______ _______ _____ _____    ______ ____
ROOT
ATOM      8  C   UNL     1      -4.014   0.793  24.235  0.00  0.00    +0.043 C 
ATOM      9  C   UNL     1      -4.631   0.935  24.763  0.00  0.00    -0.033 C 
ATOM     10  C   UNL     1      -4.762   1.698  25.050  0.00  0.00    -0.048 C 
ATOM     11  C   UNL     1      -5.379   1.840  25.578  0.00  0.00    +0.026 C 
ATOM     12  C   UNL     1      -4.274   2.318  24.809  0.00  0.00    +0.027 C 
ATOM     25  C   UNL     1      -3.656   2.175  24.280  0.00  0.00    +0.005 C 
ATOM     26  C   UNL     1      -3.526   1.413  23.994  0.00  0.00    +0.006 C 
ENDROOT
BRANCH  26  27
ATOM     27  C   UNL     1      -2.908   1.270  23.466  0.00  0.00    +0.000 C 
ATOM     28  C   UNL     1      -2.176   1.015  23.746  0.00  0.00    +0.000 C 
ATOM     29  C   UNL     1      -3.024   1.383  22.657  0.00  0.00    +0.000 C 
ENDBRANCH  26  27
BRANCH   8   7
ATOM      7  C   UNL     1      -3.883   0.030  23.949  0.00  0.00    +0.121 C 
BRANCH   7   6
ATOM      3  N   UNL     1      -3.803  -2.010  24.721  0.00  0.00    -0.187 NA
ATOM      4  C   UNL     1      -3.867  -1.378  24.195  0.00  0.00    +0.339 C 
ATOM      5  O   UNL     1      -3.977  -1.520  23.390  0.00  0.00    -0.249 OA
ATOM      6  N   UNL     1      -3.820  -0.602  24.475  0.00  0.00    -0.187 NA
BRANCH   3   2
ATOM      1  C   UNL     1      -3.405  -3.380  24.801  0.00  0.00    +0.025 C 
ATOM      2  C   UNL     1      -3.850  -2.785  24.441  0.00  0.00    +0.117 C 
ENDBRANCH   3   2
ENDBRANCH   7   6
ENDBRANCH   8   7
BRANCH  12  13
ATOM     13  C   UNL     1      -4.404   3.080  25.095  0.00  0.00    +0.091 C 
BRANCH  13  14
ATOM     14  C   UNL     1      -3.775   3.522  25.395  0.00  0.00    +0.227 A 
ATOM     15  N   UNL     1      -3.679   3.755  26.181  0.00  0.00    -0.111 NA
ATOM     16  N   UNL     1      -2.977   4.185  26.234  0.00  0.00    -0.107 NA
ATOM     17  C   UNL     1      -2.640   4.218  25.483  0.00  0.00    +0.250 A 
ATOM     18  O   UNL     1      -3.134   3.808  24.964  0.00  0.00    -0.420 OA
BRANCH  17  19
ATOM     19  C   UNL     1      -1.933   4.595  25.283  0.00  0.00    +0.058 A 
ATOM     20  C   UNL     1      -1.233   4.160  25.239  0.00  0.00    +0.025 A 
ATOM     21  C   UNL     1      -0.527   4.535  25.039  0.00  0.00    +0.099 A 
ATOM     22  N   UNL     1      -0.519   5.346  24.884  0.00  0.00    -0.242 NA
ATOM     23  C   UNL     1      -1.220   5.781  24.929  0.00  0.00    +0.099 A 
ATOM     24  C   UNL     1      -1.927   5.404  25.128  0.00  0.00    +0.025 A 
ENDBRANCH  17  19
ENDBRANCH  13  14
ENDBRANCH  12  13
TORSDOF 7
ENDMDL
MODEL 2
REMARK VINA RESULT:     -10.7      2.625      4.323
REMARK  Name = 
REMARK  7 active torsions:
REMARK  status: ('A' for Active; 'I' for Inactive)
REMARK    1  A    between atoms: C_2  and  N_3
REMARK    2  A    between atoms: N_6  and  C_7
REMARK    3  A    between atoms: C_7  and  C_8
REMARK    4  A    between atoms: C_12  and  C_13
REMARK    5  A    between atoms: C_13  and  C_14
REMARK    6  A    between atoms: C_17  and  C_19
REMARK    7  A    between atoms: C_26  and  C_27
REMARK                            x       y       z     vdW  Elec       q    Type
REMARK                         _______ _______ _______ _____ _____    ______ ____
ROOT
ATOM      8  C   UNL     1      -0.493   1.394  24.375  0.00  0.00    +0.043 C 
ATOM      9  C   UNL     1      -0.281   2.187  24.287  0.00  0.00    -0.033 C 
ATOM     10  C   UNL     1      -0.756   2.778  24.614  0.00  0.00    -0.048 C 
ATOM     11  C   UNL     1      -0.544   3.571  24.526  0.00  0.00    +0.026 C 
ATOM     12  C   UNL     1      -1.441   2.577  25.027  0.00  0.00    +0.027 C 
ATOM     25  C   UNL     1      -1.651   1.784  25.114  0.00  0.00    +0.005 C 
ATOM     26  C   UNL     1      -1.178   1.193  24.788  0.00  0.00    +0.006 C 
ENDROOT
BRANCH  26  27
ATOM     27  C   UNL     1      -1.388   0.400  24.875  0.00  0.00    +0.000 C 
ATOM     28  C   UNL     1      -1.133  -0.026  25.534  0.00  0.00    +0.000 C 
ATOM     29  C   UNL     1      -1.854   0.032  24.302  0.00  0.00    +0.000 C 
ENDBRANCH  26  27
BRANCH   8   7
ATOM      7  C   UNL     1      -0.018   0.802  24.049  0.00  0.00    +0.121 C 
BRANCH   7   6
ATOM      3  N   UNL     1       1.927   0.624  23.075  0.00  0.00    -0.187 NA
ATOM      4  C   UNL     1       1.160   0.448  23.322  0.00  0.00    +0.339 C 
ATOM      5  O   UNL     1       0.804  -0.259  23.090  0.00  0.00    -0.249 OA
ATOM      6  N   UNL     1       0.749   0.979  23.802  0.00  0.00    -0.187 NA
BRANCH   3   2
ATOM      1  C   UNL     1       3.107   0.268  22.352  0.00  0.00    +0.025 C 
ATOM      2  C   UNL     1       2.338   0.093  22.595  0.00  0.00    +0.117 C 
ENDBRANCH   3   2
ENDBRANCH   7   6
ENDBRANCH   8   7
BRANCH  12  13
ATOM     13  C   UNL     1      -1.914   3.168  25.353  0.00  0.00    +0.091 C 
BRANCH  13  14
ATOM     14  C   UNL     1      -2.708   3.227  25.137  0.00  0.00    +0.227 A 
ATOM     15  N   UNL     1      -3.020   3.747  24.577  0.00  0.00    -0.111 NA
ATOM     16  N   UNL     1      -3.834   3.619  24.536  0.00  0.00    -0.107 NA
ATOM     17  C   UNL     1      -4.025   3.021  25.070  0.00  0.00    +0.250 A 
ATOM     18  O   UNL     1      -3.329   2.779  25.441  0.00  0.00    -0.420 OA
BRANCH  17  19
ATOM     19  C   UNL     1      -4.780   2.716  25.210  0.00  0.00    +0.058 A 
ATOM     20  C   UNL     1      -5.092   2.143  24.705  0.00  0.00    +0.025 A 
ATOM     21  C   UNL     1      -5.846   1.838  24.844  0.00  0.00    +0.099 A 
ATOM     22  N   UNL     1      -6.288   2.108  25.487  0.00  0.00    -0.242 NA
ATOM     23  C   UNL     1      -5.975   2.681  25.991  0.00  0.00    +0.099 A 
ATOM     24  C   UNL     1      -5.221   2.986  25.852  0.00  0.00    +0.025 A 
ENDBRANCH  17  19
ENDBRANCH  13  14
ENDBRANCH  12  13
TORSDOF 7
ENDMDL
MODEL 3
REMARK VINA RESULT:     -10.1      2.808      4.670
REMARK  Name = 
REMARK  7 active torsions:
REMARK  status: ('A' for Active; 'I' for Inactive)
REMARK    1  A    between atoms: C_2  and  N_3
REMARK    2  A    between atoms: N_6  and  C_7
REMARK    3  A    between atoms: C_7  and  C_8
REMARK    4  A    between atoms: C_12  and  C_13
REMARK    5  A    between atoms: C_13  and  C_14
REMARK    6  A    between atoms: C_17  and  C_19
REMARK    7  A    between atoms: C_26  and  C_27
REMARK                            x       y       z     vdW  Elec       q    Type
REMARK                         _______ _______ _______ _____ _____    ______ ____
ROOT
ATOM      8  C   UNL     1      -0.415   0.625  24.310  0.00  0.00    +0.043 C 
ATOM      9  C   UNL     1      -0.631  -0.168  24.246  0.00  0.00    -0.033 C 
ATOM     10  C   UNL     1      -1.363  -0.421  24.533  0.00  0.00    -0.048 C 
ATOM     11  C   UNL     1      -1.580  -1.214  24.469  0.00  0.00    +0.026 C 
ATOM     12  C   UNL     1      -1.878   0.121  24.884  0.00  0.00    +0.027 C 
ATOM     25  C   UNL     1      -1.661   0.914  24.947  0.00  0.00    +0.005 C 
ATOM     26  C   UNL     1      -0.930   1.166  24.661  0.00  0.00    +0.006 C 
ENDROOT
BRANCH  26  27
ATOM     27  C   UNL     1      -0.713   1.960  24.725  0.00  0.00    +0.000 C 
ATOM     28  C   UNL     1      -0.887   2.486  24.115  0.00  0.00    +0.000 C 
ATOM     29  C   UNL     1      -0.321   2.227  25.400  0.00  0.00    +0.000 C 
ENDBRANCH  26  27
BRANCH   8   7
ATOM      7  C   UNL     1       0.317   0.878  24.024  0.00  0.00    +0.121 C 
BRANCH   7   6
ATOM      3  N   UNL     1       1.934   0.124  22.766  0.00  0.00    -0.187 NA
ATOM      4  C   UNL     1       1.515   0.595  23.299  0.00  0.00    +0.339 C 
ATOM      5  O   UNL     1       1.876   1.255  23.638  0.00  0.00    -0.249 OA
ATOM      6  N   UNL     1       0.735   0.406  23.491  0.00  0.00    -0.187 NA
BRANCH   3   2
ATOM      1  C   UNL     1       3.049   0.019  21.880  0.00  0.00    +0.025 C 
ATOM      2  C   UNL     1       2.714   0.313  22.574  0.00  0.00    +0.117 C 
ENDBRANCH   3   2
ENDBRANCH   7   6
ENDBRANCH   8   7
BRANCH  12  13
ATOM     13  C   UNL     1      -2.609  -0.132  25.170  0.00  0.00    +0.091 C 
BRANCH  13  14
ATOM     14  C   UNL     1      -3.298   0.266  24.951  0.00  0.00    +0.227 A 
ATOM     15  N   UNL     1      -3.769   0.093  24.295  0.00  0.00    -0.111 NA
ATOM     16  N   UNL     1      -4.399   0.625  24.288  0.00  0.00    -0.107 NA
ATOM     17  C   UNL     1      -4.318   1.126  24.938  0.00  0.00    +0.250 A 
ATOM     18  O   UNL     1      -3.637   0.904  25.347  0.00  0.00    -0.420 OA
BRANCH  17  19
ATOM     19  C   UNL     1      -4.827   1.742  25.143  0.00  0.00    +0.058 A 
ATOM     20  C   UNL     1      -4.613   2.524  24.987  0.00  0.00    +0.025 A 
ATOM     21  C   UNL     1      -5.121   3.140  25.191  0.00  0.00    +0.099 A 
ATOM     22  N   UNL     1      -5.845   2.975  25.553  0.00  0.00    -0.242 NA
ATOM     23  C   UNL     1      -6.059   2.193  25.709  0.00  0.00    +0.099 A 
ATOM     24  C   UNL     1      -5.550   1.577  25.504  0.00  0.00    +0.025 A 
ENDBRANCH  17  19
ENDBRANCH  13  14
ENDBRANCH  12  13
TORSDOF 7
ENDMDL
MODEL 4
REMARK VINA RESULT:      -9.6      2.527      5.327
REMARK  Name = 
REMARK  7 active torsions:
REMARK  status: ('A' for Active; 'I' for Inactive)
REMARK    1  A    between atoms: C_2  and  N_3
REMARK    2  A    between atoms: N_6  and  C_7
REMARK    3  A    between atoms: C_7  and  C_8
REMARK    4  A    between atoms: C_12  and  C_13
REMARK    5  A    between atoms: C_13  and  C_14
REMARK    6  A    between atoms: C_17  and  C_19
REMARK    7  A    between atoms: C_26  and  C_27
REMARK                            x       y       z     vdW  Elec       q    Type
REMARK                         _______ _______ _______ _____ _____    ______ ____
ROOT
ATOM      8  C   UNL     1      -0.751   1.595  24.163  0.00  0.00    +0.043 C 
ATOM      9  C   UNL     1      -1.132   1.628  23.432  0.00  0.00    -0.033 C 
ATOM     10  C   UNL     1      -1.956   1.597  23.395  0.00  0.00    -0.048 C 
ATOM     11  C   UNL     1      -2.337   1.631  22.664  0.00  0.00    +0.026 C 
ATOM     12  C   UNL     1      -2.399   1.532  24.088  0.00  0.00    +0.027 C 
ATOM     25  C   UNL     1      -2.017   1.498  24.819  0.00  0.00    +0.005 C 
ATOM     26  C   UNL     1      -1.194   1.530  24.857  0.00  0.00    +0.006 C 
ENDROOT
BRANCH  26  27
ATOM     27  C   UNL     1      -0.812   1.496  25.587  0.00  0.00    +0.000 C 
ATOM     28  C   UNL     1      -0.598   2.192  25.974  0.00  0.00    +0.000 C 
ATOM     29  C   UNL     1      -0.644   0.765  25.931  0.00  0.00    +0.000 C 
ENDBRANCH  26  27
BRANCH   8   7
ATOM      7  C   UNL     1       0.073   1.626  24.201  0.00  0.00    +0.121 C 
BRANCH   7   6
ATOM      3  N   UNL     1       1.777   0.760  23.148  0.00  0.00    -0.187 NA
ATOM      4  C   UNL     1       1.324   1.274  23.607  0.00  0.00    +0.339 C 
ATOM      5  O   UNL     1       1.668   1.950  23.930  0.00  0.00    -0.249 OA
ATOM      6  N   UNL     1       0.526   1.112  23.742  0.00  0.00    -0.187 NA
BRANCH   3   2
ATOM      1  C   UNL     1       3.031   0.400  22.565  0.00  0.00    +0.025 C 
ATOM      2  C   UNL     1       2.575   0.922  23.012  0.00  0.00    +0.117 C 
ENDBRANCH   3   2
ENDBRANCH   7   6
ENDBRANCH   8   7
BRANCH  12  13
ATOM     13  C   UNL     1      -3.221   1.501  24.051  0.00  0.00    +0.091 C 
BRANCH  13  14
ATOM     14  C   UNL     1      -3.621   0.821  24.295  0.00  0.00    +0.227 A 
ATOM     15  N   UNL     1      -4.310   0.802  24.750  0.00  0.00    -0.111 NA
ATOM     16  N   UNL     1      -4.516   0.011  24.864  0.00  0.00    -0.107 NA
ATOM     17  C   UNL     1      -3.956  -0.457  24.481  0.00  0.00    +0.250 A 
ATOM     18  O   UNL     1      -3.403   0.044  24.130  0.00  0.00    -0.420 OA
BRANCH  17  19
ATOM     19  C   UNL     1      -3.949  -1.282  24.454  0.00  0.00    +0.058 A 
ATOM     20  C   UNL     1      -3.579  -1.711  25.054  0.00  0.00    +0.025 A 
ATOM     21  C   UNL     1      -3.572  -2.535  25.027  0.00  0.00    +0.099 A 
ATOM     22  N   UNL     1      -3.935  -2.931  24.400  0.00  0.00    -0.242 NA
ATOM     23  C   UNL     1      -4.305  -2.502  23.800  0.00  0.00    +0.099 A 
ATOM     24  C   UNL     1      -4.312  -1.677  23.827  0.00  0.00    +0.025 A 
ENDBRANCH  17  19
ENDBRANCH  13  14
ENDBRANCH  12  13
TORSDOF 7
ENDMDL
MODEL 5
REMARK VINA RESULT:      -9.2      1.084      5.544
REMARK  Name = 
REMARK  7 active torsions:
REMARK  status: ('A' for Active; 'I' for Inactive)
REMARK    1  A    between atoms: C_2  and  N_3
REMARK    2  A    between atoms: N_6  and  C_7
REMARK    3  A    between atoms: C_7  and  C_8
REMARK    4  A    between atoms: C_12  and  C_13
REMARK    5  A    between atoms: C_13  and  C_14
REMARK    6  A    between atoms: C_17  and  C_19
REMARK    7  A    between atoms: C_26  and  C_27
REMARK                            x       y       z     vdW  Elec       q    Type
REMARK                         _______ _______ _______ _____ _____    ______ ____
ROOT
ATOM      8  C   UNL     1      -2.755   2.485  24.361  0.00  0.00    +0.043 C 
ATOM      9  C   UNL     1      -3.420   2.663  24.815  0.00  0.00    -0.033 C 
ATOM     10  C   UNL     1      -4.016   2.101  24.912  0.00  0.00    -0.048 C 
ATOM     11  C   UNL     1      -4.681   2.279  25.366  0.00  0.00    +0.026 C 
ATOM     12  C   UNL     1      -3.947   1.360  24.554  0.00  0.00    +0.027 C 
ATOM     25  C   UNL     1      -3.282   1.183  24.100  0.00  0.00    +0.005 C 
ATOM     26  C   UNL     1      -2.686   1.744  24.003  0.00  0.00    +0.006 C 
ENDROOT
BRANCH  26  27
ATOM     27  C   UNL     1      -2.020   1.567  23.549  0.00  0.00    +0.000 C 
ATOM     28  C   UNL     1      -1.356   1.230  23.903  0.00  0.00    +0.000 C 
ATOM     29  C   UNL     1      -2.020   1.726  22.739  0.00  0.00    +0.000 C 
ENDBRANCH  26  27
BRANCH   8   7
ATOM      7  C   UNL     1      -2.158   3.047  24.264  0.00  0.00    +0.121 C 
BRANCH   7   6
ATOM      3  N   UNL     1      -1.649   5.036  25.004  0.00  0.00    -0.187 NA
ATOM      4  C   UNL     1      -1.579   4.296  24.646  0.00  0.00    +0.339 C 
ATOM      5  O   UNL     1      -0.861   4.066  24.311  0.00  0.00    -0.249 OA
ATOM      6  N   UNL     1      -2.228   3.787  24.622  0.00  0.00    -0.187 NA
BRANCH   3   2
ATOM      1  C   UNL     1      -1.115   6.362  24.997  0.00  0.00    +0.025 C 
ATOM      2  C   UNL     1      -1.000   5.546  25.027  0.00  0.00    +0.117 C 
ENDBRANCH   3   2
ENDBRANCH   7   6
ENDBRANCH   8   7
BRANCH  12  13
ATOM     13  C   UNL     1      -4.543   0.799  24.650  0.00  0.00    +0.091 C 
BRANCH  13  14
ATOM     14  C   UNL     1      -4.353   0.030  24.881  0.00  0.00    +0.227 A 
ATOM     15  N   UNL     1      -4.265  -0.235  25.658  0.00  0.00    -0.111 NA
ATOM     16  N   UNL     1      -4.075  -1.038  25.633  0.00  0.00    -0.107 NA
ATOM     17  C   UNL     1      -4.045  -1.268  24.842  0.00  0.00    +0.250 A 
ATOM     18  O   UNL     1      -4.217  -0.608  24.377  0.00  0.00    -0.420 OA
BRANCH  17  19
ATOM     19  C   UNL     1      -3.874  -2.026  24.563  0.00  0.00    +0.058 A 
ATOM     20  C   UNL     1      -4.255  -2.313  23.889  0.00  0.00    +0.025 A 
ATOM     21  C   UNL     1      -4.084  -3.070  23.610  0.00  0.00    +0.099 A 
ATOM     22  N   UNL     1      -3.532  -3.540  24.003  0.00  0.00    -0.242 NA
ATOM     23  C   UNL     1      -3.150  -3.253  24.677  0.00  0.00    +0.099 A 
ATOM     24  C   UNL     1      -3.322  -2.495  24.956  0.00  0.00    +0.025 A 
ENDBRANCH  17  19
ENDBRANCH  13  14
ENDBRANCH  12  13
TORSDOF 7
ENDMDL
MODEL 6
REMARK VINA RESULT:      -9.2      2.592      5.053
REMARK  Name = 
REMARK  7 active torsions:
REMARK  status: ('A' for Active; 'I' for Inactive)
REMARK    1  A    between atoms: C_2  and  N_3
REMARK    2  A    between atoms: N_6  and  C_7
REMARK    3  A    between atoms: C_7  and  C_8
REMARK    4  A    between atoms: C_12  and  C_13
REMARK    5  A    between atoms: C_13  and  C_14
REMARK    6  A    between atoms: C_17  and  C_19
REMARK    7  A    between atoms: C_26  and  C_27
REMARK                            x       y       z     vdW  Elec       q    Type
REMARK                         _______ _______ _______ _____ _____    ______ ____
ROOT
ATOM      8  C   UNL     1      -0.461   2.212  25.837  0.00  0.00    +0.043 C 
ATOM      9  C   UNL     1      -0.596   1.401  25.904  0.00  0.00    -0.033 C 
ATOM     10  C   UNL     1      -1.132   1.030  25.398  0.00  0.00    -0.048 C 
ATOM     11  C   UNL     1      -1.267   0.219  25.465  0.00  0.00    +0.026 C 
ATOM     12  C   UNL     1      -1.532   1.469  24.826  0.00  0.00    +0.027 C 
ATOM     25  C   UNL     1      -1.396   2.280  24.759  0.00  0.00    +0.005 C 
ATOM     26  C   UNL     1      -0.861   2.652  25.264  0.00  0.00    +0.006 C 
ENDROOT
BRANCH  26  27
ATOM     27  C   UNL     1      -0.725   3.463  25.198  0.00  0.00    +0.000 C 
ATOM     28  C   UNL     1      -0.124   3.742  24.708  0.00  0.00    +0.000 C 
ATOM     29  C   UNL     1      -1.190   3.995  25.623  0.00  0.00    +0.000 C 
ENDBRANCH  26  27
BRANCH   8   7
ATOM      7  C   UNL     1       0.076   2.584  26.342  0.00  0.00    +0.121 C 
BRANCH   7   6
ATOM      3  N   UNL     1       0.831   2.321  28.373  0.00  0.00    -0.187 NA
ATOM      4  C   UNL     1       0.787   2.548  27.581  0.00  0.00    +0.339 C 
ATOM      5  O   UNL     1       1.410   2.965  27.236  0.00  0.00    -0.249 OA
ATOM      6  N   UNL     1       0.120   2.357  27.134  0.00  0.00    -0.187 NA
BRANCH   3   2
ATOM      1  C   UNL     1       1.509   2.360  29.630  0.00  0.00    +0.025 C 
ATOM      2  C   UNL     1       1.499   2.512  28.820  0.00  0.00    +0.117 C 
ENDBRANCH   3   2
ENDBRANCH   7   6
ENDBRANCH   8   7
BRANCH  12  13
ATOM     13  C   UNL     1      -2.068   1.098  24.321  0.00  0.00    +0.091 C 
BRANCH  13  14
ATOM     14  C   UNL     1      -2.817   1.422  24.201  0.00  0.00    +0.227 A 
ATOM     15  N   UNL     1      -3.109   1.716  23.487  0.00  0.00    -0.111 NA
ATOM     16  N   UNL     1      -3.877   1.986  23.619  0.00  0.00    -0.107 NA
ATOM     17  C   UNL     1      -4.060   1.859  24.413  0.00  0.00    +0.250 A 
ATOM     18  O   UNL     1      -3.404   1.511  24.772  0.00  0.00    -0.420 OA
BRANCH  17  19
ATOM     19  C   UNL     1      -4.773   2.047  24.783  0.00  0.00    +0.058 A 
ATOM     20  C   UNL     1      -4.879   2.794  25.118  0.00  0.00    +0.025 A 
ATOM     21  C   UNL     1      -5.591   2.983  25.488  0.00  0.00    +0.099 A 
ATOM     22  N   UNL     1      -6.198   2.425  25.524  0.00  0.00    -0.242 NA
ATOM     23  C   UNL     1      -6.092   1.678  25.189  0.00  0.00    +0.099 A 
ATOM     24  C   UNL     1      -5.379   1.489  24.819  0.00  0.00    +0.025 A 
ENDBRANCH  17  19
ENDBRANCH  13  14
ENDBRANCH  12  13
TORSDOF 7
ENDMDL
MODEL 7
REMARK VINA RESULT:      -9.1      1.436      2.328
REMARK  Name = 
REMARK  7 active torsions:
REMARK  status: ('A' for Active; 'I' for Inactive)
REMARK    1  A    between atoms: C_2  and  N_3
REMARK    2  A    between atoms: N_6  and  C_7
REMARK    3  A    between atoms: C_7  and  C_8
REMARK    4  A    between atoms: C_12  and  C_13
REMARK    5  A    between atoms: C_13  and  C_14
REMARK    6  A    between atoms: C_17  and  C_19
REMARK    7  A    between atoms: C_26  and  C_27
REMARK                            x       y       z     vdW  Elec       q    Type
REMARK                         _______ _______ _______ _____ _____    ______ ____
ROOT
ATOM      8  C   UNL     1      -2.549  -0.121  24.502  0.00  0.00    +0.043 C 
ATOM      9  C   UNL     1      -1.815  -0.471  24.643  0.00  0.00    -0.033 C 
ATOM     10  C   UNL     1      -1.148   0.002  24.753  0.00  0.00    -0.048 C 
ATOM     11  C   UNL     1      -0.414  -0.348  24.894  0.00  0.00    +0.026 C 
ATOM     12  C   UNL     1      -1.215   0.824  24.722  0.00  0.00    +0.027 C 
ATOM     25  C   UNL     1      -1.949   1.172  24.581  0.00  0.00    +0.005 C 
ATOM     26  C   UNL     1      -2.616   0.700  24.471  0.00  0.00    +0.006 C 
ENDROOT
BRANCH  26  27
ATOM     27  C   UNL     1      -3.350   1.049  24.330  0.00  0.00    +0.000 C 
ATOM     28  C   UNL     1      -3.880   1.162  24.952  0.00  0.00    +0.000 C 
ATOM     29  C   UNL     1      -3.555   1.285  23.567  0.00  0.00    +0.000 C 
ENDBRANCH  26  27
BRANCH   8   7
ATOM      7  C   UNL     1      -3.217  -0.594  24.392  0.00  0.00    +0.121 C 
BRANCH   7   6
ATOM      3  N   UNL     1      -3.696  -2.720  24.272  0.00  0.00    -0.187 NA
ATOM      4  C   UNL     1      -3.751  -1.903  24.179  0.00  0.00    +0.339 C 
ATOM      5  O   UNL     1      -4.394  -1.575  23.778  0.00  0.00    -0.249 OA
ATOM      6  N   UNL     1      -3.162  -1.412  24.486  0.00  0.00    -0.187 NA
BRANCH   3   2
ATOM      1  C   UNL     1      -4.121  -4.004  23.810  0.00  0.00    +0.025 C 
ATOM      2  C   UNL     1      -4.285  -3.211  23.965  0.00  0.00    +0.117 C 
ENDBRANCH   3   2
ENDBRANCH   7   6
ENDBRANCH   8   7
BRANCH  12  13
ATOM     13  C   UNL     1      -0.548   1.296  24.832  0.00  0.00    +0.091 C 
BRANCH  13  14
ATOM     14  C   UNL     1      -0.619   2.036  25.191  0.00  0.00    +0.227 A 
ATOM     15  N   UNL     1      -0.466   2.206  25.984  0.00  0.00    -0.111 NA
ATOM     16  N   UNL     1      -0.609   3.010  26.103  0.00  0.00    -0.107 NA
ATOM     17  C   UNL     1      -0.850   3.335  25.385  0.00  0.00    +0.250 A 
ATOM     18  O   UNL     1      -0.857   2.733  24.821  0.00  0.00    -0.420 OA
BRANCH  17  19
ATOM     19  C   UNL     1      -1.050   4.125  25.252  0.00  0.00    +0.058 A 
ATOM     20  C   UNL     1      -1.779   4.415  25.511  0.00  0.00    +0.025 A 
ATOM     21  C   UNL     1      -1.979   5.203  25.379  0.00  0.00    +0.099 A 
ATOM     22  N   UNL     1      -1.452   5.704  24.988  0.00  0.00    -0.242 NA
ATOM     23  C   UNL     1      -0.723   5.414  24.729  0.00  0.00    +0.099 A 
ATOM     24  C   UNL     1      -0.523   4.624  24.862  0.00  0.00    +0.025 A 
ENDBRANCH  17  19
ENDBRANCH  13  14
ENDBRANCH  12  13
TORSDOF 7
ENDMDL
