MODEL 1
REMARK VINA RESULT:     -10.5      0.000      0.000
REMARK  Name = 
REMARK  3 active torsions:
REMARK  status: ('A' for Active; 'I' for Inactive)
REMARK    1  A    between atoms: C_4  and  O_5
REMARK    2  A    between atoms: O_5  and  C_6
REMARK    3  A    between atoms: C_13  and  C_15
REMARK                            x       y       z     vdW  Elec       q    Type
REMARK                         _______ _______ _______ _____ _____    ______ ____
ROOT
ATOM      6  C   UNL     1      -2.876   0.849  24.690  0.00  0.00    +0.217 C 
ATOM      7  C   UNL     1      -2.166   0.703  24.297  0.00  0.00    +0.187 C 
ATOM      8  O   UNL     1      -1.793   1.161  23.721  0.00  0.00    -0.348 OA
ATOM      9  C   UNL     1      -2.039   1.878  23.396  0.00  0.00    +0.164 C 
ATOM     10  C   UNL     1      -2.718   2.315  23.566  0.00  0.00    +0.126 C 
ATOM     11  N   UNL     1      -3.319   2.142  24.104  0.00  0.00    -0.270 N 
ATOM     12  C   UNL     1      -3.389   1.490  24.604  0.00  0.00    +0.140 C 
ATOM     13  C   UNL     1      -3.930   2.694  24.147  0.00  0.00    +0.252 C 
ATOM     14  O   UNL     1      -3.913   3.367  23.669  0.00  0.00    -0.270 OA
ENDROOT
BRANCH  13  15
ATOM     15  C   UNL     1      -4.559   2.573  24.667  0.00  0.00    +0.092 A 
ATOM     16  C   UNL     1      -5.217   2.139  24.426  0.00  0.00    +0.107 A 
ATOM     17  N   UNL     1      -5.846   2.019  24.946  0.00  0.00    -0.222 NA
ATOM     18  C   UNL     1      -5.816   2.332  25.708  0.00  0.00    +0.199 A 
ATOM     19  N   UNL     1      -5.158   2.766  25.950  0.00  0.00    -0.222 NA
ATOM     20  C   UNL     1      -4.529   2.887  25.430  0.00  0.00    +0.107 A 
ENDBRANCH  13  15
BRANCH   6   5
ATOM      5  O   UNL     1      -3.104   0.280  25.242  0.00  0.00    -0.460 OA
BRANCH   5   4
ATOM      1  C   UNL     1      -4.394  -1.886  23.896  0.00  0.00    +0.052 C 
ATOM      2  C   UNL     1      -3.771  -1.599  24.354  0.00  0.00    +0.062 A 
ATOM      3  N   UNL     1      -3.748  -0.803  24.569  0.00  0.00    -0.216 NA
ATOM      4  C   UNL     1      -3.126  -0.517  25.027  0.00  0.00    +0.225 A 
ATOM     21  C   UNL     1      -2.525  -1.026  25.271  0.00  0.00    +0.058 A 
ATOM     22  C   UNL     1      -2.547  -1.823  25.057  0.00  0.00    +0.006 A 
ATOM     23  C   UNL     1      -3.169  -2.109  24.599  0.00  0.00    +0.015 A 
ENDBRANCH   5   4
ENDBRANCH   6   5
TORSDOF 3
ENDMDL
MODEL 2
REMARK VINA RESULT:     -10.3      1.786      3.003
REMARK  Name = 
REMARK  3 active torsions:
REMARK  status: ('A' for Active; 'I' for Inactive)
REMARK    1  A    between atoms: C_4  and  O_5
REMARK    2  A    between atoms: O_5  and  C_6
REMARK    3  A    between atoms: C_13  and  C_15
REMARK                            x       y       z     vdW  Elec       q    Type
REMARK                         _______ _______ _______ _____ _____    ______ ____
ROOT
ATOM      6  C   UNL     1      -3.269   1.716  24.463  0.00  0.00    +0.217 C 
ATOM      7  C   UNL     1      -4.085   1.827  24.442  0.00  0.00    +0.187 C 
ATOM      8  O   UNL     1      -4.526   2.462  24.729  0.00  0.00    -0.348 OA
ATOM      9  C   UNL     1      -4.258   3.145  25.108  0.00  0.00    +0.164 C 
ATOM     10  C   UNL     1      -3.483   3.360  25.294  0.00  0.00    +0.126 C 
ATOM     11  N   UNL     1      -2.785   2.945  25.146  0.00  0.00    -0.270 N 
ATOM     12  C   UNL     1      -2.690   2.214  24.776  0.00  0.00    +0.140 C 
ATOM     13  C   UNL     1      -2.091   3.310  25.401  0.00  0.00    +0.252 C 
ATOM     14  O   UNL     1      -2.126   4.044  25.778  0.00  0.00    -0.270 OA
ENDROOT
BRANCH  13  15
ATOM     15  C   UNL     1      -1.363   2.943  25.281  0.00  0.00    +0.092 A 
ATOM     16  C   UNL     1      -1.028   2.484  25.879  0.00  0.00    +0.107 A 
ATOM     17  N   UNL     1      -0.300   2.116  25.758  0.00  0.00    -0.222 NA
ATOM     18  C   UNL     1       0.094   2.207  25.039  0.00  0.00    +0.199 A 
ATOM     19  N   UNL     1      -0.241   2.666  24.441  0.00  0.00    -0.222 NA
ATOM     20  C   UNL     1      -0.969   3.034  24.562  0.00  0.00    +0.107 A 
ENDBRANCH  13  15
BRANCH   6   5
ATOM      5  O   UNL     1      -2.993   1.015  24.126  0.00  0.00    -0.460 OA
BRANCH   5   4
ATOM      1  C   UNL     1      -3.042  -1.147  25.994  0.00  0.00    +0.052 C 
ATOM      2  C   UNL     1      -3.326  -0.790  25.307  0.00  0.00    +0.062 A 
ATOM      3  N   UNL     1      -3.018  -0.066  25.060  0.00  0.00    -0.216 NA
ATOM      4  C   UNL     1      -3.302   0.290  24.373  0.00  0.00    +0.225 A 
ATOM     21  C   UNL     1      -3.894  -0.076  23.932  0.00  0.00    +0.058 A 
ATOM     22  C   UNL     1      -4.203  -0.801  24.179  0.00  0.00    +0.006 A 
ATOM     23  C   UNL     1      -3.919  -1.158  24.866  0.00  0.00    +0.015 A 
ENDBRANCH   5   4
ENDBRANCH   6   5
TORSDOF 3
ENDMDL
MODEL 3
REMARK VINA RESULT:     -10.2      1.525      4.193
REMARK  Name = 
REMARK  3 active torsions:
REMARK  status: ('A' for Active; 'I' for Inactive)
REMARK    1  A    between atoms: C_4  and  O_5
REMARK    2  A    between atoms: O_5  and  C_6
REMARK    3  A    between atoms: C_13  and  C_15
REMARK                            x       y       z     vdW  Elec       q    Type
REMARK                         _______ _______ _______ _____ _____    ______ ____
ROOT
ATOM      6  C   UNL     1      -3.405   0.526  24.749  0.00  0.00    +0.217 C 
ATOM      7  C   UNL     1      -4.063   0.075  24.957  0.00  0.00    +0.187 C 
ATOM      8  O   UNL     1      -4.090  -0.633  25.379  0.00  0.00    -0.348 OA
ATOM      9  C   UNL     1      -3.464  -1.065  25.698  0.00  0.00    +0.164 C 
ATOM     10  C   UNL     1      -2.657  -0.897  25.673  0.00  0.00    +0.126 C 
ATOM     11  N   UNL     1      -2.277  -0.253  25.324  0.00  0.00    -0.270 N 
ATOM     12  C   UNL     1      -2.609   0.379  24.913  0.00  0.00    +0.140 C 
ATOM     13  C   UNL     1      -1.455  -0.241  25.395  0.00  0.00    +0.252 C 
ATOM     14  O   UNL     1      -1.067  -0.850  25.796  0.00  0.00    -0.270 OA
ENDROOT
BRANCH  13  15
ATOM     15  C   UNL     1      -1.021   0.378  25.065  0.00  0.00    +0.092 A 
ATOM     16  C   UNL     1      -0.818   1.031  25.526  0.00  0.00    +0.107 A 
ATOM     17  N   UNL     1      -0.384   1.650  25.196  0.00  0.00    -0.222 NA
ATOM     18  C   UNL     1      -0.153   1.616  24.405  0.00  0.00    +0.199 A 
ATOM     19  N   UNL     1      -0.356   0.963  23.944  0.00  0.00    -0.222 NA
ATOM     20  C   UNL     1      -0.790   0.344  24.274  0.00  0.00    +0.107 A 
ENDBRANCH  13  15
BRANCH   6   5
ATOM      5  O   UNL     1      -3.561   1.214  24.322  0.00  0.00    -0.460 OA
BRANCH   5   4
ATOM      1  C   UNL     1      -3.829   3.681  25.739  0.00  0.00    +0.052 C 
ATOM      2  C   UNL     1      -4.172   3.035  25.357  0.00  0.00    +0.062 A 
ATOM      3  N   UNL     1      -3.696   2.447  25.030  0.00  0.00    -0.216 NA
ATOM      4  C   UNL     1      -4.039   1.802  24.649  0.00  0.00    +0.225 A 
ATOM     21  C   UNL     1      -4.860   1.744  24.593  0.00  0.00    +0.058 A 
ATOM     22  C   UNL     1      -5.338   2.333  24.920  0.00  0.00    +0.006 A 
ATOM     23  C   UNL     1      -4.994   2.978  25.302  0.00  0.00    +0.015 A 
ENDBRANCH   5   4
ENDBRANCH   6   5
TORSDOF 3
ENDMDL
MODEL 4
REMARK VINA RESULT:     -10.1      1.208      3.815
REMARK  Name = 
REMARK  3 active torsions:
REMARK  status: ('A' for Active; 'I' for Inactive)
REMARK    1  A    between atoms: C_4  and  O_5
REMARK    2  A    between atoms: O_5  and  C_6
REMARK    3  A    between atoms: C_13  and  C_15
REMARK                            x       y       z     vdW  Elec       q    Type
REMARK                         _______ _______ _______ _____ _____    ______ ____
ROOT
ATOM      6  C   UNL     1      -2.376   1.041  24.418  0.00  0.00    +0.217 C 
ATOM      7  C   UNL     1      -1.915   1.721  24.480  0.00  0.00    +0.187 C 
ATOM      8  O   UNL     1      -1.215   1.832  24.902  0.00  0.00    -0.348 OA
ATOM      9  C   UNL     1      -0.804   1.288  25.368  0.00  0.00    +0.164 C 
ATOM     10  C   UNL     1      -0.991   0.501  25.525  0.00  0.00    +0.126 C 
ATOM     11  N   UNL     1      -1.636   0.062  25.256  0.00  0.00    -0.270 N 
ATOM     12  C   UNL     1      -2.252   0.302  24.763  0.00  0.00    +0.140 C 
ATOM     13  C   UNL     1      -1.669  -0.721  25.514  0.00  0.00    +0.252 C 
ATOM     14  O   UNL     1      -1.078  -1.017  26.009  0.00  0.00    -0.270 OA
ENDROOT
BRANCH  13  15
ATOM     15  C   UNL     1      -2.290  -1.208  25.277  0.00  0.00    +0.092 A 
ATOM     16  C   UNL     1      -2.235  -1.635  24.573  0.00  0.00    +0.107 A 
ATOM     17  N   UNL     1      -2.857  -2.122  24.336  0.00  0.00    -0.222 NA
ATOM     18  C   UNL     1      -3.535  -2.182  24.802  0.00  0.00    +0.199 A 
ATOM     19  N   UNL     1      -3.590  -1.756  25.506  0.00  0.00    -0.222 NA
ATOM     20  C   UNL     1      -2.968  -1.269  25.743  0.00  0.00    +0.107 A 
ENDBRANCH  13  15
BRANCH   6   5
ATOM      5  O   UNL     1      -3.051   1.107  23.948  0.00  0.00    -0.460 OA
BRANCH   5   4
ATOM      1  C   UNL     1      -5.442   1.840  25.333  0.00  0.00    +0.052 C 
ATOM      2  C   UNL     1      -4.822   2.035  24.824  0.00  0.00    +0.062 A 
ATOM      3  N   UNL     1      -4.246   1.474  24.640  0.00  0.00    -0.216 NA
ATOM      4  C   UNL     1      -3.628   1.669  24.132  0.00  0.00    +0.225 A 
ATOM     21  C   UNL     1      -3.583   2.426  23.806  0.00  0.00    +0.058 A 
ATOM     22  C   UNL     1      -4.160   2.988  23.990  0.00  0.00    +0.006 A 
ATOM     23  C   UNL     1      -4.779   2.793  24.498  0.00  0.00    +0.015 A 
ENDBRANCH   5   4
ENDBRANCH   6   5
TORSDOF 3
ENDMDL
MODEL 5
REMARK VINA RESULT:      -9.9      2.188      3.165
REMARK  Name = 
REMARK  3 active torsions:
REMARK  status: ('A' for Active; 'I' for Inactive)
REMARK    1  A    between atoms: C_4  and  O_5
REMARK    2  A    between atoms: O_5  and  C_6
REMARK    3  A    between atoms: C_13  and  C_15
REMARK                            x       y       z     vdW  Elec       q    Type
REMARK                         _______ _______ _______ _____ _____    ______ ____
ROOT
ATOM      6  C   UNL     1      -1.150  -0.159  25.061  0.00  0.00    +0.217 C 
ATOM      7  C   UNL     1      -0.956  -0.868  24.688  0.00  0.00    +0.187 C 
ATOM      8  O   UNL     1      -0.386  -1.007  24.109  0.00  0.00    -0.348 OA
ATOM      9  C   UNL     1       0.134  -0.469  23.760  0.00  0.00    +0.164 C 
ATOM     10  C   UNL     1       0.210   0.340  23.903  0.00  0.00    +0.126 C 
ATOM     11  N   UNL     1      -0.214   0.810  24.432  0.00  0.00    -0.270 N 
ATOM     12  C   UNL     1      -0.819   0.589  24.947  0.00  0.00    +0.140 C 
ATOM     13  C   UNL     1      -0.006   1.609  24.447  0.00  0.00    +0.252 C 
ATOM     14  O   UNL     1       0.594   1.888  23.953  0.00  0.00    -0.270 OA
ENDROOT
BRANCH  13  15
ATOM     15  C   UNL     1      -0.396   2.127  24.956  0.00  0.00    +0.092 A 
ATOM     16  C   UNL     1      -1.037   2.569  24.683  0.00  0.00    +0.107 A 
ATOM     17  N   UNL     1      -1.427   3.088  25.192  0.00  0.00    -0.222 NA
ATOM     18  C   UNL     1      -1.177   3.165  25.974  0.00  0.00    +0.199 A 
ATOM     19  N   UNL     1      -0.536   2.723  26.247  0.00  0.00    -0.222 NA
ATOM     20  C   UNL     1      -0.146   2.204  25.738  0.00  0.00    +0.107 A 
ENDBRANCH  13  15
BRANCH   6   5
ATOM      5  O   UNL     1      -1.753  -0.201  25.622  0.00  0.00    -0.460 OA
BRANCH   5   4
ATOM      1  C   UNL     1      -4.348   0.280  24.527  0.00  0.00    +0.052 C 
ATOM      2  C   UNL     1      -3.797  -0.237  24.857  0.00  0.00    +0.062 A 
ATOM      3  N   UNL     1      -3.050   0.039  25.074  0.00  0.00    -0.216 NA
ATOM      4  C   UNL     1      -2.500  -0.478  25.404  0.00  0.00    +0.225 A 
ATOM     21  C   UNL     1      -2.694  -1.271  25.517  0.00  0.00    +0.058 A 
ATOM     22  C   UNL     1      -3.441  -1.548  25.299  0.00  0.00    +0.006 A 
ATOM     23  C   UNL     1      -3.991  -1.031  24.969  0.00  0.00    +0.015 A 
ENDBRANCH   5   4
ENDBRANCH   6   5
TORSDOF 3
ENDMDL
MODEL 6
REMARK VINA RESULT:      -9.9      2.050      3.841
REMARK  Name = 
REMARK  3 active torsions:
REMARK  status: ('A' for Active; 'I' for Inactive)
REMARK    1  A    between atoms: C_4  and  O_5
REMARK    2  A    between atoms: O_5  and  C_6
REMARK    3  A    between atoms: C_13  and  C_15
REMARK                            x       y       z     vdW  Elec       q    Type
REMARK                         _______ _______ _______ _____ _____    ______ ____
ROOT
ATOM      6  C   UNL     1      -2.477   2.734  24.583  0.00  0.00    +0.217 C 
ATOM      7  C   UNL     1      -2.775   3.466  24.819  0.00  0.00    +0.187 C 
ATOM      8  O   UNL     1      -2.429   4.028  25.313  0.00  0.00    -0.348 OA
ATOM      9  C   UNL     1      -1.698   3.998  25.693  0.00  0.00    +0.164 C 
ATOM     10  C   UNL     1      -1.132   3.398  25.674  0.00  0.00    +0.126 C 
ATOM     11  N   UNL     1      -1.158   2.680  25.268  0.00  0.00    -0.270 N 
ATOM     12  C   UNL     1      -1.756   2.384  24.783  0.00  0.00    +0.140 C 
ATOM     13  C   UNL     1      -0.499   2.192  25.361  0.00  0.00    +0.252 C 
ATOM     14  O   UNL     1       0.131   2.436  25.835  0.00  0.00    -0.270 OA
ENDROOT
BRANCH  13  15
ATOM     15  C   UNL     1      -0.470   1.462  24.979  0.00  0.00    +0.092 A 
ATOM     16  C   UNL     1      -0.717   0.780  25.373  0.00  0.00    +0.107 A 
ATOM     17  N   UNL     1      -0.687   0.050  24.992  0.00  0.00    -0.222 NA
ATOM     18  C   UNL     1      -0.411  -0.000  24.216  0.00  0.00    +0.199 A 
ATOM     19  N   UNL     1      -0.163   0.681  23.822  0.00  0.00    -0.222 NA
ATOM     20  C   UNL     1      -0.193   1.412  24.204  0.00  0.00    +0.107 A 
ENDBRANCH  13  15
BRANCH   6   5
ATOM      5  O   UNL     1      -2.961   2.294  24.081  0.00  0.00    -0.460 OA
BRANCH   5   4
ATOM      1  C   UNL     1      -4.586   0.237  25.220  0.00  0.00    +0.052 C 
ATOM      2  C   UNL     1      -4.508   1.000  24.915  0.00  0.00    +0.062 A 
ATOM      3  N   UNL     1      -3.774   1.266  24.650  0.00  0.00    -0.216 NA
ATOM      4  C   UNL     1      -3.696   2.028  24.346  0.00  0.00    +0.225 A 
ATOM     21  C   UNL     1      -4.353   2.526  24.307  0.00  0.00    +0.058 A 
ATOM     22  C   UNL     1      -5.088   2.260  24.572  0.00  0.00    +0.006 A 
ATOM     23  C   UNL     1      -5.166   1.498  24.876  0.00  0.00    +0.015 A 
ENDBRANCH   5   4
ENDBRANCH   6   5
TORSDOF 3
ENDMDL
