REMARK  Name = 
REMARK  4 active torsions:
REMARK  status: ('A' for Active; 'I' for Inactive)
REMARK    1  A    between atoms: C_4  and  N_21
REMARK    2  A    between atoms: C_6  and  C_7
REMARK    3  A    between atoms: C_9  and  C_12
REMARK    4  A    between atoms: N_24  and  C_25
REMARK                            x       y       z     vdW  Elec       q    Type
REMARK                         _______ _______ _______ _____ _____    ______ ____
ROOT
ATOM      1  C   UNL     1       5.433  -0.667   0.000  0.00  0.00    +0.090 C 
ATOM      2  N   UNL     1       4.820  -1.219   0.000  0.00  0.00    -0.264 NA
ATOM      3  C   UNL     1       4.907  -2.040   0.000  0.00  0.00    +0.094 C 
ATOM      4  C   UNL     1       4.153  -2.375   0.000  0.00  0.00    +0.115 C 
ATOM      5  C   UNL     1       3.601  -1.762   0.000  0.00  0.00    +0.049 C 
ATOM      6  C   UNL     1       4.013  -1.048   0.000  0.00  0.00    +0.139 C 
ENDROOT
BRANCH   6   7
ATOM      7  C   UNL     1       3.678  -0.294   0.000  0.00  0.00    +0.251 A 
ATOM      8  N   UNL     1       2.871  -0.122   0.000  0.00  0.00    -0.190 NA
ATOM      9  C   UNL     1       2.784   0.698   0.000  0.00  0.00    +0.203 A 
ATOM     10  N   UNL     1       3.538   1.034   0.000  0.00  0.00    -0.056 NA
ATOM     11  O   UNL     1       4.090   0.420   0.000  0.00  0.00    -0.336 OA
BRANCH   9  12
ATOM     12  C   UNL     1       2.070   1.110   0.000  0.00  0.00    +0.042 A 
ATOM     13  C   UNL     1       1.356   0.698   0.000  0.00  0.00    +0.043 A 
ATOM     14  C   UNL     1       0.641   1.110   0.000  0.00  0.00    +0.177 A 
ATOM     15  C   UNL     1       0.641   1.935   0.000  0.00  0.00    +0.176 A 
ATOM     16  O   UNL     1      -0.143   2.190   0.000  0.00  0.00    -0.435 OA
ATOM     17  C   UNL     1      -0.628   1.523   0.000  0.00  0.00    +0.429 C 
ATOM     18  O   UNL     1      -0.143   0.856   0.000  0.00  0.00    -0.435 OA
ATOM     19  C   UNL     1       1.356   2.348   0.000  0.00  0.00    +0.040 A 
ATOM     20  C   UNL     1       2.070   1.935   0.000  0.00  0.00    +0.006 A 
ENDBRANCH   9  12
ENDBRANCH   6   7
BRANCH   4  21
ATOM     21  N   UNL     1       3.981  -3.182   0.000  0.00  0.00    -0.187 NA
ATOM     22  C   UNL     1       3.197  -3.437   0.000  0.00  0.00    +0.343 C 
ATOM     23  O   UNL     1       2.584  -2.885   0.000  0.00  0.00    -0.249 OA
ATOM     24  N   UNL     1       3.025  -4.244   0.000  0.00  0.00    -0.161 NA
BRANCH  24  25
ATOM     25  C   UNL     1       2.240  -4.499   0.000  0.00  0.00    +0.075 A 
ATOM     26  C   UNL     1       2.069  -5.306   0.000  0.00  0.00    +0.019 A 
ATOM     27  C   UNL     1       1.284  -5.561   0.000  0.00  0.00    +0.031 A 
ATOM     28  C   UNL     1       0.671  -5.009   0.000  0.00  0.00    +0.140 A 
ATOM     29  F   UNL     1      -0.113  -5.264   0.000  0.00  0.00    -0.204 F 
ATOM     30  C   UNL     1       0.843  -4.202   0.000  0.00  0.00    +0.031 A 
ATOM     31  C   UNL     1       1.627  -3.947   0.000  0.00  0.00    +0.019 A 
ENDBRANCH  24  25
ENDBRANCH   4  21
TORSDOF 4
