MODEL 1
REMARK VINA RESULT:     -10.1      0.000      0.000
REMARK  Name = 
REMARK  9 active torsions:
REMARK  status: ('A' for Active; 'I' for Inactive)
REMARK    1  A    between atoms: S_2  and  C_3
REMARK    2  A    between atoms: C_7  and  N_8
REMARK    3  A    between atoms: N_11  and  C_12
REMARK    4  A    between atoms: C_14  and  C_25
REMARK    5  A    between atoms: C_17  and  C_19
REMARK    6  A    between atoms: N_27  and  C_28
REMARK    7  A    between atoms: C_28  and  C_29
REMARK    8  A    between atoms: C_28  and  C_39
REMARK    9  A    between atoms: C_29  and  C_30
REMARK                            x       y       z     vdW  Elec       q    Type
REMARK                         _______ _______ _______ _____ _____    ______ ____
ROOT
ATOM     12  C   UNL     1       0.469   0.079  23.062  0.00  0.00    +0.119 C 
ATOM     13  C   UNL     1       0.325   0.850  23.318  0.00  0.00    +0.053 C 
ATOM     14  C   UNL     1      -0.128   0.810  24.007  0.00  0.00    +0.156 C 
ATOM     15  N   UNL     1      -0.264   0.014  24.176  0.00  0.00    -0.266 N 
ATOM     16  C   UNL     1       0.104  -0.438  23.592  0.00  0.00    +0.116 C 
ATOM     17  C   UNL     1      -0.693  -0.278  24.817  0.00  0.00    +0.265 C 
ATOM     18  O   UNL     1      -1.032   0.243  25.359  0.00  0.00    -0.268 OA
ENDROOT
BRANCH  17  19
ATOM     19  C   UNL     1      -0.784  -1.093  24.915  0.00  0.00    +0.114 A 
ATOM     20  C   UNL     1      -0.181  -1.631  25.077  0.00  0.00    +0.023 A 
ATOM     21  C   UNL     1      -0.517  -2.383  25.131  0.00  0.00    +0.020 A 
ATOM     22  C   UNL     1      -1.328  -2.309  25.002  0.00  0.00    +0.076 A 
ATOM     23  N   UNL     1      -1.493  -1.511  24.869  0.00  0.00    -0.320 N 
ATOM     24  C   UNL     1      -2.237  -1.190  24.716  0.00  0.00    +0.131 C 
ENDBRANCH  17  19
BRANCH  12  11
ATOM      8  N   UNL     1       2.109   0.252  23.048  0.00  0.00    -0.161 NA
ATOM      9  C   UNL     1       1.721  -0.051  22.386  0.00  0.00    +0.343 C 
ATOM     10  O   UNL     1       2.153  -0.267  21.717  0.00  0.00    -0.249 OA
ATOM     11  N   UNL     1       0.900  -0.137  22.393  0.00  0.00    -0.187 NA
BRANCH   8   7
ATOM      3  C   UNL     1       4.229  -0.153  23.376  0.00  0.00    +0.027 A 
ATOM      4  C   UNL     1       4.571   0.511  23.025  0.00  0.00    +0.006 A 
ATOM      5  C   UNL     1       4.092   1.088  22.681  0.00  0.00    +0.002 A 
ATOM      6  C   UNL     1       3.272   1.001  22.689  0.00  0.00    +0.017 A 
ATOM      7  C   UNL     1       2.930   0.338  23.040  0.00  0.00    +0.075 A 
ATOM     42  C   UNL     1       3.409  -0.240  23.384  0.00  0.00    +0.023 A 
BRANCH   3   2
ATOM      1  C   UNL     1       5.437  -0.522  24.042  0.00  0.00    +0.074 C 
ATOM      2  S   UNL     1       4.708  -0.730  23.720  0.00  0.00    -0.113 S 
ENDBRANCH   3   2
ENDBRANCH   8   7
ENDBRANCH  12  11
BRANCH  14  25
ATOM     25  C   UNL     1      -0.397   1.453  24.448  0.00  0.00    +0.260 C 
ATOM     26  O   UNL     1      -0.164   1.539  25.234  0.00  0.00    -0.272 OA
ATOM     27  N   UNL     1      -0.898   2.010  24.103  0.00  0.00    -0.196 NA
BRANCH  27  28
ATOM     28  C   UNL     1      -1.167   2.652  24.544  0.00  0.00    +0.179 C 
BRANCH  28  39
ATOM     39  C   UNL     1      -0.694   3.325  24.623  0.00  0.00    +0.281 C 
ATOM     40  N   UNL     1      -0.547   3.638  25.372  0.00  0.00    -0.086 NA
ATOM     41  O   UNL     1      -0.370   3.682  23.955  0.00  0.00    -0.270 OA
ENDBRANCH  28  39
BRANCH  28  29
ATOM     29  C   UNL     1      -1.908   2.624  24.906  0.00  0.00    +0.059 C 
BRANCH  29  30
ATOM     30  C   UNL     1      -2.592   2.708  24.454  0.00  0.00    +0.001 A 
ATOM     31  C   UNL     1      -2.626   2.768  23.632  0.00  0.00    +0.095 A 
ATOM     32  N   UNL     1      -3.417   2.844  23.414  0.00  0.00    -0.244 NA
ATOM     33  C   UNL     1      -3.873   2.832  24.101  0.00  0.00    +0.081 A 
ATOM     34  C   UNL     1      -3.363   2.748  24.744  0.00  0.00    +0.015 A 
ATOM     35  C   UNL     1      -3.667   2.719  25.510  0.00  0.00    +0.001 A 
ATOM     36  C   UNL     1      -4.480   2.773  25.634  0.00  0.00    +0.000 A 
ATOM     37  C   UNL     1      -4.990   2.857  24.991  0.00  0.00    +0.002 A 
ATOM     38  C   UNL     1      -4.687   2.887  24.225  0.00  0.00    +0.019 A 
ENDBRANCH  29  30
ENDBRANCH  28  29
ENDBRANCH  27  28
ENDBRANCH  14  25
TORSDOF 9
ENDMDL
MODEL 2
REMARK VINA RESULT:      -9.4      2.042      4.315
REMARK  Name = 
REMARK  9 active torsions:
REMARK  status: ('A' for Active; 'I' for Inactive)
REMARK    1  A    between atoms: S_2  and  C_3
REMARK    2  A    between atoms: C_7  and  N_8
REMARK    3  A    between atoms: N_11  and  C_12
REMARK    4  A    between atoms: C_14  and  C_25
REMARK    5  A    between atoms: C_17  and  C_19
REMARK    6  A    between atoms: N_27  and  C_28
REMARK    7  A    between atoms: C_28  and  C_29
REMARK    8  A    between atoms: C_28  and  C_39
REMARK    9  A    between atoms: C_29  and  C_30
REMARK                            x       y       z     vdW  Elec       q    Type
REMARK                         _______ _______ _______ _____ _____    ______ ____
ROOT
ATOM     12  C   UNL     1      -0.672   0.043  25.202  0.00  0.00    +0.119 C 
ATOM     13  C   UNL     1      -1.047   0.777  25.244  0.00  0.00    +0.053 C 
ATOM     14  C   UNL     1      -0.739   1.254  24.645  0.00  0.00    +0.156 C 
ATOM     15  N   UNL     1      -0.174   0.815  24.234  0.00  0.00    -0.266 N 
ATOM     16  C   UNL     1      -0.133   0.066  24.578  0.00  0.00    +0.116 C 
ATOM     17  C   UNL     1       0.271   1.078  23.591  0.00  0.00    +0.265 C 
ATOM     18  O   UNL     1       0.169   1.845  23.305  0.00  0.00    -0.268 OA
ENDROOT
BRANCH  17  19
ATOM     19  C   UNL     1       0.818   0.574  23.234  0.00  0.00    +0.114 A 
ATOM     20  C   UNL     1       0.644  -0.136  22.851  0.00  0.00    +0.023 A 
ATOM     21  C   UNL     1       1.353  -0.458  22.577  0.00  0.00    +0.020 A 
ATOM     22  C   UNL     1       1.964   0.053  22.791  0.00  0.00    +0.076 A 
ATOM     23  N   UNL     1       1.633   0.691  23.197  0.00  0.00    -0.320 N 
ATOM     24  C   UNL     1       2.046   1.332  23.510  0.00  0.00    +0.131 C 
ENDBRANCH  17  19
BRANCH  12  11
ATOM      8  N   UNL     1      -1.847  -1.051  24.820  0.00  0.00    -0.161 NA
ATOM      9  C   UNL     1      -1.400  -1.149  25.507  0.00  0.00    +0.343 C 
ATOM     10  O   UNL     1      -1.540  -1.793  26.003  0.00  0.00    -0.249 OA
ATOM     11  N   UNL     1      -0.813  -0.602  25.698  0.00  0.00    -0.187 NA
BRANCH   8   7
ATOM      3  C   UNL     1      -3.791  -1.892  24.291  0.00  0.00    +0.027 A 
ATOM      4  C   UNL     1      -3.607  -2.695  24.249  0.00  0.00    +0.006 A 
ATOM      5  C   UNL     1      -2.837  -2.950  24.397  0.00  0.00    +0.002 A 
ATOM      6  C   UNL     1      -2.250  -2.402  24.588  0.00  0.00    +0.017 A 
ATOM      7  C   UNL     1      -2.434  -1.599  24.630  0.00  0.00    +0.075 A 
ATOM     42  C   UNL     1      -3.204  -1.344  24.481  0.00  0.00    +0.023 A 
BRANCH   3   2
ATOM      1  C   UNL     1      -4.712  -0.836  24.015  0.00  0.00    +0.074 C 
ATOM      2  S   UNL     1      -4.561  -1.636  24.142  0.00  0.00    -0.113 S 
ENDBRANCH   3   2
ENDBRANCH   8   7
ENDBRANCH  12  11
BRANCH  14  25
ATOM     25  C   UNL     1      -0.957   2.033  24.486  0.00  0.00    +0.260 C 
ATOM     26  O   UNL     1      -0.951   2.313  23.710  0.00  0.00    -0.272 OA
ATOM     27  N   UNL     1      -1.183   2.533  25.103  0.00  0.00    -0.196 NA
BRANCH  27  28
ATOM     28  C   UNL     1      -1.401   3.312  24.944  0.00  0.00    +0.179 C 
BRANCH  28  39
ATOM     39  C   UNL     1      -0.856   3.923  25.050  0.00  0.00    +0.281 C 
ATOM     40  N   UNL     1      -0.800   4.527  24.490  0.00  0.00    -0.086 NA
ATOM     41  O   UNL     1      -0.367   3.929  25.713  0.00  0.00    -0.270 OA
ENDBRANCH  28  39
BRANCH  28  29
ATOM     29  C   UNL     1      -2.164   3.481  24.679  0.00  0.00    +0.059 C 
BRANCH  29  30
ATOM     30  C   UNL     1      -2.775   3.591  25.221  0.00  0.00    +0.001 A 
ATOM     31  C   UNL     1      -2.702   3.924  25.973  0.00  0.00    +0.095 A 
ATOM     32  N   UNL     1      -3.448   3.925  26.324  0.00  0.00    -0.244 NA
ATOM     33  C   UNL     1      -3.982   3.593  25.791  0.00  0.00    +0.081 A 
ATOM     34  C   UNL     1      -3.565   3.386  25.109  0.00  0.00    +0.015 A 
ATOM     35  C   UNL     1      -3.962   3.039  24.474  0.00  0.00    +0.001 A 
ATOM     36  C   UNL     1      -4.772   2.898  24.520  0.00  0.00    +0.000 A 
ATOM     37  C   UNL     1      -5.189   3.104  25.202  0.00  0.00    +0.002 A 
ATOM     38  C   UNL     1      -4.794   3.452  25.838  0.00  0.00    +0.019 A 
ENDBRANCH  29  30
ENDBRANCH  28  29
ENDBRANCH  27  28
ENDBRANCH  14  25
TORSDOF 9
ENDMDL
MODEL 3
REMARK VINA RESULT:      -9.4      2.667      6.168
REMARK  Name = 
REMARK  9 active torsions:
REMARK  status: ('A' for Active; 'I' for Inactive)
REMARK    1  A    between atoms: S_2  and  C_3
REMARK    2  A    between atoms: C_7  and  N_8
REMARK    3  A    between atoms: N_11  and  C_12
REMARK    4  A    between atoms: C_14  and  C_25
REMARK    5  A    between atoms: C_17  and  C_19
REMARK    6  A    between atoms: N_27  and  C_28
REMARK    7  A    between atoms: C_28  and  C_29
REMARK    8  A    between atoms: C_28  and  C_39
REMARK    9  A    between atoms: C_29  and  C_30
REMARK                            x       y       z     vdW  Elec       q    Type
REMARK                         _______ _______ _______ _____ _____    ______ ____
ROOT
ATOM     12  C   UNL     1      -2.494   2.228  23.559  0.00  0.00    +0.119 C 
ATOM     13  C   UNL     1      -2.234   1.460  23.709  0.00  0.00    +0.053 C 
ATOM     14  C   UNL     1      -1.524   1.509  24.127  0.00  0.00    +0.156 C 
ATOM     15  N   UNL     1      -1.345   2.307  24.234  0.00  0.00    -0.266 N 
ATOM     16  C   UNL     1      -1.944   2.752  23.883  0.00  0.00    +0.116 C 
ATOM     17  C   UNL     1      -0.683   2.608  24.624  0.00  0.00    +0.265 C 
ATOM     18  O   UNL     1      -0.127   2.093  24.949  0.00  0.00    -0.268 OA
ENDROOT
BRANCH  17  19
ATOM     19  C   UNL     1      -0.577   3.424  24.688  0.00  0.00    +0.114 A 
ATOM     20  C   UNL     1      -0.343   3.931  24.082  0.00  0.00    +0.023 A 
ATOM     21  C   UNL     1      -0.308   4.697  24.388  0.00  0.00    +0.020 A 
ATOM     22  C   UNL     1      -0.521   4.662  25.184  0.00  0.00    +0.076 A 
ATOM     23  N   UNL     1      -0.688   3.875  25.369  0.00  0.00    -0.320 N 
ATOM     24  C   UNL     1      -0.923   3.591  26.107  0.00  0.00    +0.131 C 
ENDBRANCH  17  19
BRANCH  12  11
ATOM      8  N   UNL     1      -3.862   2.606  24.400  0.00  0.00    -0.161 NA
ATOM      9  C   UNL     1      -3.866   2.626  23.576  0.00  0.00    +0.343 C 
ATOM     10  O   UNL     1      -4.555   2.834  23.171  0.00  0.00    -0.249 OA
ATOM     11  N   UNL     1      -3.182   2.437  23.154  0.00  0.00    -0.187 NA
BRANCH   8   7
ATOM      3  C   UNL     1      -5.744   2.387  25.484  0.00  0.00    +0.027 A 
ATOM      4  C   UNL     1      -5.914   3.174  25.662  0.00  0.00    +0.006 A 
ATOM      5  C   UNL     1      -5.400   3.772  25.419  0.00  0.00    +0.002 A 
ATOM      6  C   UNL     1      -4.716   3.582  24.999  0.00  0.00    +0.017 A 
ATOM      7  C   UNL     1      -4.546   2.795  24.821  0.00  0.00    +0.075 A 
ATOM     42  C   UNL     1      -5.060   2.197  25.063  0.00  0.00    +0.023 A 
BRANCH   3   2
ATOM      1  C   UNL     1      -6.421   1.685  26.527  0.00  0.00    +0.074 C 
ATOM      2  S   UNL     1      -6.258   1.788  25.726  0.00  0.00    -0.113 S 
ENDBRANCH   3   2
ENDBRANCH   8   7
ENDBRANCH  12  11
BRANCH  14  25
ATOM     25  C   UNL     1      -1.072   0.871  24.391  0.00  0.00    +0.260 C 
ATOM     26  O   UNL     1      -0.604   0.949  25.065  0.00  0.00    -0.272 OA
ATOM     27  N   UNL     1      -1.088   0.156  23.980  0.00  0.00    -0.196 NA
BRANCH  27  28
ATOM     28  C   UNL     1      -0.637  -0.482  24.244  0.00  0.00    +0.179 C 
BRANCH  28  39
ATOM     39  C   UNL     1       0.119  -0.606  23.936  0.00  0.00    +0.281 C 
ATOM     40  N   UNL     1       0.261  -0.486  23.132  0.00  0.00    -0.086 NA
ATOM     41  O   UNL     1       0.731  -0.851  24.431  0.00  0.00    -0.270 OA
ENDBRANCH  28  39
BRANCH  28  29
ATOM     29  C   UNL     1      -0.940  -0.995  24.814  0.00  0.00    +0.059 C 
BRANCH  29  30
ATOM     30  C   UNL     1      -1.444  -1.608  24.592  0.00  0.00    +0.001 A 
ATOM     31  C   UNL     1      -1.314  -2.145  23.979  0.00  0.00    +0.095 A 
ATOM     32  N   UNL     1      -1.956  -2.661  23.951  0.00  0.00    -0.244 NA
ATOM     33  C   UNL     1      -2.483  -2.444  24.547  0.00  0.00    +0.081 A 
ATOM     34  C   UNL     1      -2.167  -1.793  24.942  0.00  0.00    +0.015 A 
ATOM     35  C   UNL     1      -2.579  -1.453  25.572  0.00  0.00    +0.001 A 
ATOM     36  C   UNL     1      -3.306  -1.764  25.805  0.00  0.00    +0.000 A 
ATOM     37  C   UNL     1      -3.623  -2.414  25.409  0.00  0.00    +0.002 A 
ATOM     38  C   UNL     1      -3.212  -2.755  24.780  0.00  0.00    +0.019 A 
ENDBRANCH  29  30
ENDBRANCH  28  29
ENDBRANCH  27  28
ENDBRANCH  14  25
TORSDOF 9
ENDMDL
MODEL 4
REMARK VINA RESULT:      -8.9      2.826      4.482
REMARK  Name = 
REMARK  9 active torsions:
REMARK  status: ('A' for Active; 'I' for Inactive)
REMARK    1  A    between atoms: S_2  and  C_3
REMARK    2  A    between atoms: C_7  and  N_8
REMARK    3  A    between atoms: N_11  and  C_12
REMARK    4  A    between atoms: C_14  and  C_25
REMARK    5  A    between atoms: C_17  and  C_19
REMARK    6  A    between atoms: N_27  and  C_28
REMARK    7  A    between atoms: C_28  and  C_29
REMARK    8  A    between atoms: C_28  and  C_39
REMARK    9  A    between atoms: C_29  and  C_30
REMARK                            x       y       z     vdW  Elec       q    Type
REMARK                         _______ _______ _______ _____ _____    ______ ____
ROOT
ATOM     12  C   UNL     1      -0.695   0.269  24.576  0.00  0.00    +0.119 C 
ATOM     13  C   UNL     1      -1.192   0.554  23.983  0.00  0.00    +0.053 C 
ATOM     14  C   UNL     1      -1.289   1.365  24.100  0.00  0.00    +0.156 C 
ATOM     15  N   UNL     1      -0.852   1.581  24.766  0.00  0.00    -0.266 N 
ATOM     16  C   UNL     1      -0.485   0.903  25.060  0.00  0.00    +0.116 C 
ATOM     17  C   UNL     1      -0.792   2.340  25.081  0.00  0.00    +0.265 C 
ATOM     18  O   UNL     1      -1.193   2.967  24.726  0.00  0.00    -0.268 OA
ENDROOT
BRANCH  17  19
ATOM     19  C   UNL     1      -0.332   2.473  25.753  0.00  0.00    +0.114 A 
ATOM     20  C   UNL     1       0.470   2.298  25.833  0.00  0.00    +0.023 A 
ATOM     21  C   UNL     1       0.706   2.520  26.593  0.00  0.00    +0.020 A 
ATOM     22  C   UNL     1       0.049   2.832  26.981  0.00  0.00    +0.076 A 
ATOM     23  N   UNL     1      -0.593   2.802  26.463  0.00  0.00    -0.320 N 
ATOM     24  C   UNL     1      -1.360   3.058  26.626  0.00  0.00    +0.131 C 
ENDBRANCH  17  19
BRANCH  12  11
ATOM      8  N   UNL     1      -1.806  -0.909  24.895  0.00  0.00    -0.161 NA
ATOM      9  C   UNL     1      -1.007  -1.103  24.829  0.00  0.00    +0.343 C 
ATOM     10  O   UNL     1      -0.763  -1.886  24.922  0.00  0.00    -0.249 OA
ATOM     11  N   UNL     1      -0.451  -0.514  24.669  0.00  0.00    -0.187 NA
BRANCH   8   7
ATOM      3  C   UNL     1      -3.383  -2.391  24.606  0.00  0.00    +0.027 A 
ATOM      4  C   UNL     1      -3.471  -2.677  25.375  0.00  0.00    +0.006 A 
ATOM      5  C   UNL     1      -3.003  -2.374  25.984  0.00  0.00    +0.002 A 
ATOM      6  C   UNL     1      -2.449  -1.785  25.823  0.00  0.00    +0.017 A 
ATOM      7  C   UNL     1      -2.361  -1.499  25.055  0.00  0.00    +0.075 A 
ATOM     42  C   UNL     1      -2.828  -1.802  24.446  0.00  0.00    +0.023 A 
BRANCH   3   2
ATOM      1  C   UNL     1      -4.429  -2.223  23.649  0.00  0.00    +0.074 C 
ATOM      2  S   UNL     1      -3.850  -2.694  23.997  0.00  0.00    -0.113 S 
ENDBRANCH   3   2
ENDBRANCH   8   7
ENDBRANCH  12  11
BRANCH  14  25
ATOM     25  C   UNL     1      -1.743   1.871  23.633  0.00  0.00    +0.260 C 
ATOM     26  O   UNL     1      -1.390   2.517  23.262  0.00  0.00    -0.272 OA
ATOM     27  N   UNL     1      -2.551   1.732  23.538  0.00  0.00    -0.196 NA
BRANCH  27  28
ATOM     28  C   UNL     1      -3.005   2.237  23.072  0.00  0.00    +0.179 C 
BRANCH  28  39
ATOM     39  C   UNL     1      -2.927   2.221  22.250  0.00  0.00    +0.281 C 
ATOM     40  N   UNL     1      -2.902   2.929  21.825  0.00  0.00    -0.086 NA
ATOM     41  O   UNL     1      -2.874   1.501  21.854  0.00  0.00    -0.270 OA
ENDBRANCH  28  39
BRANCH  28  29
ATOM     29  C   UNL     1      -3.537   2.759  23.426  0.00  0.00    +0.059 C 
BRANCH  29  30
ATOM     30  C   UNL     1      -4.141   2.470  23.907  0.00  0.00    +0.001 A 
ATOM     31  C   UNL     1      -4.461   1.710  23.880  0.00  0.00    +0.095 A 
ATOM     32  N   UNL     1      -5.049   1.660  24.456  0.00  0.00    -0.244 NA
ATOM     33  C   UNL     1      -5.093   2.389  24.838  0.00  0.00    +0.081 A 
ATOM     34  C   UNL     1      -4.532   2.890  24.499  0.00  0.00    +0.015 A 
ATOM     35  C   UNL     1      -4.450   3.663  24.774  0.00  0.00    +0.001 A 
ATOM     36  C   UNL     1      -4.929   3.936  25.388  0.00  0.00    +0.000 A 
ATOM     37  C   UNL     1      -5.490   3.435  25.727  0.00  0.00    +0.002 A 
ATOM     38  C   UNL     1      -5.572   2.662  25.453  0.00  0.00    +0.019 A 
ENDBRANCH  29  30
ENDBRANCH  28  29
ENDBRANCH  27  28
ENDBRANCH  14  25
TORSDOF 9
ENDMDL
MODEL 5
REMARK VINA RESULT:      -8.8      2.823      5.560
REMARK  Name = 
REMARK  9 active torsions:
REMARK  status: ('A' for Active; 'I' for Inactive)
REMARK    1  A    between atoms: S_2  and  C_3
REMARK    2  A    between atoms: C_7  and  N_8
REMARK    3  A    between atoms: N_11  and  C_12
REMARK    4  A    between atoms: C_14  and  C_25
REMARK    5  A    between atoms: C_17  and  C_19
REMARK    6  A    between atoms: N_27  and  C_28
REMARK    7  A    between atoms: C_28  and  C_29
REMARK    8  A    between atoms: C_28  and  C_39
REMARK    9  A    between atoms: C_29  and  C_30
REMARK                            x       y       z     vdW  Elec       q    Type
REMARK                         _______ _______ _______ _____ _____    ______ ____
ROOT
ATOM     12  C   UNL     1      -3.690   0.251  24.134  0.00  0.00    +0.119 C 
ATOM     13  C   UNL     1      -3.051   0.759  24.254  0.00  0.00    +0.053 C 
ATOM     14  C   UNL     1      -2.425   0.314  24.556  0.00  0.00    +0.156 C 
ATOM     15  N   UNL     1      -2.678  -0.469  24.623  0.00  0.00    -0.266 N 
ATOM     16  C   UNL     1      -3.460  -0.508  24.362  0.00  0.00    +0.116 C 
ATOM     17  C   UNL     1      -2.228  -1.102  24.902  0.00  0.00    +0.265 C 
ATOM     18  O   UNL     1      -1.450  -0.979  25.145  0.00  0.00    -0.268 OA
ENDROOT
BRANCH  17  19
ATOM     19  C   UNL     1      -2.557  -1.858  24.938  0.00  0.00    +0.114 A 
ATOM     20  C   UNL     1      -3.237  -2.071  25.352  0.00  0.00    +0.023 A 
ATOM     21  C   UNL     1      -3.365  -2.879  25.236  0.00  0.00    +0.020 A 
ATOM     22  C   UNL     1      -2.763  -3.163  24.749  0.00  0.00    +0.076 A 
ATOM     23  N   UNL     1      -2.263  -2.532  24.564  0.00  0.00    -0.320 N 
ATOM     24  C   UNL     1      -1.590  -2.571  24.090  0.00  0.00    +0.131 C 
ENDBRANCH  17  19
BRANCH  12  11
ATOM      8  N   UNL     1      -4.640   1.308  24.973  0.00  0.00    -0.161 NA
ATOM      9  C   UNL     1      -4.905   0.994  24.258  0.00  0.00    +0.343 C 
ATOM     10  O   UNL     1      -5.645   1.207  23.962  0.00  0.00    -0.249 OA
ATOM     11  N   UNL     1      -4.430   0.465  23.838  0.00  0.00    -0.187 NA
BRANCH   8   7
ATOM      3  C   UNL     1      -5.432   3.174  25.784  0.00  0.00    +0.027 A 
ATOM      4  C   UNL     1      -6.066   2.893  26.230  0.00  0.00    +0.006 A 
ATOM      5  C   UNL     1      -6.225   2.084  26.257  0.00  0.00    +0.002 A 
ATOM      6  C   UNL     1      -5.750   1.556  25.838  0.00  0.00    +0.017 A 
ATOM      7  C   UNL     1      -5.115   1.837  25.392  0.00  0.00    +0.075 A 
ATOM     42  C   UNL     1      -4.956   2.646  25.364  0.00  0.00    +0.023 A 
BRANCH   3   2
ATOM      1  C   UNL     1      -5.819   4.499  25.418  0.00  0.00    +0.074 C 
ATOM      2  S   UNL     1      -5.273   3.983  25.756  0.00  0.00    -0.113 S 
ENDBRANCH   3   2
ENDBRANCH   8   7
ENDBRANCH  12  11
BRANCH  14  25
ATOM     25  C   UNL     1      -1.678   0.601  24.756  0.00  0.00    +0.260 C 
ATOM     26  O   UNL     1      -1.318   0.359  25.458  0.00  0.00    -0.272 OA
ATOM     27  N   UNL     1      -1.291   1.129  24.255  0.00  0.00    -0.196 NA
BRANCH  27  28
ATOM     28  C   UNL     1      -0.545   1.416  24.455  0.00  0.00    +0.179 C 
BRANCH  28  39
ATOM     39  C   UNL     1       0.131   1.068  24.132  0.00  0.00    +0.281 C 
ATOM     40  N   UNL     1       0.139   0.845  23.337  0.00  0.00    -0.086 NA
ATOM     41  O   UNL     1       0.795   0.942  24.602  0.00  0.00    -0.270 OA
ENDBRANCH  28  39
BRANCH  28  29
ATOM     29  C   UNL     1      -0.472   2.051  24.976  0.00  0.00    +0.059 C 
BRANCH  29  30
ATOM     30  C   UNL     1      -0.520   2.825  24.695  0.00  0.00    +0.001 A 
ATOM     31  C   UNL     1      -0.171   3.112  24.004  0.00  0.00    +0.095 A 
ATOM     32  N   UNL     1      -0.360   3.912  23.937  0.00  0.00    -0.244 NA
ATOM     33  C   UNL     1      -0.826   4.119  24.585  0.00  0.00    +0.081 A 
ATOM     34  C   UNL     1      -0.925   3.447  25.053  0.00  0.00    +0.015 A 
ATOM     35  C   UNL     1      -1.371   3.490  25.746  0.00  0.00    +0.001 A 
ATOM     36  C   UNL     1      -1.718   4.203  25.970  0.00  0.00    +0.000 A 
ATOM     37  C   UNL     1      -1.619   4.875  25.502  0.00  0.00    +0.002 A 
ATOM     38  C   UNL     1      -1.174   4.833  24.809  0.00  0.00    +0.019 A 
ENDBRANCH  29  30
ENDBRANCH  28  29
ENDBRANCH  27  28
ENDBRANCH  14  25
TORSDOF 9
ENDMDL
MODEL 6
REMARK VINA RESULT:      -8.7      1.292      3.131
REMARK  Name = 
REMARK  9 active torsions:
REMARK  status: ('A' for Active; 'I' for Inactive)
REMARK    1  A    between atoms: S_2  and  C_3
REMARK    2  A    between atoms: C_7  and  N_8
REMARK    3  A    between atoms: N_11  and  C_12
REMARK    4  A    between atoms: C_14  and  C_25
REMARK    5  A    between atoms: C_17  and  C_19
REMARK    6  A    between atoms: N_27  and  C_28
REMARK    7  A    between atoms: C_28  and  C_29
REMARK    8  A    between atoms: C_28  and  C_39
REMARK    9  A    between atoms: C_29  and  C_30
REMARK                            x       y       z     vdW  Elec       q    Type
REMARK                         _______ _______ _______ _____ _____    ______ ____
ROOT
ATOM     12  C   UNL     1       0.661   0.005  22.836  0.00  0.00    +0.119 C 
ATOM     13  C   UNL     1       0.307  -0.631  23.224  0.00  0.00    +0.053 C 
ATOM     14  C   UNL     1      -0.116  -0.333  23.868  0.00  0.00    +0.156 C 
ATOM     15  N   UNL     1      -0.023   0.487  23.877  0.00  0.00    -0.266 N 
ATOM     16  C   UNL     1       0.458   0.695  23.239  0.00  0.00    +0.116 C 
ATOM     17  C   UNL     1      -0.352   1.006  24.426  0.00  0.00    +0.265 C 
ATOM     18  O   UNL     1      -0.823   0.715  25.037  0.00  0.00    -0.268 OA
ENDROOT
BRANCH  17  19
ATOM     19  C   UNL     1      -0.209   1.816  24.365  0.00  0.00    +0.114 A 
ATOM     20  C   UNL     1       0.502   2.197  24.534  0.00  0.00    +0.023 A 
ATOM     21  C   UNL     1       0.398   3.005  24.397  0.00  0.00    +0.020 A 
ATOM     22  C   UNL     1      -0.377   3.122  24.143  0.00  0.00    +0.076 A 
ATOM     23  N   UNL     1      -0.754   2.387  24.123  0.00  0.00    -0.320 N 
ATOM     24  C   UNL     1      -1.535   2.249  23.901  0.00  0.00    +0.131 C 
ENDBRANCH  17  19
BRANCH  12  11
ATOM      8  N   UNL     1       2.299   0.157  22.969  0.00  0.00    -0.161 NA
ATOM      9  C   UNL     1       1.955   0.034  22.230  0.00  0.00    +0.343 C 
ATOM     10  O   UNL     1       2.430  -0.012  21.556  0.00  0.00    -0.249 OA
ATOM     11  N   UNL     1       1.136  -0.042  22.163  0.00  0.00    -0.187 NA
BRANCH   8   7
ATOM      3  C   UNL     1       4.380  -0.290  23.452  0.00  0.00    +0.027 A 
ATOM      4  C   UNL     1       4.755   0.387  23.167  0.00  0.00    +0.006 A 
ATOM      5  C   UNL     1       4.311   0.988  22.816  0.00  0.00    +0.002 A 
ATOM      6  C   UNL     1       3.493   0.911  22.751  0.00  0.00    +0.017 A 
ATOM      7  C   UNL     1       3.118   0.234  23.036  0.00  0.00    +0.075 A 
ATOM     42  C   UNL     1       3.561  -0.367  23.387  0.00  0.00    +0.023 A 
BRANCH   3   2
ATOM      1  C   UNL     1       5.521  -0.708  24.203  0.00  0.00    +0.074 C 
ATOM      2  S   UNL     1       4.824  -0.891  23.803  0.00  0.00    -0.113 S 
ENDBRANCH   3   2
ENDBRANCH   8   7
ENDBRANCH  12  11
BRANCH  14  25
ATOM     25  C   UNL     1      -0.555  -0.777  24.407  0.00  0.00    +0.260 C 
ATOM     26  O   UNL     1      -0.323  -0.811  25.198  0.00  0.00    -0.272 OA
ATOM     27  N   UNL     1      -1.225  -1.188  24.155  0.00  0.00    -0.196 NA
BRANCH  27  28
ATOM     28  C   UNL     1      -1.663  -1.631  24.694  0.00  0.00    +0.179 C 
BRANCH  28  39
ATOM     39  C   UNL     1      -1.443  -2.409  24.864  0.00  0.00    +0.281 C 
ATOM     40  N   UNL     1      -1.261  -2.625  25.640  0.00  0.00    -0.086 NA
ATOM     41  O   UNL     1      -1.403  -2.968  24.260  0.00  0.00    -0.270 OA
ENDBRANCH  28  39
BRANCH  28  29
ATOM     29  C   UNL     1      -2.322  -1.300  25.063  0.00  0.00    +0.059 C 
BRANCH  29  30
ATOM     30  C   UNL     1      -3.042  -1.257  24.664  0.00  0.00    +0.001 A 
ATOM     31  C   UNL     1      -3.293  -1.762  24.061  0.00  0.00    +0.095 A 
ATOM     32  N   UNL     1      -4.044  -1.519  23.821  0.00  0.00    -0.244 NA
ATOM     33  C   UNL     1      -4.257  -0.864  24.274  0.00  0.00    +0.081 A 
ATOM     34  C   UNL     1      -3.638  -0.702  24.795  0.00  0.00    +0.015 A 
ATOM     35  C   UNL     1      -3.697  -0.069  25.321  0.00  0.00    +0.001 A 
ATOM     36  C   UNL     1      -4.374   0.401  25.327  0.00  0.00    +0.000 A 
ATOM     37  C   UNL     1      -4.993   0.238  24.806  0.00  0.00    +0.002 A 
ATOM     38  C   UNL     1      -4.935  -0.394  24.280  0.00  0.00    +0.019 A 
ENDBRANCH  29  30
ENDBRANCH  28  29
ENDBRANCH  27  28
ENDBRANCH  14  25
TORSDOF 9
ENDMDL
MODEL 7
REMARK VINA RESULT:      -8.6      1.911      5.037
REMARK  Name = 
REMARK  9 active torsions:
REMARK  status: ('A' for Active; 'I' for Inactive)
REMARK    1  A    between atoms: S_2  and  C_3
REMARK    2  A    between atoms: C_7  and  N_8
REMARK    3  A    between atoms: N_11  and  C_12
REMARK    4  A    between atoms: C_14  and  C_25
REMARK    5  A    between atoms: C_17  and  C_19
REMARK    6  A    between atoms: N_27  and  C_28
REMARK    7  A    between atoms: C_28  and  C_29
REMARK    8  A    between atoms: C_28  and  C_39
REMARK    9  A    between atoms: C_29  and  C_30
REMARK                            x       y       z     vdW  Elec       q    Type
REMARK                         _______ _______ _______ _____ _____    ______ ____
ROOT
ATOM     12  C   UNL     1       0.062   1.678  24.111  0.00  0.00    +0.119 C 
ATOM     13  C   UNL     1      -0.456   1.068  24.309  0.00  0.00    +0.053 C 
ATOM     14  C   UNL     1      -0.125   0.357  24.049  0.00  0.00    +0.156 C 
ATOM     15  N   UNL     1       0.598   0.529  23.691  0.00  0.00    -0.266 N 
ATOM     16  C   UNL     1       0.714   1.345  23.728  0.00  0.00    +0.116 C 
ATOM     17  C   UNL     1       1.114  -0.019  23.353  0.00  0.00    +0.265 C 
ATOM     18  O   UNL     1       0.924  -0.821  23.356  0.00  0.00    -0.268 OA
ENDROOT
BRANCH  17  19
ATOM     19  C   UNL     1       1.822   0.237  23.013  0.00  0.00    +0.114 A 
ATOM     20  C   UNL     1       2.391   0.710  23.375  0.00  0.00    +0.023 A 
ATOM     21  C   UNL     1       3.005   0.830  22.837  0.00  0.00    +0.020 A 
ATOM     22  C   UNL     1       2.814   0.430  22.141  0.00  0.00    +0.076 A 
ATOM     23  N   UNL     1       2.082   0.063  22.250  0.00  0.00    -0.320 N 
ATOM     24  C   UNL     1       1.683  -0.395  21.693  0.00  0.00    +0.131 C 
ENDBRANCH  17  19
BRANCH  12  11
ATOM      8  N   UNL     1      -1.461   2.312  24.105  0.00  0.00    -0.161 NA
ATOM      9  C   UNL     1      -0.813   2.797  24.264  0.00  0.00    +0.343 C 
ATOM     10  O   UNL     1      -0.926   3.599  24.420  0.00  0.00    -0.249 OA
ATOM     11  N   UNL     1      -0.051   2.480  24.267  0.00  0.00    -0.187 NA
BRANCH   8   7
ATOM      3  C   UNL     1      -3.353   3.142  24.810  0.00  0.00    +0.027 A 
ATOM      4  C   UNL     1      -3.745   3.266  24.095  0.00  0.00    +0.006 A 
ATOM      5  C   UNL     1      -3.376   3.071  23.382  0.00  0.00    +0.002 A 
ATOM      6  C   UNL     1      -2.615   2.753  23.386  0.00  0.00    +0.017 A 
ATOM      7  C   UNL     1      -2.222   2.630  24.102  0.00  0.00    +0.075 A 
ATOM     42  C   UNL     1      -2.592   2.825  24.814  0.00  0.00    +0.023 A 
BRANCH   3   2
ATOM      1  C   UNL     1      -4.544   3.335  25.573  0.00  0.00    +0.074 C 
ATOM      2  S   UNL     1      -3.722   3.337  25.522  0.00  0.00    -0.113 S 
ENDBRANCH   3   2
ENDBRANCH   8   7
ENDBRANCH  12  11
BRANCH  14  25
ATOM     25  C   UNL     1      -0.458  -0.392  24.134  0.00  0.00    +0.260 C 
ATOM     26  O   UNL     1      -0.407  -0.938  23.517  0.00  0.00    -0.272 OA
ATOM     27  N   UNL     1      -0.842  -0.597  24.835  0.00  0.00    -0.196 NA
BRANCH  27  28
ATOM     28  C   UNL     1      -1.175  -1.346  24.919  0.00  0.00    +0.179 C 
BRANCH  28  39
ATOM     39  C   UNL     1      -0.738  -1.955  25.265  0.00  0.00    +0.281 C 
ATOM     40  N   UNL     1      -0.775  -2.718  24.952  0.00  0.00    -0.086 NA
ATOM     41  O   UNL     1      -0.265  -1.801  25.922  0.00  0.00    -0.270 OA
ENDBRANCH  28  39
BRANCH  28  29
ATOM     29  C   UNL     1      -1.945  -1.488  24.658  0.00  0.00    +0.059 C 
BRANCH  29  30
ATOM     30  C   UNL     1      -2.586  -1.188  25.081  0.00  0.00    +0.001 A 
ATOM     31  C   UNL     1      -2.628  -1.098  25.900  0.00  0.00    +0.095 A 
ATOM     32  N   UNL     1      -3.366  -0.779  26.085  0.00  0.00    -0.244 NA
ATOM     33  C   UNL     1      -3.780  -0.672  25.380  0.00  0.00    +0.081 A 
ATOM     34  C   UNL     1      -3.298  -0.924  24.760  0.00  0.00    +0.015 A 
ATOM     35  C   UNL     1      -3.571  -0.881  23.982  0.00  0.00    +0.001 A 
ATOM     36  C   UNL     1      -4.325  -0.586  23.825  0.00  0.00    +0.000 A 
ATOM     37  C   UNL     1      -4.807  -0.334  24.445  0.00  0.00    +0.002 A 
ATOM     38  C   UNL     1      -4.535  -0.376  25.222  0.00  0.00    +0.019 A 
ENDBRANCH  29  30
ENDBRANCH  28  29
ENDBRANCH  27  28
ENDBRANCH  14  25
TORSDOF 9
ENDMDL
MODEL 8
REMARK VINA RESULT:      -8.4      2.131      6.533
REMARK  Name = 
REMARK  9 active torsions:
REMARK  status: ('A' for Active; 'I' for Inactive)
REMARK    1  A    between atoms: S_2  and  C_3
REMARK    2  A    between atoms: C_7  and  N_8
REMARK    3  A    between atoms: N_11  and  C_12
REMARK    4  A    between atoms: C_14  and  C_25
REMARK    5  A    between atoms: C_17  and  C_19
REMARK    6  A    between atoms: N_27  and  C_28
REMARK    7  A    between atoms: C_28  and  C_29
REMARK    8  A    between atoms: C_28  and  C_39
REMARK    9  A    between atoms: C_29  and  C_30
REMARK                            x       y       z     vdW  Elec       q    Type
REMARK                         _______ _______ _______ _____ _____    ______ ____
ROOT
ATOM     12  C   UNL     1      -2.388   2.167  23.458  0.00  0.00    +0.119 C 
ATOM     13  C   UNL     1      -2.029   1.429  23.539  0.00  0.00    +0.053 C 
ATOM     14  C   UNL     1      -1.329   1.532  23.965  0.00  0.00    +0.156 C 
ATOM     15  N   UNL     1      -1.257   2.334  24.147  0.00  0.00    -0.266 N 
ATOM     16  C   UNL     1      -1.911   2.726  23.833  0.00  0.00    +0.116 C 
ATOM     17  C   UNL     1      -0.639   2.682  24.568  0.00  0.00    +0.265 C 
ATOM     18  O   UNL     1      -0.018   2.217  24.849  0.00  0.00    -0.268 OA
ENDROOT
BRANCH  17  19
ATOM     19  C   UNL     1      -0.642   3.495  24.708  0.00  0.00    +0.114 A 
ATOM     20  C   UNL     1      -0.492   4.083  24.150  0.00  0.00    +0.023 A 
ATOM     21  C   UNL     1      -0.552   4.815  24.527  0.00  0.00    +0.020 A 
ATOM     22  C   UNL     1      -0.740   4.678  25.318  0.00  0.00    +0.076 A 
ATOM     23  N   UNL     1      -0.795   3.862  25.430  0.00  0.00    -0.320 N 
ATOM     24  C   UNL     1      -0.972   3.482  26.140  0.00  0.00    +0.131 C 
ENDBRANCH  17  19
BRANCH  12  11
ATOM      8  N   UNL     1      -3.738   2.549  24.327  0.00  0.00    -0.161 NA
ATOM      9  C   UNL     1      -3.774   2.510  23.504  0.00  0.00    +0.343 C 
ATOM     10  O   UNL     1      -4.486   2.662  23.115  0.00  0.00    -0.249 OA
ATOM     11  N   UNL     1      -3.100   2.319  23.069  0.00  0.00    -0.187 NA
BRANCH   8   7
ATOM      3  C   UNL     1      -5.598   2.335  25.449  0.00  0.00    +0.027 A 
ATOM      4  C   UNL     1      -5.762   3.123  25.630  0.00  0.00    +0.006 A 
ATOM      5  C   UNL     1      -5.252   3.720  25.376  0.00  0.00    +0.002 A 
ATOM      6  C   UNL     1      -4.577   3.528  24.942  0.00  0.00    +0.017 A 
ATOM      7  C   UNL     1      -4.413   2.740  24.761  0.00  0.00    +0.075 A 
ATOM     42  C   UNL     1      -4.923   2.143  25.015  0.00  0.00    +0.023 A 
BRANCH   3   2
ATOM      1  C   UNL     1      -6.360   1.718  26.488  0.00  0.00    +0.074 C 
ATOM      2  S   UNL     1      -6.108   1.738  25.703  0.00  0.00    -0.113 S 
ENDBRANCH   3   2
ENDBRANCH   8   7
ENDBRANCH  12  11
BRANCH  14  25
ATOM     25  C   UNL     1      -0.796   0.938  24.173  0.00  0.00    +0.260 C 
ATOM     26  O   UNL     1      -0.586   0.830  24.963  0.00  0.00    -0.272 OA
ATOM     27  N   UNL     1      -0.472   0.451  23.590  0.00  0.00    -0.196 NA
BRANCH  27  28
ATOM     28  C   UNL     1       0.060  -0.142  23.798  0.00  0.00    +0.179 C 
BRANCH  28  39
ATOM     39  C   UNL     1      -0.219  -0.874  24.059  0.00  0.00    +0.281 C 
ATOM     40  N   UNL     1       0.033  -1.176  24.785  0.00  0.00    -0.086 NA
ATOM     41  O   UNL     1      -0.749  -1.303  23.596  0.00  0.00    -0.270 OA
ENDBRANCH  28  39
BRANCH  28  29
ATOM     29  C   UNL     1       0.872  -0.006  23.745  0.00  0.00    +0.059 C 
BRANCH  29  30
ATOM     30  C   UNL     1       1.257  -0.082  23.020  0.00  0.00    +0.001 A 
ATOM     31  C   UNL     1       0.940  -0.416  22.335  0.00  0.00    +0.095 A 
ATOM     32  N   UNL     1       1.514  -0.377  21.744  0.00  0.00    -0.244 NA
ATOM     33  C   UNL     1       2.185  -0.019  22.063  0.00  0.00    +0.081 A 
ATOM     34  C   UNL     1       2.026   0.163  22.851  0.00  0.00    +0.015 A 
ATOM     35  C   UNL     1       2.604   0.529  23.314  0.00  0.00    +0.001 A 
ATOM     36  C   UNL     1       3.339   0.712  22.988  0.00  0.00    +0.000 A 
ATOM     37  C   UNL     1       3.497   0.529  22.199  0.00  0.00    +0.002 A 
ATOM     38  C   UNL     1       2.921   0.164  21.736  0.00  0.00    +0.019 A 
ENDBRANCH  29  30
ENDBRANCH  28  29
ENDBRANCH  27  28
ENDBRANCH  14  25
TORSDOF 9
ENDMDL
MODEL 9
REMARK VINA RESULT:      -8.4      2.015      3.505
REMARK  Name = 
REMARK  9 active torsions:
REMARK  status: ('A' for Active; 'I' for Inactive)
REMARK    1  A    between atoms: S_2  and  C_3
REMARK    2  A    between atoms: C_7  and  N_8
REMARK    3  A    between atoms: N_11  and  C_12
REMARK    4  A    between atoms: C_14  and  C_25
REMARK    5  A    between atoms: C_17  and  C_19
REMARK    6  A    between atoms: N_27  and  C_28
REMARK    7  A    between atoms: C_28  and  C_29
REMARK    8  A    between atoms: C_28  and  C_39
REMARK    9  A    between atoms: C_29  and  C_30
REMARK                            x       y       z     vdW  Elec       q    Type
REMARK                         _______ _______ _______ _____ _____    ______ ____
ROOT
ATOM     12  C   UNL     1      -2.099  -0.333  25.416  0.00  0.00    +0.119 C 
ATOM     13  C   UNL     1      -2.498   0.382  25.313  0.00  0.00    +0.053 C 
ATOM     14  C   UNL     1      -3.234   0.218  24.978  0.00  0.00    +0.156 C 
ATOM     15  N   UNL     1      -3.290  -0.599  24.874  0.00  0.00    -0.266 N 
ATOM     16  C   UNL     1      -2.589  -0.940  25.144  0.00  0.00    +0.116 C 
ATOM     17  C   UNL     1      -3.934  -1.004  24.555  0.00  0.00    +0.265 C 
ATOM     18  O   UNL     1      -4.601  -0.588  24.307  0.00  0.00    -0.268 OA
ENDROOT
BRANCH  17  19
ATOM     19  C   UNL     1      -3.911  -1.826  24.484  0.00  0.00    +0.114 A 
ATOM     20  C   UNL     1      -3.661  -2.355  25.065  0.00  0.00    +0.023 A 
ATOM     21  C   UNL     1      -3.729  -3.120  24.761  0.00  0.00    +0.020 A 
ATOM     22  C   UNL     1      -4.020  -3.062  23.992  0.00  0.00    +0.076 A 
ATOM     23  N   UNL     1      -4.133  -2.262  23.820  0.00  0.00    -0.320 N 
ATOM     24  C   UNL     1      -4.418  -1.954  23.111  0.00  0.00    +0.131 C 
ENDBRANCH  17  19
BRANCH  12  11
ATOM      8  N   UNL     1      -0.784   0.231  24.595  0.00  0.00    -0.161 NA
ATOM      9  C   UNL     1      -0.686  -0.144  25.323  0.00  0.00    +0.343 C 
ATOM     10  O   UNL     1       0.070  -0.237  25.641  0.00  0.00    -0.249 OA
ATOM     11  N   UNL     1      -1.343  -0.426  25.734  0.00  0.00    -0.187 NA
BRANCH   8   7
ATOM      3  C   UNL     1       0.904   0.319  23.213  0.00  0.00    +0.027 A 
ATOM      4  C   UNL     1       1.191   1.077  23.365  0.00  0.00    +0.006 A 
ATOM      5  C   UNL     1       0.819   1.553  23.927  0.00  0.00    +0.002 A 
ATOM      6  C   UNL     1       0.161   1.271  24.337  0.00  0.00    +0.017 A 
ATOM      7  C   UNL     1      -0.126   0.512  24.185  0.00  0.00    +0.075 A 
ATOM     42  C   UNL     1       0.246   0.036  23.622  0.00  0.00    +0.023 A 
BRANCH   3   2
ATOM      1  C   UNL     1       2.070  -0.039  22.470  0.00  0.00    +0.074 C 
ATOM      2  S   UNL     1       1.275  -0.158  22.650  0.00  0.00    -0.113 S 
ENDBRANCH   3   2
ENDBRANCH   8   7
ENDBRANCH  12  11
BRANCH  14  25
ATOM     25  C   UNL     1      -3.812   0.772  24.782  0.00  0.00    +0.260 C 
ATOM     26  O   UNL     1      -4.150   0.767  24.030  0.00  0.00    -0.272 OA
ATOM     27  N   UNL     1      -4.052   1.333  25.338  0.00  0.00    -0.196 NA
BRANCH  27  28
ATOM     28  C   UNL     1      -4.629   1.887  25.142  0.00  0.00    +0.179 C 
BRANCH  28  39
ATOM     39  C   UNL     1      -5.427   1.711  25.263  0.00  0.00    +0.281 C 
ATOM     40  N   UNL     1      -5.973   1.841  24.657  0.00  0.00    -0.086 NA
ATOM     41  O   UNL     1      -5.678   1.407  25.986  0.00  0.00    -0.270 OA
ENDBRANCH  28  39
BRANCH  28  29
ATOM     29  C   UNL     1      -4.411   2.618  24.827  0.00  0.00    +0.059 C 
BRANCH  29  30
ATOM     30  C   UNL     1      -4.083   3.197  25.314  0.00  0.00    +0.001 A 
ATOM     31  C   UNL     1      -4.377   3.437  26.047  0.00  0.00    +0.095 A 
ATOM     32  N   UNL     1      -3.879   4.026  26.340  0.00  0.00    -0.244 NA
ATOM     33  C   UNL     1      -3.278   4.149  25.789  0.00  0.00    +0.081 A 
ATOM     34  C   UNL     1      -3.404   3.637  25.155  0.00  0.00    +0.015 A 
ATOM     35  C   UNL     1      -2.884   3.638  24.515  0.00  0.00    +0.001 A 
ATOM     36  C   UNL     1      -2.238   4.151  24.508  0.00  0.00    +0.000 A 
ATOM     37  C   UNL     1      -2.112   4.663  25.142  0.00  0.00    +0.002 A 
ATOM     38  C   UNL     1      -2.632   4.663  25.783  0.00  0.00    +0.019 A 
ENDBRANCH  29  30
ENDBRANCH  28  29
ENDBRANCH  27  28
ENDBRANCH  14  25
TORSDOF 9
ENDMDL
MODEL 10
REMARK VINA RESULT:      -8.4      1.977      4.564
REMARK  Name = 
REMARK  9 active torsions:
REMARK  status: ('A' for Active; 'I' for Inactive)
REMARK    1  A    between atoms: S_2  and  C_3
REMARK    2  A    between atoms: C_7  and  N_8
REMARK    3  A    between atoms: N_11  and  C_12
REMARK    4  A    between atoms: C_14  and  C_25
REMARK    5  A    between atoms: C_17  and  C_19
REMARK    6  A    between atoms: N_27  and  C_28
REMARK    7  A    between atoms: C_28  and  C_29
REMARK    8  A    between atoms: C_28  and  C_39
REMARK    9  A    between atoms: C_29  and  C_30
REMARK                            x       y       z     vdW  Elec       q    Type
REMARK                         _______ _______ _______ _____ _____    ______ ____
ROOT
ATOM     12  C   UNL     1      -1.126   2.192  25.268  0.00  0.00    +0.119 C 
ATOM     13  C   UNL     1      -1.733   1.667  25.077  0.00  0.00    +0.053 C 
ATOM     14  C   UNL     1      -2.415   2.109  24.932  0.00  0.00    +0.156 C 
ATOM     15  N   UNL     1      -2.229   2.906  25.034  0.00  0.00    -0.266 N 
ATOM     16  C   UNL     1      -1.432   2.958  25.241  0.00  0.00    +0.116 C 
ATOM     17  C   UNL     1      -2.748   3.541  24.944  0.00  0.00    +0.265 C 
ATOM     18  O   UNL     1      -3.534   3.404  24.734  0.00  0.00    -0.268 OA
ENDROOT
BRANCH  17  19
ATOM     19  C   UNL     1      -2.481   4.312  25.064  0.00  0.00    +0.114 A 
ATOM     20  C   UNL     1      -1.918   4.706  24.609  0.00  0.00    +0.023 A 
ATOM     21  C   UNL     1      -1.819   5.463  24.924  0.00  0.00    +0.020 A 
ATOM     22  C   UNL     1      -2.322   5.536  25.573  0.00  0.00    +0.076 A 
ATOM     23  N   UNL     1      -2.732   4.824  25.660  0.00  0.00    -0.320 N 
ATOM     24  C   UNL     1      -3.292   4.656  26.241  0.00  0.00    +0.131 C 
ENDBRANCH  17  19
BRANCH  12  11
ATOM      8  N   UNL     1      -0.365   0.995  24.423  0.00  0.00    -0.161 NA
ATOM      9  C   UNL     1       0.032   1.388  25.030  0.00  0.00    +0.343 C 
ATOM     10  O   UNL     1       0.810   1.183  25.215  0.00  0.00    -0.249 OA
ATOM     11  N   UNL     1      -0.348   1.986  25.453  0.00  0.00    -0.187 NA
BRANCH   8   7
ATOM      3  C   UNL     1       0.946  -0.008  22.995  0.00  0.00    +0.027 A 
ATOM      4  C   UNL     1       0.777  -0.799  23.157  0.00  0.00    +0.006 A 
ATOM      5  C   UNL     1       0.226  -0.992  23.741  0.00  0.00    +0.002 A 
ATOM      6  C   UNL     1      -0.154  -0.393  24.163  0.00  0.00    +0.017 A 
ATOM      7  C   UNL     1       0.016   0.397  24.001  0.00  0.00    +0.075 A 
ATOM     42  C   UNL     1       0.566   0.590  23.417  0.00  0.00    +0.023 A 
BRANCH   3   2
ATOM      1  C   UNL     1       2.270  -0.093  22.467  0.00  0.00    +0.074 C 
ATOM      2  S   UNL     1       1.497   0.184  22.411  0.00  0.00    -0.113 S 
ENDBRANCH   3   2
ENDBRANCH   8   7
ENDBRANCH  12  11
BRANCH  14  25
ATOM     25  C   UNL     1      -3.153   1.806  24.723  0.00  0.00    +0.260 C 
ATOM     26  O   UNL     1      -3.516   2.050  24.024  0.00  0.00    -0.272 OA
ATOM     27  N   UNL     1      -3.529   1.259  25.214  0.00  0.00    -0.196 NA
BRANCH  27  28
ATOM     28  C   UNL     1      -4.267   0.956  25.005  0.00  0.00    +0.179 C 
BRANCH  28  39
ATOM     39  C   UNL     1      -4.954   1.361  25.220  0.00  0.00    +0.281 C 
ATOM     40  N   UNL     1      -5.504   1.575  24.642  0.00  0.00    -0.086 NA
ATOM     41  O   UNL     1      -5.091   1.550  26.010  0.00  0.00    -0.270 OA
ENDBRANCH  28  39
BRANCH  28  29
ATOM     29  C   UNL     1      -4.319   0.250  24.581  0.00  0.00    +0.059 C 
BRANCH  29  30
ATOM     30  C   UNL     1      -4.068  -0.456  24.923  0.00  0.00    +0.001 A 
ATOM     31  C   UNL     1      -3.832  -0.558  25.708  0.00  0.00    +0.095 A 
ATOM     32  N   UNL     1      -3.627  -1.350  25.811  0.00  0.00    -0.244 NA
ATOM     33  C   UNL     1      -3.737  -1.738  25.092  0.00  0.00    +0.081 A 
ATOM     34  C   UNL     1      -4.009  -1.185  24.543  0.00  0.00    +0.015 A 
ATOM     35  C   UNL     1      -4.169  -1.419  23.768  0.00  0.00    +0.001 A 
ATOM     36  C   UNL     1      -4.056  -2.203  23.541  0.00  0.00    +0.000 A 
ATOM     37  C   UNL     1      -3.783  -2.756  24.090  0.00  0.00    +0.002 A 
ATOM     38  C   UNL     1      -3.623  -2.524  24.865  0.00  0.00    +0.019 A 
ENDBRANCH  29  30
ENDBRANCH  28  29
ENDBRANCH  27  28
ENDBRANCH  14  25
TORSDOF 9
ENDMDL
