MODEL 1
REMARK VINA RESULT:     -13.0      0.000      0.000
REMARK  Name = 
REMARK  4 active torsions:
REMARK  status: ('A' for Active; 'I' for Inactive)
REMARK    1  A    between atoms: N_2  and  C_4
REMARK    2  A    between atoms: C_4  and  C_5
REMARK    3  A    between atoms: C_14  and  C_21
REMARK    4  A    between atoms: C_23  and  C_27
REMARK                            x       y       z     vdW  Elec       q    Type
REMARK                         _______ _______ _______ _____ _____    ______ ____
ROOT
ATOM      5  C   UNL     1      -4.325   2.717  24.284  0.00  0.00    +0.242 C 
ATOM      6  O   UNL     1      -4.493   3.514  24.152  0.00  0.00    -0.273 OA
ATOM      7  N   UNL     1      -3.688   2.360  23.899  0.00  0.00    -0.278 N 
ATOM      8  C   UNL     1      -3.023   2.285  23.399  0.00  0.00    +0.095 C 
ATOM      9  C   UNL     1      -2.811   1.331  23.549  0.00  0.00    +0.043 C 
ATOM     10  C   UNL     1      -2.510   0.575  23.562  0.00  0.00    +0.011 C 
ATOM     11  C   UNL     1      -3.037   0.928  23.861  0.00  0.00    +0.058 C 
ATOM     12  C   UNL     1      -3.229   1.851  23.706  0.00  0.00    +0.099 C 
ATOM     13  C   UNL     1      -3.735   0.821  24.449  0.00  0.00    +0.041 A 
ATOM     14  C   UNL     1      -4.092   0.247  24.922  0.00  0.00    +0.012 A 
ATOM     15  C   UNL     1      -4.751   0.441  25.379  0.00  0.00    +0.006 A 
ATOM     16  C   UNL     1      -5.054   1.208  25.363  0.00  0.00    +0.061 A 
ATOM     17  C   UNL     1      -4.697   1.782  24.890  0.00  0.00    +0.261 A 
ATOM     18  O   UNL     1      -5.286   2.274  25.192  0.00  0.00    -0.267 OA
ATOM     19  N   UNL     1      -4.038   1.589  24.433  0.00  0.00    -0.299 N 
ATOM     20  C   UNL     1      -3.543   1.229  24.162  0.00  0.00    +0.110 C 
ENDROOT
BRANCH  14  21
ATOM     21  C   UNL     1      -3.789  -0.520  24.939  0.00  0.00    +0.002 A 
ATOM     22  C   UNL     1      -4.091  -1.093  24.428  0.00  0.00    +0.010 A 
ATOM     23  C   UNL     1      -3.789  -1.861  24.444  0.00  0.00    +0.068 A 
ATOM     24  C   UNL     1      -3.184  -2.055  24.971  0.00  0.00    +0.010 A 
ATOM     25  C   UNL     1      -2.882  -1.482  25.482  0.00  0.00    +0.001 A 
ATOM     26  C   UNL     1      -3.185  -0.714  25.465  0.00  0.00    +0.000 A 
BRANCH  23  27
ATOM     27  C   UNL     1      -4.091  -2.434  23.934  0.00  0.00    +0.100 C 
ATOM     28  N   UNL     1      -4.394  -3.008  23.423  0.00  0.00    -0.191 NA
ENDBRANCH  23  27
ENDBRANCH  14  21
BRANCH   5   4
ATOM      4  C   UNL     1      -4.794   2.277  24.802  0.00  0.00    +0.159 C 
BRANCH   4   2
ATOM      1  C   UNL     1      -6.196   2.507  24.954  0.00  0.00    +0.090 C 
ATOM      2  N   UNL     1      -5.420   2.638  25.199  0.00  0.00    -0.263 NA
ATOM      3  C   UNL     1      -5.269   3.133  25.843  0.00  0.00    +0.090 C 
ENDBRANCH   4   2
ENDBRANCH   5   4
TORSDOF 4
ENDMDL
MODEL 2
REMARK VINA RESULT:     -12.8      1.291      2.276
REMARK  Name = 
REMARK  4 active torsions:
REMARK  status: ('A' for Active; 'I' for Inactive)
REMARK    1  A    between atoms: N_2  and  C_4
REMARK    2  A    between atoms: C_4  and  C_5
REMARK    3  A    between atoms: C_14  and  C_21
REMARK    4  A    between atoms: C_23  and  C_27
REMARK                            x       y       z     vdW  Elec       q    Type
REMARK                         _______ _______ _______ _____ _____    ______ ____
ROOT
ATOM      5  C   UNL     1      -4.081   3.411  25.374  0.00  0.00    +0.242 C 
ATOM      6  O   UNL     1      -4.135   4.207  25.583  0.00  0.00    -0.273 OA
ATOM      7  N   UNL     1      -4.760   2.941  25.362  0.00  0.00    -0.278 N 
ATOM      8  C   UNL     1      -5.566   2.734  25.436  0.00  0.00    +0.095 C 
ATOM      9  C   UNL     1      -5.516   1.779  25.188  0.00  0.00    +0.043 C 
ATOM     10  C   UNL     1      -5.642   0.994  25.010  0.00  0.00    +0.011 C 
ATOM     11  C   UNL     1      -5.100   1.439  25.038  0.00  0.00    +0.058 C 
ATOM     12  C   UNL     1      -5.165   2.361  25.280  0.00  0.00    +0.099 C 
ATOM     13  C   UNL     1      -4.191   1.477  24.905  0.00  0.00    +0.041 A 
ATOM     14  C   UNL     1      -3.555   1.000  24.686  0.00  0.00    +0.012 A 
ATOM     15  C   UNL     1      -2.795   1.318  24.647  0.00  0.00    +0.006 A 
ATOM     16  C   UNL     1      -2.671   2.114  24.827  0.00  0.00    +0.061 A 
ATOM     17  C   UNL     1      -3.307   2.591  25.047  0.00  0.00    +0.261 A 
ATOM     18  O   UNL     1      -2.733   3.180  25.105  0.00  0.00    -0.267 OA
ATOM     19  N   UNL     1      -4.067   2.273  25.086  0.00  0.00    -0.299 N 
ATOM     20  C   UNL     1      -4.566   1.829  25.052  0.00  0.00    +0.110 C 
ENDROOT
BRANCH  14  21
ATOM     21  C   UNL     1      -3.680   0.205  24.505  0.00  0.00    +0.002 A 
ATOM     22  C   UNL     1      -3.526  -0.376  25.070  0.00  0.00    +0.010 A 
ATOM     23  C   UNL     1      -3.651  -1.171  24.890  0.00  0.00    +0.068 A 
ATOM     24  C   UNL     1      -3.929  -1.386  24.143  0.00  0.00    +0.010 A 
ATOM     25  C   UNL     1      -4.082  -0.806  23.578  0.00  0.00    +0.001 A 
ATOM     26  C   UNL     1      -3.958  -0.011  23.758  0.00  0.00    +0.000 A 
BRANCH  23  27
ATOM     27  C   UNL     1      -3.497  -1.751  25.455  0.00  0.00    +0.100 C 
ATOM     28  N   UNL     1      -3.343  -2.332  26.021  0.00  0.00    -0.191 NA
ENDBRANCH  23  27
ENDBRANCH  14  21
BRANCH   5   4
ATOM      4  C   UNL     1      -3.349   3.084  25.178  0.00  0.00    +0.159 C 
BRANCH   4   2
ATOM      1  C   UNL     1      -2.243   3.612  25.912  0.00  0.00    +0.090 C 
ATOM      2  N   UNL     1      -2.669   3.549  25.209  0.00  0.00    -0.263 NA
ATOM      3  C   UNL     1      -2.414   3.951  24.534  0.00  0.00    +0.090 C 
ENDBRANCH   4   2
ENDBRANCH   5   4
TORSDOF 4
ENDMDL
MODEL 3
REMARK VINA RESULT:     -12.5      2.020      4.189
REMARK  Name = 
REMARK  4 active torsions:
REMARK  status: ('A' for Active; 'I' for Inactive)
REMARK    1  A    between atoms: N_2  and  C_4
REMARK    2  A    between atoms: C_4  and  C_5
REMARK    3  A    between atoms: C_14  and  C_21
REMARK    4  A    between atoms: C_23  and  C_27
REMARK                            x       y       z     vdW  Elec       q    Type
REMARK                         _______ _______ _______ _____ _____    ______ ____
ROOT
ATOM      5  C   UNL     1      -2.225  -1.626  24.714  0.00  0.00    +0.242 C 
ATOM      6  O   UNL     1      -1.869  -2.365  24.787  0.00  0.00    -0.273 OA
ATOM      7  N   UNL     1      -3.021  -1.571  24.503  0.00  0.00    -0.278 N 
ATOM      8  C   UNL     1      -3.790  -1.819  24.291  0.00  0.00    +0.095 C 
ATOM      9  C   UNL     1      -4.230  -0.939  24.199  0.00  0.00    +0.043 C 
ATOM     10  C   UNL     1      -4.729  -0.306  24.084  0.00  0.00    +0.011 C 
ATOM     11  C   UNL     1      -4.058  -0.412  24.260  0.00  0.00    +0.058 C 
ATOM     12  C   UNL     1      -3.648  -1.270  24.345  0.00  0.00    +0.099 C 
ATOM     13  C   UNL     1      -3.290   0.042  24.478  0.00  0.00    +0.041 A 
ATOM     14  C   UNL     1      -3.006   0.810  24.576  0.00  0.00    +0.012 A 
ATOM     15  C   UNL     1      -2.219   0.935  24.790  0.00  0.00    +0.006 A 
ATOM     16  C   UNL     1      -1.716   0.291  24.905  0.00  0.00    +0.061 A 
ATOM     17  C   UNL     1      -2.000  -0.477  24.807  0.00  0.00    +0.261 A 
ATOM     18  O   UNL     1      -1.230  -0.694  25.006  0.00  0.00    -0.267 OA
ATOM     19  N   UNL     1      -2.787  -0.601  24.594  0.00  0.00    -0.299 N 
ATOM     20  C   UNL     1      -3.422  -0.473  24.428  0.00  0.00    +0.110 C 
ENDROOT
BRANCH  14  21
ATOM     21  C   UNL     1      -3.509   1.454  24.461  0.00  0.00    +0.002 A 
ATOM     22  C   UNL     1      -3.976   1.729  25.083  0.00  0.00    +0.010 A 
ATOM     23  C   UNL     1      -4.479   2.373  24.967  0.00  0.00    +0.068 A 
ATOM     24  C   UNL     1      -4.516   2.741  24.230  0.00  0.00    +0.010 A 
ATOM     25  C   UNL     1      -4.049   2.466  23.608  0.00  0.00    +0.001 A 
ATOM     26  C   UNL     1      -3.546   1.823  23.724  0.00  0.00    +0.000 A 
BRANCH  23  27
ATOM     27  C   UNL     1      -4.946   2.648  25.589  0.00  0.00    +0.100 C 
ATOM     28  N   UNL     1      -5.414   2.924  26.211  0.00  0.00    -0.191 NA
ENDBRANCH  23  27
ENDBRANCH  14  21
BRANCH   5   4
ATOM      4  C   UNL     1      -1.786  -0.940  24.851  0.00  0.00    +0.159 C 
BRANCH   4   2
ATOM      1  C   UNL     1      -0.408  -0.971  24.476  0.00  0.00    +0.090 C 
ATOM      2  N   UNL     1      -0.991  -0.995  25.059  0.00  0.00    -0.263 NA
ATOM      3  C   UNL     1      -0.777  -1.075  25.853  0.00  0.00    +0.090 C 
ENDBRANCH   4   2
ENDBRANCH   5   4
TORSDOF 4
ENDMDL
MODEL 4
REMARK VINA RESULT:     -11.7      1.903      2.784
REMARK  Name = 
REMARK  4 active torsions:
REMARK  status: ('A' for Active; 'I' for Inactive)
REMARK    1  A    between atoms: N_2  and  C_4
REMARK    2  A    between atoms: C_4  and  C_5
REMARK    3  A    between atoms: C_14  and  C_21
REMARK    4  A    between atoms: C_23  and  C_27
REMARK                            x       y       z     vdW  Elec       q    Type
REMARK                         _______ _______ _______ _____ _____    ______ ____
ROOT
ATOM      5  C   UNL     1      -1.632   2.414  24.467  0.00  0.00    +0.242 C 
ATOM      6  O   UNL     1      -1.343   3.161  24.272  0.00  0.00    -0.273 OA
ATOM      7  N   UNL     1      -2.417   2.219  24.302  0.00  0.00    -0.278 N 
ATOM      8  C   UNL     1      -3.201   2.311  24.029  0.00  0.00    +0.095 C 
ATOM      9  C   UNL     1      -3.561   1.419  24.257  0.00  0.00    +0.043 C 
ATOM     10  C   UNL     1      -4.001   0.744  24.378  0.00  0.00    +0.011 C 
ATOM     11  C   UNL     1      -3.345   0.963  24.495  0.00  0.00    +0.058 C 
ATOM     12  C   UNL     1      -3.012   1.829  24.268  0.00  0.00    +0.099 C 
ATOM     13  C   UNL     1      -2.542   0.682  24.844  0.00  0.00    +0.041 A 
ATOM     14  C   UNL     1      -2.194   0.024  25.198  0.00  0.00    +0.012 A 
ATOM     15  C   UNL     1      -1.402   0.051  25.429  0.00  0.00    +0.006 A 
ATOM     16  C   UNL     1      -0.959   0.736  25.305  0.00  0.00    +0.061 A 
ATOM     17  C   UNL     1      -1.308   1.394  24.950  0.00  0.00    +0.261 A 
ATOM     18  O   UNL     1      -0.563   1.733  25.048  0.00  0.00    -0.267 OA
ATOM     19  N   UNL     1      -2.099   1.367  24.720  0.00  0.00    -0.299 N 
ATOM     20  C   UNL     1      -2.719   1.134  24.620  0.00  0.00    +0.110 C 
ENDROOT
BRANCH  14  21
ATOM     21  C   UNL     1      -2.637  -0.661  25.323  0.00  0.00    +0.002 A 
ATOM     22  C   UNL     1      -2.628  -1.265  24.761  0.00  0.00    +0.010 A 
ATOM     23  C   UNL     1      -3.071  -1.950  24.885  0.00  0.00    +0.068 A 
ATOM     24  C   UNL     1      -3.523  -2.031  25.571  0.00  0.00    +0.010 A 
ATOM     25  C   UNL     1      -3.532  -1.427  26.132  0.00  0.00    +0.001 A 
ATOM     26  C   UNL     1      -3.089  -0.742  26.008  0.00  0.00    +0.000 A 
BRANCH  23  27
ATOM     27  C   UNL     1      -3.062  -2.555  24.324  0.00  0.00    +0.100 C 
ATOM     28  N   UNL     1      -3.053  -3.160  23.763  0.00  0.00    -0.191 NA
ENDBRANCH  23  27
ENDBRANCH  14  21
BRANCH   5   4
ATOM      4  C   UNL     1      -1.137   1.860  24.826  0.00  0.00    +0.159 C 
BRANCH   4   2
ATOM      1  C   UNL     1      -0.157   2.399  25.716  0.00  0.00    +0.090 C 
ATOM      2  N   UNL     1      -0.353   2.055  24.992  0.00  0.00    -0.263 NA
ATOM      3  C   UNL     1       0.236   1.906  24.434  0.00  0.00    +0.090 C 
ENDBRANCH   4   2
ENDBRANCH   5   4
TORSDOF 4
ENDMDL
