MODEL 1
REMARK VINA RESULT:     -12.4      0.000      0.000
REMARK  Name = 
REMARK  8 active torsions:
REMARK  status: ('A' for Active; 'I' for Inactive)
REMARK    1  A    between atoms: O_2  and  C_3
REMARK    2  A    between atoms: C_6  and  C_7
REMARK    3  A    between atoms: C_7  and  N_8
REMARK    4  A    between atoms: C_9  and  C_11
REMARK    5  A    between atoms: C_11  and  C_13
REMARK    6  A    between atoms: C_20  and  N_21
REMARK    7  A    between atoms: C_22  and  C_24
REMARK    8  A    between atoms: C_24  and  C_25
REMARK                            x       y       z     vdW  Elec       q    Type
REMARK                         _______ _______ _______ _____ _____    ______ ____
ROOT
ATOM     13  C   UNL     1      -0.166   2.226  25.171  0.00  0.00    +0.039 C 
ATOM     14  C   UNL     1       0.253   2.285  24.462  0.00  0.00    +0.003 C 
ATOM     15  C   UNL     1       0.354   1.620  23.987  0.00  0.00    +0.000 C 
ATOM     16  C   UNL     1       0.037   0.895  24.219  0.00  0.00    +0.002 C 
ATOM     17  C   UNL     1       0.456   0.954  23.511  0.00  0.00    +0.000 C 
ATOM     18  C   UNL     1       0.139   0.228  23.743  0.00  0.00    +0.002 C 
ATOM     19  C   UNL     1      -0.178  -0.497  23.975  0.00  0.00    +0.022 C 
ATOM     20  C   UNL     1      -0.598  -0.556  24.684  0.00  0.00    +0.095 C 
ATOM     31  C   UNL     1      -0.699   0.110  25.159  0.00  0.00    +0.022 C 
ATOM     32  C   UNL     1      -1.118   0.050  25.868  0.00  0.00    +0.002 C 
ATOM     33  C   UNL     1      -0.382   0.836  24.928  0.00  0.00    +0.032 C 
ATOM     34  C   UNL     1      -0.483   1.501  25.403  0.00  0.00    +0.152 C 
ATOM     35  O   UNL     1      -0.902   1.442  26.112  0.00  0.00    -0.223 OA
ENDROOT
BRANCH  20  21
ATOM     21  N   UNL     1      -0.915  -1.282  24.915  0.00  0.00    -0.207 NA
ATOM     22  C   UNL     1      -1.333  -1.741  24.372  0.00  0.00    +0.246 C 
ATOM     23  O   UNL     1      -1.434  -1.474  23.597  0.00  0.00    -0.273 OA
BRANCH  22  24
ATOM     24  C   UNL     1      -1.650  -2.466  24.602  0.00  0.00    +0.113 C 
BRANCH  24  25
ATOM     25  C   UNL     1      -2.466  -2.588  24.571  0.00  0.00    -0.013 A 
ATOM     26  C   UNL     1      -2.924  -2.497  25.251  0.00  0.00    -0.004 A 
ATOM     27  C   UNL     1      -3.739  -2.618  25.219  0.00  0.00    -0.000 A 
ATOM     28  C   UNL     1      -4.097  -2.831  24.507  0.00  0.00    -0.000 A 
ATOM     29  C   UNL     1      -3.640  -2.922  23.827  0.00  0.00    -0.000 A 
ATOM     30  C   UNL     1      -2.824  -2.800  23.858  0.00  0.00    -0.004 A 
ENDBRANCH  24  25
ENDBRANCH  22  24
ENDBRANCH  20  21
BRANCH  13  11
ATOM     11  C   UNL     1      -0.268   2.893  25.647  0.00  0.00    +0.081 C 
ATOM     12  C   UNL     1       0.139   2.954  26.363  0.00  0.00    +0.010 C 
BRANCH  11   9
ATOM      8  N   UNL     1      -1.579   3.456  25.585  0.00  0.00    -0.201 NA
ATOM      9  C   UNL     1      -0.775   3.498  25.409  0.00  0.00    +0.241 C 
ATOM     10  O   UNL     1      -0.477   4.146  24.993  0.00  0.00    -0.273 OA
BRANCH   8   7
ATOM      7  C   UNL     1      -2.086   4.061  25.347  0.00  0.00    +0.141 C 
BRANCH   7   6
ATOM      3  C   UNL     1      -4.537   3.723  25.409  0.00  0.00    +0.139 A 
ATOM      4  C   UNL     1      -4.130   3.658  24.694  0.00  0.00    +0.037 A 
ATOM      5  C   UNL     1      -3.313   3.771  24.674  0.00  0.00    +0.001 A 
ATOM      6  C   UNL     1      -2.903   3.949  25.367  0.00  0.00    -0.000 A 
ATOM     36  C   UNL     1      -3.310   4.014  26.081  0.00  0.00    +0.001 A 
ATOM     37  C   UNL     1      -4.127   3.901  26.103  0.00  0.00    +0.037 A 
BRANCH   3   2
ATOM      1  C   UNL     1      -5.663   2.854  25.535  0.00  0.00    +0.252 C 
ATOM      2  O   UNL     1      -5.354   3.611  25.430  0.00  0.00    -0.471 OA
ENDBRANCH   3   2
ENDBRANCH   7   6
ENDBRANCH   8   7
ENDBRANCH  11   9
ENDBRANCH  13  11
TORSDOF 8
ENDMDL
MODEL 2
REMARK VINA RESULT:     -11.5      1.594      4.026
REMARK  Name = 
REMARK  8 active torsions:
REMARK  status: ('A' for Active; 'I' for Inactive)
REMARK    1  A    between atoms: O_2  and  C_3
REMARK    2  A    between atoms: C_6  and  C_7
REMARK    3  A    between atoms: C_7  and  N_8
REMARK    4  A    between atoms: C_9  and  C_11
REMARK    5  A    between atoms: C_11  and  C_13
REMARK    6  A    between atoms: C_20  and  N_21
REMARK    7  A    between atoms: C_22  and  C_24
REMARK    8  A    between atoms: C_24  and  C_25
REMARK                            x       y       z     vdW  Elec       q    Type
REMARK                         _______ _______ _______ _____ _____    ______ ____
ROOT
ATOM     13  C   UNL     1      -4.233   3.366  25.055  0.00  0.00    +0.039 C 
ATOM     14  C   UNL     1      -4.817   3.361  25.640  0.00  0.00    +0.003 C 
ATOM     15  C   UNL     1      -5.245   2.673  25.789  0.00  0.00    +0.000 C 
ATOM     16  C   UNL     1      -5.091   1.989  25.355  0.00  0.00    +0.002 C 
ATOM     17  C   UNL     1      -5.674   1.984  25.938  0.00  0.00    +0.000 C 
ATOM     18  C   UNL     1      -5.520   1.300  25.503  0.00  0.00    +0.002 C 
ATOM     19  C   UNL     1      -5.366   0.616  25.069  0.00  0.00    +0.022 C 
ATOM     20  C   UNL     1      -4.783   0.621  24.485  0.00  0.00    +0.095 C 
ATOM     31  C   UNL     1      -4.354   1.309  24.336  0.00  0.00    +0.022 C 
ATOM     32  C   UNL     1      -3.771   1.314  23.752  0.00  0.00    +0.002 C 
ATOM     33  C   UNL     1      -4.508   1.994  24.770  0.00  0.00    +0.032 C 
ATOM     34  C   UNL     1      -4.079   2.682  24.621  0.00  0.00    +0.152 C 
ATOM     35  O   UNL     1      -3.497   2.687  24.037  0.00  0.00    -0.223 OA
ENDROOT
BRANCH  20  21
ATOM     21  N   UNL     1      -4.629  -0.064  24.051  0.00  0.00    -0.207 NA
ATOM     22  C   UNL     1      -4.395  -0.754  24.438  0.00  0.00    +0.246 C 
ATOM     23  O   UNL     1      -4.314  -0.759  25.260  0.00  0.00    -0.273 OA
BRANCH  22  24
ATOM     24  C   UNL     1      -4.241  -1.439  24.005  0.00  0.00    +0.113 C 
BRANCH  24  25
ATOM     25  C   UNL     1      -3.636  -1.948  24.242  0.00  0.00    -0.013 A 
ATOM     26  C   UNL     1      -2.847  -1.735  24.126  0.00  0.00    -0.004 A 
ATOM     27  C   UNL     1      -2.244  -2.244  24.362  0.00  0.00    -0.000 A 
ATOM     28  C   UNL     1      -2.427  -2.967  24.714  0.00  0.00    -0.000 A 
ATOM     29  C   UNL     1      -3.216  -3.181  24.830  0.00  0.00    -0.000 A 
ATOM     30  C   UNL     1      -3.821  -2.671  24.593  0.00  0.00    -0.004 A 
ENDBRANCH  24  25
ENDBRANCH  22  24
ENDBRANCH  20  21
BRANCH  13  11
ATOM     11  C   UNL     1      -3.805   4.055  24.907  0.00  0.00    +0.081 C 
ATOM     12  C   UNL     1      -4.082   4.601  24.353  0.00  0.00    +0.010 C 
BRANCH  11   9
ATOM      8  N   UNL     1      -2.380   3.973  24.978  0.00  0.00    -0.201 NA
ATOM      9  C   UNL     1      -3.099   4.199  25.310  0.00  0.00    +0.241 C 
ATOM     10  O   UNL     1      -3.115   4.570  26.048  0.00  0.00    -0.273 OA
BRANCH   8   7
ATOM      7  C   UNL     1      -1.676   4.117  25.381  0.00  0.00    +0.141 C 
BRANCH   7   6
ATOM      3  C   UNL     1       0.262   2.608  25.072  0.00  0.00    +0.139 A 
ATOM      4  C   UNL     1      -0.172   2.584  25.773  0.00  0.00    +0.037 A 
ATOM      5  C   UNL     1      -0.817   3.088  25.876  0.00  0.00    +0.001 A 
ATOM      6  C   UNL     1      -1.030   3.614  25.278  0.00  0.00    -0.000 A 
ATOM     36  C   UNL     1      -0.597   3.638  24.577  0.00  0.00    +0.001 A 
ATOM     37  C   UNL     1       0.049   3.135  24.473  0.00  0.00    +0.037 A 
BRANCH   3   2
ATOM      1  C   UNL     1       0.898   1.540  24.368  0.00  0.00    +0.252 C 
ATOM      2  O   UNL     1       0.907   2.106  24.968  0.00  0.00    -0.471 OA
ENDBRANCH   3   2
ENDBRANCH   7   6
ENDBRANCH   8   7
ENDBRANCH  11   9
ENDBRANCH  13  11
TORSDOF 8
ENDMDL
MODEL 3
REMARK VINA RESULT:     -11.3      2.439      5.887
REMARK  Name = 
REMARK  8 active torsions:
REMARK  status: ('A' for Active; 'I' for Inactive)
REMARK    1  A    between atoms: O_2  and  C_3
REMARK    2  A    between atoms: C_6  and  C_7
REMARK    3  A    between atoms: C_7  and  N_8
REMARK    4  A    between atoms: C_9  and  C_11
REMARK    5  A    between atoms: C_11  and  C_13
REMARK    6  A    between atoms: C_20  and  N_21
REMARK    7  A    between atoms: C_22  and  C_24
REMARK    8  A    between atoms: C_24  and  C_25
REMARK                            x       y       z     vdW  Elec       q    Type
REMARK                         _______ _______ _______ _____ _____    ______ ____
ROOT
ATOM     13  C   UNL     1      -0.036   0.811  23.933  0.00  0.00    +0.039 C 
ATOM     14  C   UNL     1       0.437   1.355  24.336  0.00  0.00    +0.003 C 
ATOM     15  C   UNL     1       0.116   2.069  24.596  0.00  0.00    +0.000 C 
ATOM     16  C   UNL     1      -0.678   2.239  24.453  0.00  0.00    +0.002 C 
ATOM     17  C   UNL     1      -0.206   2.782  24.855  0.00  0.00    +0.000 C 
ATOM     18  C   UNL     1      -1.001   2.953  24.712  0.00  0.00    +0.002 C 
ATOM     19  C   UNL     1      -1.795   3.124  24.570  0.00  0.00    +0.022 C 
ATOM     20  C   UNL     1      -2.268   2.580  24.167  0.00  0.00    +0.095 C 
ATOM     31  C   UNL     1      -1.946   1.866  23.907  0.00  0.00    +0.022 C 
ATOM     32  C   UNL     1      -2.419   1.323  23.505  0.00  0.00    +0.002 C 
ATOM     33  C   UNL     1      -1.151   1.695  24.050  0.00  0.00    +0.032 C 
ATOM     34  C   UNL     1      -0.830   0.982  23.790  0.00  0.00    +0.152 C 
ATOM     35  O   UNL     1      -1.302   0.439  23.388  0.00  0.00    -0.223 OA
ENDROOT
BRANCH  20  21
ATOM     21  N   UNL     1      -3.062   2.751  24.024  0.00  0.00    -0.207 NA
ATOM     22  C   UNL     1      -3.530   3.068  24.626  0.00  0.00    +0.246 C 
ATOM     23  O   UNL     1      -3.202   3.214  25.370  0.00  0.00    -0.273 OA
BRANCH  22  24
ATOM     24  C   UNL     1      -4.324   3.239  24.485  0.00  0.00    +0.113 C 
BRANCH  24  25
ATOM     25  C   UNL     1      -4.912   2.853  24.917  0.00  0.00    -0.013 A 
ATOM     26  C   UNL     1      -5.296   2.197  24.597  0.00  0.00    -0.004 A 
ATOM     27  C   UNL     1      -5.883   1.812  25.029  0.00  0.00    -0.000 A 
ATOM     28  C   UNL     1      -6.087   2.083  25.782  0.00  0.00    -0.000 A 
ATOM     29  C   UNL     1      -5.703   2.739  26.102  0.00  0.00    -0.000 A 
ATOM     30  C   UNL     1      -5.115   3.125  25.669  0.00  0.00    -0.004 A 
ENDBRANCH  24  25
ENDBRANCH  22  24
ENDBRANCH  20  21
BRANCH  13  11
ATOM     11  C   UNL     1       0.287   0.098  23.673  0.00  0.00    +0.081 C 
ATOM     12  C   UNL     1       0.061  -0.611  24.031  0.00  0.00    +0.010 C 
BRANCH  11   9
ATOM      8  N   UNL     1       1.643   0.101  23.223  0.00  0.00    -0.201 NA
ATOM      9  C   UNL     1       0.835   0.091  23.057  0.00  0.00    +0.241 C 
ATOM     10  O   UNL     1       0.575   0.075  22.273  0.00  0.00    -0.273 OA
BRANCH   8   7
ATOM      7  C   UNL     1       2.190   0.095  22.606  0.00  0.00    +0.141 C 
BRANCH   7   6
ATOM      3  C   UNL     1       4.608   0.302  23.094  0.00  0.00    +0.139 A 
ATOM      4  C   UNL     1       4.213  -0.402  23.262  0.00  0.00    +0.037 A 
ATOM      5  C   UNL     1       3.406  -0.470  23.100  0.00  0.00    +0.001 A 
ATOM      6  C   UNL     1       2.996   0.164  22.769  0.00  0.00    -0.000 A 
ATOM     36  C   UNL     1       3.392   0.868  22.600  0.00  0.00    +0.001 A 
ATOM     37  C   UNL     1       4.198   0.938  22.763  0.00  0.00    +0.037 A 
BRANCH   3   2
ATOM      1  C   UNL     1       5.726   0.047  23.946  0.00  0.00    +0.252 C 
ATOM      2  O   UNL     1       5.414   0.372  23.256  0.00  0.00    -0.471 OA
ENDBRANCH   3   2
ENDBRANCH   7   6
ENDBRANCH   8   7
ENDBRANCH  11   9
ENDBRANCH  13  11
TORSDOF 8
ENDMDL
MODEL 4
REMARK VINA RESULT:     -10.8      2.306      4.425
REMARK  Name = 
REMARK  8 active torsions:
REMARK  status: ('A' for Active; 'I' for Inactive)
REMARK    1  A    between atoms: O_2  and  C_3
REMARK    2  A    between atoms: C_6  and  C_7
REMARK    3  A    between atoms: C_7  and  N_8
REMARK    4  A    between atoms: C_9  and  C_11
REMARK    5  A    between atoms: C_11  and  C_13
REMARK    6  A    between atoms: C_20  and  N_21
REMARK    7  A    between atoms: C_22  and  C_24
REMARK    8  A    between atoms: C_24  and  C_25
REMARK                            x       y       z     vdW  Elec       q    Type
REMARK                         _______ _______ _______ _____ _____    ______ ____
ROOT
ATOM     13  C   UNL     1      -1.490   0.264  24.886  0.00  0.00    +0.039 C 
ATOM     14  C   UNL     1      -1.455   1.054  25.126  0.00  0.00    +0.003 C 
ATOM     15  C   UNL     1      -0.817   1.525  24.902  0.00  0.00    +0.000 C 
ATOM     16  C   UNL     1      -0.213   1.208  24.438  0.00  0.00    +0.002 C 
ATOM     17  C   UNL     1      -0.178   1.996  24.678  0.00  0.00    +0.000 C 
ATOM     18  C   UNL     1       0.427   1.679  24.214  0.00  0.00    +0.002 C 
ATOM     19  C   UNL     1       1.030   1.363  23.750  0.00  0.00    +0.022 C 
ATOM     20  C   UNL     1       0.996   0.573  23.510  0.00  0.00    +0.095 C 
ATOM     31  C   UNL     1       0.357   0.102  23.734  0.00  0.00    +0.022 C 
ATOM     32  C   UNL     1       0.323  -0.687  23.495  0.00  0.00    +0.002 C 
ATOM     33  C   UNL     1      -0.247   0.418  24.198  0.00  0.00    +0.032 C 
ATOM     34  C   UNL     1      -0.886  -0.053  24.422  0.00  0.00    +0.152 C 
ATOM     35  O   UNL     1      -0.920  -0.841  24.182  0.00  0.00    -0.223 OA
ENDROOT
BRANCH  20  21
ATOM     21  N   UNL     1       1.600   0.256  23.047  0.00  0.00    -0.207 NA
ATOM     22  C   UNL     1       2.342   0.617  23.035  0.00  0.00    +0.246 C 
ATOM     23  O   UNL     1       2.479   1.295  23.486  0.00  0.00    -0.273 OA
BRANCH  22  24
ATOM     24  C   UNL     1       2.947   0.302  22.571  0.00  0.00    +0.113 C 
BRANCH  24  25
ATOM     25  C   UNL     1       3.701   0.199  22.892  0.00  0.00    -0.013 A 
ATOM     26  C   UNL     1       4.251   0.814  22.859  0.00  0.00    -0.004 A 
ATOM     27  C   UNL     1       5.003   0.711  23.180  0.00  0.00    -0.000 A 
ATOM     28  C   UNL     1       5.208  -0.006  23.534  0.00  0.00    -0.000 A 
ATOM     29  C   UNL     1       4.658  -0.620  23.567  0.00  0.00    -0.000 A 
ATOM     30  C   UNL     1       3.904  -0.518  23.246  0.00  0.00    -0.004 A 
ENDBRANCH  24  25
ENDBRANCH  22  24
ENDBRANCH  20  21
BRANCH  13  11
ATOM     11  C   UNL     1      -2.129  -0.207  25.110  0.00  0.00    +0.081 C 
ATOM     12  C   UNL     1      -2.032  -0.780  25.695  0.00  0.00    +0.010 C 
BRANCH  11   9
ATOM      8  N   UNL     1      -3.382   0.474  25.024  0.00  0.00    -0.201 NA
ATOM      9  C   UNL     1      -2.864  -0.106  24.750  0.00  0.00    +0.241 C 
ATOM     10  O   UNL     1      -3.081  -0.586  24.113  0.00  0.00    -0.273 OA
BRANCH   8   7
ATOM      7  C   UNL     1      -4.117   0.575  24.663  0.00  0.00    +0.141 C 
BRANCH   7   6
ATOM      3  C   UNL     1      -5.494   2.563  25.191  0.00  0.00    +0.139 A 
ATOM      4  C   UNL     1      -5.608   1.860  25.607  0.00  0.00    +0.037 A 
ATOM      5  C   UNL     1      -5.149   1.197  25.431  0.00  0.00    +0.001 A 
ATOM      6  C   UNL     1      -4.576   1.237  24.840  0.00  0.00    -0.000 A 
ATOM     36  C   UNL     1      -4.462   1.940  24.423  0.00  0.00    +0.001 A 
ATOM     37  C   UNL     1      -4.920   2.603  24.598  0.00  0.00    +0.037 A 
BRANCH   3   2
ATOM      1  C   UNL     1      -5.592   3.919  25.628  0.00  0.00    +0.252 C 
ATOM      2  O   UNL     1      -5.952   3.226  25.366  0.00  0.00    -0.471 OA
ENDBRANCH   3   2
ENDBRANCH   7   6
ENDBRANCH   8   7
ENDBRANCH  11   9
ENDBRANCH  13  11
TORSDOF 8
ENDMDL
MODEL 5
REMARK VINA RESULT:     -10.7      1.196      4.889
REMARK  Name = 
REMARK  8 active torsions:
REMARK  status: ('A' for Active; 'I' for Inactive)
REMARK    1  A    between atoms: O_2  and  C_3
REMARK    2  A    between atoms: C_6  and  C_7
REMARK    3  A    between atoms: C_7  and  N_8
REMARK    4  A    between atoms: C_9  and  C_11
REMARK    5  A    between atoms: C_11  and  C_13
REMARK    6  A    between atoms: C_20  and  N_21
REMARK    7  A    between atoms: C_22  and  C_24
REMARK    8  A    between atoms: C_24  and  C_25
REMARK                            x       y       z     vdW  Elec       q    Type
REMARK                         _______ _______ _______ _____ _____    ______ ____
ROOT
ATOM     13  C   UNL     1      -0.169   1.218  24.202  0.00  0.00    +0.039 C 
ATOM     14  C   UNL     1       0.294   1.568  24.790  0.00  0.00    +0.003 C 
ATOM     15  C   UNL     1      -0.004   2.199  25.229  0.00  0.00    +0.000 C 
ATOM     16  C   UNL     1      -0.765   2.481  25.081  0.00  0.00    +0.002 C 
ATOM     17  C   UNL     1      -0.303   2.830  25.667  0.00  0.00    +0.000 C 
ATOM     18  C   UNL     1      -1.063   3.113  25.520  0.00  0.00    +0.002 C 
ATOM     19  C   UNL     1      -1.824   3.395  25.372  0.00  0.00    +0.022 C 
ATOM     20  C   UNL     1      -2.287   3.046  24.784  0.00  0.00    +0.095 C 
ATOM     31  C   UNL     1      -1.989   2.415  24.345  0.00  0.00    +0.022 C 
ATOM     32  C   UNL     1      -2.451   2.066  23.758  0.00  0.00    +0.002 C 
ATOM     33  C   UNL     1      -1.228   2.132  24.493  0.00  0.00    +0.032 C 
ATOM     34  C   UNL     1      -0.929   1.501  24.054  0.00  0.00    +0.152 C 
ATOM     35  O   UNL     1      -1.392   1.152  23.467  0.00  0.00    -0.223 OA
ENDROOT
BRANCH  20  21
ATOM     21  N   UNL     1      -3.048   3.329  24.636  0.00  0.00    -0.207 NA
ATOM     22  C   UNL     1      -3.600   3.365  25.248  0.00  0.00    +0.246 C 
ATOM     23  O   UNL     1      -3.391   3.119  26.008  0.00  0.00    -0.273 OA
BRANCH  22  24
ATOM     24  C   UNL     1      -4.361   3.648  25.102  0.00  0.00    +0.113 C 
BRANCH  24  25
ATOM     25  C   UNL     1      -5.015   3.166  25.247  0.00  0.00    -0.013 A 
ATOM     26  C   UNL     1      -5.316   2.688  24.645  0.00  0.00    -0.004 A 
ATOM     27  C   UNL     1      -5.969   2.206  24.790  0.00  0.00    -0.000 A 
ATOM     28  C   UNL     1      -6.322   2.201  25.537  0.00  0.00    -0.000 A 
ATOM     29  C   UNL     1      -6.020   2.678  26.138  0.00  0.00    -0.000 A 
ATOM     30  C   UNL     1      -5.366   3.161  25.993  0.00  0.00    -0.004 A 
ENDBRANCH  24  25
ENDBRANCH  22  24
ENDBRANCH  20  21
BRANCH  13  11
ATOM     11  C   UNL     1       0.130   0.587  23.763  0.00  0.00    +0.081 C 
ATOM     12  C   UNL     1       0.439   0.718  23.010  0.00  0.00    +0.010 C 
BRANCH  11   9
ATOM      8  N   UNL     1      -0.598  -0.558  24.212  0.00  0.00    -0.201 NA
ATOM      9  C   UNL     1       0.120  -0.177  24.077  0.00  0.00    +0.241 C 
ATOM     10  O   UNL     1       0.831  -0.558  24.256  0.00  0.00    -0.273 OA
BRANCH   8   7
ATOM      7  C   UNL     1      -0.607  -1.321  24.526  0.00  0.00    +0.141 C 
BRANCH   7   6
ATOM      3  C   UNL     1      -2.754  -2.519  24.809  0.00  0.00    +0.139 A 
ATOM      4  C   UNL     1      -2.220  -2.761  24.229  0.00  0.00    +0.037 A 
ATOM      5  C   UNL     1      -1.505  -2.361  24.135  0.00  0.00    +0.001 A 
ATOM      6  C   UNL     1      -1.323  -1.720  24.620  0.00  0.00    -0.000 A 
ATOM     36  C   UNL     1      -1.856  -1.478  25.201  0.00  0.00    +0.001 A 
ATOM     37  C   UNL     1      -2.572  -1.877  25.296  0.00  0.00    +0.037 A 
BRANCH   3   2
ATOM      1  C   UNL     1      -4.045  -2.879  24.316  0.00  0.00    +0.252 C 
ATOM      2  O   UNL     1      -3.470  -2.918  24.904  0.00  0.00    -0.471 OA
ENDBRANCH   3   2
ENDBRANCH   7   6
ENDBRANCH   8   7
ENDBRANCH  11   9
ENDBRANCH  13  11
TORSDOF 8
ENDMDL
MODEL 6
REMARK VINA RESULT:     -10.1      1.416      4.750
REMARK  Name = 
REMARK  8 active torsions:
REMARK  status: ('A' for Active; 'I' for Inactive)
REMARK    1  A    between atoms: O_2  and  C_3
REMARK    2  A    between atoms: C_6  and  C_7
REMARK    3  A    between atoms: C_7  and  N_8
REMARK    4  A    between atoms: C_9  and  C_11
REMARK    5  A    between atoms: C_11  and  C_13
REMARK    6  A    between atoms: C_20  and  N_21
REMARK    7  A    between atoms: C_22  and  C_24
REMARK    8  A    between atoms: C_24  and  C_25
REMARK                            x       y       z     vdW  Elec       q    Type
REMARK                         _______ _______ _______ _____ _____    ______ ____
ROOT
ATOM     13  C   UNL     1      -0.607  -0.987  24.604  0.00  0.00    +0.039 C 
ATOM     14  C   UNL     1      -0.265  -1.030  23.853  0.00  0.00    +0.003 C 
ATOM     15  C   UNL     1       0.080  -0.360  23.519  0.00  0.00    +0.000 C 
ATOM     16  C   UNL     1       0.084   0.352  23.933  0.00  0.00    +0.002 C 
ATOM     17  C   UNL     1       0.425   0.310  23.185  0.00  0.00    +0.000 C 
ATOM     18  C   UNL     1       0.429   1.023  23.599  0.00  0.00    +0.002 C 
ATOM     19  C   UNL     1       0.432   1.736  24.013  0.00  0.00    +0.022 C 
ATOM     20  C   UNL     1       0.089   1.779  24.764  0.00  0.00    +0.095 C 
ATOM     31  C   UNL     1      -0.255   1.109  25.098  0.00  0.00    +0.022 C 
ATOM     32  C   UNL     1      -0.597   1.152  25.848  0.00  0.00    +0.002 C 
ATOM     33  C   UNL     1      -0.259   0.395  24.684  0.00  0.00    +0.032 C 
ATOM     34  C   UNL     1      -0.604  -0.275  25.018  0.00  0.00    +0.152 C 
ATOM     35  O   UNL     1      -0.946  -0.232  25.768  0.00  0.00    -0.223 OA
ENDROOT
BRANCH  20  21
ATOM     21  N   UNL     1       0.093   2.492  25.178  0.00  0.00    -0.207 NA
ATOM     22  C   UNL     1      -0.254   3.163  24.846  0.00  0.00    +0.246 C 
ATOM     23  O   UNL     1      -0.605   3.120  24.100  0.00  0.00    -0.273 OA
BRANCH  22  24
ATOM     24  C   UNL     1      -0.252   3.877  25.259  0.00  0.00    +0.113 C 
BRANCH  24  25
ATOM     25  C   UNL     1      -0.922   4.360  25.253  0.00  0.00    -0.013 A 
ATOM     26  C   UNL     1      -0.898   5.093  24.876  0.00  0.00    -0.004 A 
ATOM     27  C   UNL     1      -1.567   5.575  24.870  0.00  0.00    -0.000 A 
ATOM     28  C   UNL     1      -2.261   5.323  25.240  0.00  0.00    -0.000 A 
ATOM     29  C   UNL     1      -2.284   4.590  25.617  0.00  0.00    -0.000 A 
ATOM     30  C   UNL     1      -1.614   4.107  25.623  0.00  0.00    -0.004 A 
ENDBRANCH  24  25
ENDBRANCH  22  24
ENDBRANCH  20  21
BRANCH  13  11
ATOM     11  C   UNL     1      -0.952  -1.658  24.938  0.00  0.00    +0.081 C 
ATOM     12  C   UNL     1      -0.522  -2.121  25.469  0.00  0.00    +0.010 C 
BRANCH  11   9
ATOM      8  N   UNL     1      -2.355  -1.391  24.982  0.00  0.00    -0.201 NA
ATOM      9  C   UNL     1      -1.726  -1.867  24.742  0.00  0.00    +0.241 C 
ATOM     10  O   UNL     1      -1.871  -2.553  24.306  0.00  0.00    -0.273 OA
BRANCH   8   7
ATOM      7  C   UNL     1      -3.128  -1.599  24.786  0.00  0.00    +0.141 C 
BRANCH   7   6
ATOM      3  C   UNL     1      -4.898   0.129  24.715  0.00  0.00    +0.139 A 
ATOM      4  C   UNL     1      -4.642  -0.227  24.017  0.00  0.00    +0.037 A 
ATOM      5  C   UNL     1      -4.052  -0.803  24.041  0.00  0.00    +0.001 A 
ATOM      6  C   UNL     1      -3.718  -1.023  24.762  0.00  0.00    -0.000 A 
ATOM     36  C   UNL     1      -3.975  -0.666  25.460  0.00  0.00    +0.001 A 
ATOM     37  C   UNL     1      -4.564  -0.090  25.438  0.00  0.00    +0.037 A 
BRANCH   3   2
ATOM      1  C   UNL     1      -5.341   1.458  24.994  0.00  0.00    +0.252 C 
ATOM      2  O   UNL     1      -5.488   0.706  24.693  0.00  0.00    -0.471 OA
ENDBRANCH   3   2
ENDBRANCH   7   6
ENDBRANCH   8   7
ENDBRANCH  11   9
ENDBRANCH  13  11
TORSDOF 8
ENDMDL
MODEL 7
REMARK VINA RESULT:      -9.9      2.331      4.904
REMARK  Name = 
REMARK  8 active torsions:
REMARK  status: ('A' for Active; 'I' for Inactive)
REMARK    1  A    between atoms: O_2  and  C_3
REMARK    2  A    between atoms: C_6  and  C_7
REMARK    3  A    between atoms: C_7  and  N_8
REMARK    4  A    between atoms: C_9  and  C_11
REMARK    5  A    between atoms: C_11  and  C_13
REMARK    6  A    between atoms: C_20  and  N_21
REMARK    7  A    between atoms: C_22  and  C_24
REMARK    8  A    between atoms: C_24  and  C_25
REMARK                            x       y       z     vdW  Elec       q    Type
REMARK                         _______ _______ _______ _____ _____    ______ ____
ROOT
ATOM     13  C   UNL     1      -1.989   1.982  24.308  0.00  0.00    +0.039 C 
ATOM     14  C   UNL     1      -1.700   2.373  24.977  0.00  0.00    +0.003 C 
ATOM     15  C   UNL     1      -0.901   2.322  25.170  0.00  0.00    +0.000 C 
ATOM     16  C   UNL     1      -0.389   1.881  24.697  0.00  0.00    +0.002 C 
ATOM     17  C   UNL     1      -0.101   2.271  25.364  0.00  0.00    +0.000 C 
ATOM     18  C   UNL     1       0.412   1.830  24.891  0.00  0.00    +0.002 C 
ATOM     19  C   UNL     1       0.924   1.390  24.418  0.00  0.00    +0.022 C 
ATOM     20  C   UNL     1       0.635   0.999  23.749  0.00  0.00    +0.095 C 
ATOM     31  C   UNL     1      -0.165   1.050  23.556  0.00  0.00    +0.022 C 
ATOM     32  C   UNL     1      -0.453   0.661  22.888  0.00  0.00    +0.002 C 
ATOM     33  C   UNL     1      -0.677   1.491  24.029  0.00  0.00    +0.032 C 
ATOM     34  C   UNL     1      -1.477   1.542  23.835  0.00  0.00    +0.152 C 
ATOM     35  O   UNL     1      -1.765   1.152  23.168  0.00  0.00    -0.223 OA
ENDROOT
BRANCH  20  21
ATOM     21  N   UNL     1       1.148   0.559  23.276  0.00  0.00    -0.207 NA
ATOM     22  C   UNL     1       1.917   0.825  23.143  0.00  0.00    +0.246 C 
ATOM     23  O   UNL     1       2.174   1.532  23.484  0.00  0.00    -0.273 OA
BRANCH  22  24
ATOM     24  C   UNL     1       2.430   0.386  22.671  0.00  0.00    +0.113 C 
BRANCH  24  25
ATOM     25  C   UNL     1       3.233   0.343  22.862  0.00  0.00    -0.013 A 
ATOM     26  C   UNL     1       3.526  -0.315  23.264  0.00  0.00    -0.004 A 
ATOM     27  C   UNL     1       4.327  -0.357  23.456  0.00  0.00    -0.000 A 
ATOM     28  C   UNL     1       4.835   0.258  23.245  0.00  0.00    -0.000 A 
ATOM     29  C   UNL     1       4.542   0.916  22.842  0.00  0.00    -0.000 A 
ATOM     30  C   UNL     1       3.740   0.958  22.651  0.00  0.00    -0.004 A 
ENDBRANCH  24  25
ENDBRANCH  22  24
ENDBRANCH  20  21
BRANCH  13  11
ATOM     11  C   UNL     1      -2.789   2.034  24.115  0.00  0.00    +0.081 C 
ATOM     12  C   UNL     1      -3.036   2.540  23.511  0.00  0.00    +0.010 C 
BRANCH  11   9
ATOM      8  N   UNL     1      -3.458   0.788  24.324  0.00  0.00    -0.201 NA
ATOM      9  C   UNL     1      -3.344   1.580  24.524  0.00  0.00    +0.241 C 
ATOM     10  O   UNL     1      -3.785   1.919  25.134  0.00  0.00    -0.273 OA
BRANCH   8   7
ATOM      7  C   UNL     1      -4.012   0.335  24.733  0.00  0.00    +0.141 C 
BRANCH   7   6
ATOM      3  C   UNL     1      -3.950  -2.135  24.580  0.00  0.00    +0.139 A 
ATOM      4  C   UNL     1      -3.636  -1.754  25.242  0.00  0.00    +0.037 A 
ATOM      5  C   UNL     1      -3.657  -0.931  25.292  0.00  0.00    +0.001 A 
ATOM      6  C   UNL     1      -3.991  -0.488  24.682  0.00  0.00    -0.000 A 
ATOM     36  C   UNL     1      -4.305  -0.868  24.021  0.00  0.00    +0.001 A 
ATOM     37  C   UNL     1      -4.284  -1.691  23.969  0.00  0.00    +0.037 A 
BRANCH   3   2
ATOM      1  C   UNL     1      -3.209  -3.356  24.573  0.00  0.00    +0.252 C 
ATOM      2  O   UNL     1      -3.929  -2.957  24.529  0.00  0.00    -0.471 OA
ENDBRANCH   3   2
ENDBRANCH   7   6
ENDBRANCH   8   7
ENDBRANCH  11   9
ENDBRANCH  13  11
TORSDOF 8
ENDMDL
MODEL 8
REMARK VINA RESULT:      -9.1      1.661      4.643
REMARK  Name = 
REMARK  8 active torsions:
REMARK  status: ('A' for Active; 'I' for Inactive)
REMARK    1  A    between atoms: O_2  and  C_3
REMARK    2  A    between atoms: C_6  and  C_7
REMARK    3  A    between atoms: C_7  and  N_8
REMARK    4  A    between atoms: C_9  and  C_11
REMARK    5  A    between atoms: C_11  and  C_13
REMARK    6  A    between atoms: C_20  and  N_21
REMARK    7  A    between atoms: C_22  and  C_24
REMARK    8  A    between atoms: C_24  and  C_25
REMARK                            x       y       z     vdW  Elec       q    Type
REMARK                         _______ _______ _______ _____ _____    ______ ____
ROOT
ATOM     13  C   UNL     1      -3.516   2.815  24.849  0.00  0.00    +0.039 C 
ATOM     14  C   UNL     1      -3.413   3.181  25.583  0.00  0.00    +0.003 C 
ATOM     15  C   UNL     1      -2.655   3.372  25.845  0.00  0.00    +0.000 C 
ATOM     16  C   UNL     1      -2.000   3.197  25.377  0.00  0.00    +0.002 C 
ATOM     17  C   UNL     1      -1.897   3.562  26.108  0.00  0.00    +0.000 C 
ATOM     18  C   UNL     1      -1.241   3.387  25.640  0.00  0.00    +0.002 C 
ATOM     19  C   UNL     1      -0.586   3.212  25.171  0.00  0.00    +0.022 C 
ATOM     20  C   UNL     1      -0.689   2.847  24.438  0.00  0.00    +0.095 C 
ATOM     31  C   UNL     1      -1.446   2.656  24.175  0.00  0.00    +0.022 C 
ATOM     32  C   UNL     1      -1.549   2.291  23.442  0.00  0.00    +0.002 C 
ATOM     33  C   UNL     1      -2.103   2.831  24.643  0.00  0.00    +0.032 C 
ATOM     34  C   UNL     1      -2.860   2.641  24.380  0.00  0.00    +0.152 C 
ATOM     35  O   UNL     1      -2.963   2.275  23.648  0.00  0.00    -0.223 OA
ENDROOT
BRANCH  20  21
ATOM     21  N   UNL     1      -0.032   2.672  23.969  0.00  0.00    -0.207 NA
ATOM     22  C   UNL     1       0.512   2.104  24.217  0.00  0.00    +0.246 C 
ATOM     23  O   UNL     1       0.400   1.711  24.935  0.00  0.00    -0.273 OA
BRANCH  22  24
ATOM     24  C   UNL     1       1.169   1.929  23.750  0.00  0.00    +0.113 C 
BRANCH  24  25
ATOM     25  C   UNL     1       1.284   1.159  23.474  0.00  0.00    -0.013 A 
ATOM     26  C   UNL     1       0.675   0.605  23.530  0.00  0.00    -0.004 A 
ATOM     27  C   UNL     1       0.791  -0.163  23.254  0.00  0.00    -0.000 A 
ATOM     28  C   UNL     1       1.515  -0.379  22.921  0.00  0.00    -0.000 A 
ATOM     29  C   UNL     1       2.123   0.176  22.865  0.00  0.00    -0.000 A 
ATOM     30  C   UNL     1       2.008   0.945  23.141  0.00  0.00    -0.004 A 
ENDBRANCH  24  25
ENDBRANCH  22  24
ENDBRANCH  20  21
BRANCH  13  11
ATOM     11  C   UNL     1      -4.274   2.625  24.586  0.00  0.00    +0.081 C 
ATOM     12  C   UNL     1      -4.648   3.102  24.026  0.00  0.00    +0.010 C 
BRANCH  11   9
ATOM      8  N   UNL     1      -4.392   1.204  24.686  0.00  0.00    -0.201 NA
ATOM      9  C   UNL     1      -4.660   1.959  24.883  0.00  0.00    +0.241 C 
ATOM     10  O   UNL     1      -5.316   2.048  25.378  0.00  0.00    -0.273 OA
BRANCH   8   7
ATOM      7  C   UNL     1      -4.777   0.539  24.983  0.00  0.00    +0.141 C 
BRANCH   7   6
ATOM      3  C   UNL     1      -3.762  -1.703  24.719  0.00  0.00    +0.139 A 
ATOM      4  C   UNL     1      -4.227  -1.387  24.115  0.00  0.00    +0.037 A 
ATOM      5  C   UNL     1      -4.565  -0.640  24.203  0.00  0.00    +0.001 A 
ATOM      6  C   UNL     1      -4.439  -0.209  24.895  0.00  0.00    -0.000 A 
ATOM     36  C   UNL     1      -3.975  -0.525  25.499  0.00  0.00    +0.001 A 
ATOM     37  C   UNL     1      -3.636  -1.272  25.411  0.00  0.00    +0.037 A 
BRANCH   3   2
ATOM      1  C   UNL     1      -2.613  -2.523  24.505  0.00  0.00    +0.252 C 
ATOM      2  O   UNL     1      -3.424  -2.450  24.632  0.00  0.00    -0.471 OA
ENDBRANCH   3   2
ENDBRANCH   7   6
ENDBRANCH   8   7
ENDBRANCH  11   9
ENDBRANCH  13  11
TORSDOF 8
ENDMDL
