MODEL 1
REMARK VINA RESULT:     -10.7      0.000      0.000
REMARK  Name = 
REMARK  8 active torsions:
REMARK  status: ('A' for Active; 'I' for Inactive)
REMARK    1  A    between atoms: C_2  and  C_3
REMARK    2  A    between atoms: C_5  and  O_26
REMARK    3  A    between atoms: C_10  and  C_11
REMARK    4  A    between atoms: C_11  and  C_12
REMARK    5  A    between atoms: N_14  and  C_15
REMARK    6  A    between atoms: C_15  and  C_16
REMARK    7  A    between atoms: O_26  and  C_27
REMARK    8  A    between atoms: N_29  and  C_30
REMARK                            x       y       z     vdW  Elec       q    Type
REMARK                         _______ _______ _______ _____ _____    ______ ____
ROOT
ATOM      1  C   UNL     1      -3.390   0.629  24.459  0.00  0.00    +0.006 C 
ATOM      2  C   UNL     1      -2.579   0.506  24.370  0.00  0.00    +0.068 C 
ATOM      5  C   UNL     1      -2.631   1.295  24.135  0.00  0.00    +0.173 C 
ATOM      6  C   UNL     1      -1.951   1.702  23.904  0.00  0.00    +0.044 C 
ATOM      7  C   UNL     1      -1.220   1.320  23.908  0.00  0.00    +0.004 C 
ATOM      8  C   UNL     1      -1.168   0.532  24.143  0.00  0.00    +0.003 C 
ATOM      9  C   UNL     1      -0.490   0.939  23.912  0.00  0.00    +0.000 C 
ATOM     10  C   UNL     1      -0.437   0.149  24.148  0.00  0.00    +0.040 C 
ATOM     21  C   UNL     1      -0.385  -0.639  24.383  0.00  0.00    +0.152 C 
ATOM     22  O   UNL     1       0.346  -1.022  24.387  0.00  0.00    -0.223 OA
ATOM     23  C   UNL     1      -1.065  -1.047  24.614  0.00  0.00    +0.033 C 
ATOM     24  C   UNL     1      -1.796  -0.665  24.610  0.00  0.00    +0.003 C 
ATOM     25  C   UNL     1      -1.848   0.124  24.375  0.00  0.00    +0.006 C 
ENDROOT
BRANCH   2   3
ATOM      3  C   UNL     1      -2.809  -0.240  24.636  0.00  0.00    +0.185 C 
ATOM      4  O   UNL     1      -3.598  -0.384  24.830  0.00  0.00    -0.220 OA
ENDBRANCH   2   3
BRANCH  10  11
ATOM     11  C   UNL     1       0.242   0.556  23.917  0.00  0.00    +0.089 C 
BRANCH  11  12
ATOM     12  C   UNL     1       0.748   0.229  23.353  0.00  0.00    +0.242 C 
ATOM     13  O   UNL     1       0.457  -0.315  22.805  0.00  0.00    -0.273 OA
ATOM     14  N   UNL     1       1.543   0.446  23.337  0.00  0.00    -0.200 NA
BRANCH  14  15
ATOM     15  C   UNL     1       2.049   0.118  22.773  0.00  0.00    +0.148 C 
BRANCH  15  16
ATOM     16  C   UNL     1       2.848   0.322  22.767  0.00  0.00    +0.029 A 
ATOM     17  C   UNL     1       3.153   1.089  22.736  0.00  0.00    +0.004 A 
ATOM     18  C   UNL     1       3.975   1.037  22.741  0.00  0.00    +0.007 A 
ATOM     19  C   UNL     1       4.180   0.238  22.775  0.00  0.00    +0.035 A 
ATOM     20  S   UNL     1       3.484  -0.203  22.791  0.00  0.00    -0.089 S 
ENDBRANCH  15  16
ENDBRANCH  14  15
ENDBRANCH  11  12
ENDBRANCH  10  11
BRANCH   5  26
ATOM     26  O   UNL     1      -3.362   1.677  24.131  0.00  0.00    -0.437 OA
BRANCH  26  27
ATOM     27  C   UNL     1      -3.539   2.224  23.539  0.00  0.00    +0.421 C 
ATOM     28  O   UNL     1      -3.183   2.158  22.796  0.00  0.00    -0.225 OA
ATOM     29  N   UNL     1      -4.072   2.835  23.687  0.00  0.00    -0.170 NA
BRANCH  29  30
ATOM     30  C   UNL     1      -4.428   2.901  24.429  0.00  0.00    +0.099 C 
ATOM     31  C   UNL     1      -4.079   3.366  25.014  0.00  0.00    +0.022 C 
ATOM     32  C   UNL     1      -4.435   3.432  25.755  0.00  0.00    +0.002 C 
ATOM     33  C   UNL     1      -5.139   3.033  25.911  0.00  0.00    +0.000 C 
ATOM     34  C   UNL     1      -5.488   2.568  25.326  0.00  0.00    +0.002 C 
ATOM     35  C   UNL     1      -5.132   2.502  24.585  0.00  0.00    +0.022 C 
ENDBRANCH  29  30
ENDBRANCH  26  27
ENDBRANCH   5  26
TORSDOF 8
ENDMDL
MODEL 2
REMARK VINA RESULT:     -10.3      2.058      3.032
REMARK  Name = 
REMARK  8 active torsions:
REMARK  status: ('A' for Active; 'I' for Inactive)
REMARK    1  A    between atoms: C_2  and  C_3
REMARK    2  A    between atoms: C_5  and  O_26
REMARK    3  A    between atoms: C_10  and  C_11
REMARK    4  A    between atoms: C_11  and  C_12
REMARK    5  A    between atoms: N_14  and  C_15
REMARK    6  A    between atoms: C_15  and  C_16
REMARK    7  A    between atoms: O_26  and  C_27
REMARK    8  A    between atoms: N_29  and  C_30
REMARK                            x       y       z     vdW  Elec       q    Type
REMARK                         _______ _______ _______ _____ _____    ______ ____
ROOT
ATOM      1  C   UNL     1      -2.893   3.535  25.571  0.00  0.00    +0.006 C 
ATOM      2  C   UNL     1      -2.273   3.104  25.240  0.00  0.00    +0.068 C 
ATOM      5  C   UNL     1      -2.888   2.879  24.739  0.00  0.00    +0.173 C 
ATOM      6  C   UNL     1      -2.744   2.352  24.119  0.00  0.00    +0.044 C 
ATOM      7  C   UNL     1      -1.985   2.051  24.002  0.00  0.00    +0.004 C 
ATOM      8  C   UNL     1      -1.370   2.276  24.503  0.00  0.00    +0.003 C 
ATOM      9  C   UNL     1      -1.227   1.750  23.886  0.00  0.00    +0.000 C 
ATOM     10  C   UNL     1      -0.611   1.975  24.387  0.00  0.00    +0.040 C 
ATOM     21  C   UNL     1       0.004   2.200  24.888  0.00  0.00    +0.152 C 
ATOM     22  O   UNL     1       0.763   1.899  24.771  0.00  0.00    -0.223 OA
ATOM     23  C   UNL     1      -0.140   2.727  25.507  0.00  0.00    +0.033 C 
ATOM     24  C   UNL     1      -0.899   3.028  25.624  0.00  0.00    +0.003 C 
ATOM     25  C   UNL     1      -1.515   2.803  25.123  0.00  0.00    +0.006 C 
ENDROOT
BRANCH   2   3
ATOM      3  C   UNL     1      -1.874   3.479  25.856  0.00  0.00    +0.185 C 
ATOM      4  O   UNL     1      -2.285   3.970  26.376  0.00  0.00    -0.220 OA
ENDBRANCH   2   3
BRANCH  10  11
ATOM     11  C   UNL     1      -0.467   1.449  23.768  0.00  0.00    +0.089 C 
BRANCH  11  12
ATOM     12  C   UNL     1      -0.114   0.719  23.921  0.00  0.00    +0.242 C 
ATOM     13  O   UNL     1       0.708   0.645  23.894  0.00  0.00    -0.273 OA
ATOM     14  N   UNL     1      -0.581   0.064  24.100  0.00  0.00    -0.200 NA
BRANCH  14  15
ATOM     15  C   UNL     1      -0.228  -0.666  24.252  0.00  0.00    +0.148 C 
BRANCH  15  16
ATOM     16  C   UNL     1      -0.687  -1.302  24.507  0.00  0.00    +0.029 A 
ATOM     17  C   UNL     1      -1.266  -1.691  24.065  0.00  0.00    +0.004 A 
ATOM     18  C   UNL     1      -1.585  -2.289  24.534  0.00  0.00    +0.007 A 
ATOM     19  C   UNL     1      -1.204  -2.271  25.266  0.00  0.00    +0.035 A 
ATOM     20  S   UNL     1      -0.650  -1.661  25.249  0.00  0.00    -0.089 S 
ENDBRANCH  15  16
ENDBRANCH  14  15
ENDBRANCH  11  12
ENDBRANCH  10  11
BRANCH   5  26
ATOM     26  O   UNL     1      -3.647   3.180  24.855  0.00  0.00    -0.437 OA
BRANCH  26  27
ATOM     27  C   UNL     1      -4.112   3.393  24.207  0.00  0.00    +0.421 C 
ATOM     28  O   UNL     1      -3.771   3.790  23.568  0.00  0.00    -0.225 OA
ATOM     29  N   UNL     1      -4.916   3.210  24.198  0.00  0.00    -0.170 NA
BRANCH  29  30
ATOM     30  C   UNL     1      -5.256   2.813  24.836  0.00  0.00    +0.099 C 
ATOM     31  C   UNL     1      -5.490   3.234  25.506  0.00  0.00    +0.022 C 
ATOM     32  C   UNL     1      -5.830   2.838  26.144  0.00  0.00    +0.002 C 
ATOM     33  C   UNL     1      -5.936   2.020  26.113  0.00  0.00    +0.000 C 
ATOM     34  C   UNL     1      -5.702   1.600  25.443  0.00  0.00    +0.002 C 
ATOM     35  C   UNL     1      -5.363   1.996  24.805  0.00  0.00    +0.022 C 
ENDBRANCH  29  30
ENDBRANCH  26  27
ENDBRANCH   5  26
TORSDOF 8
ENDMDL
MODEL 3
REMARK VINA RESULT:      -9.8      2.589      5.049
REMARK  Name = 
REMARK  8 active torsions:
REMARK  status: ('A' for Active; 'I' for Inactive)
REMARK    1  A    between atoms: C_2  and  C_3
REMARK    2  A    between atoms: C_5  and  O_26
REMARK    3  A    between atoms: C_10  and  C_11
REMARK    4  A    between atoms: C_11  and  C_12
REMARK    5  A    between atoms: N_14  and  C_15
REMARK    6  A    between atoms: C_15  and  C_16
REMARK    7  A    between atoms: O_26  and  C_27
REMARK    8  A    between atoms: N_29  and  C_30
REMARK                            x       y       z     vdW  Elec       q    Type
REMARK                         _______ _______ _______ _____ _____    ______ ____
ROOT
ATOM      1  C   UNL     1      -0.564  -0.789  24.004  0.00  0.00    +0.006 C 
ATOM      2  C   UNL     1      -0.521  -0.029  24.323  0.00  0.00    +0.068 C 
ATOM      5  C   UNL     1      -1.021  -0.388  24.872  0.00  0.00    +0.173 C 
ATOM      6  C   UNL     1      -1.311   0.047  25.512  0.00  0.00    +0.044 C 
ATOM      7  C   UNL     1      -1.100   0.839  25.602  0.00  0.00    +0.004 C 
ATOM      8  C   UNL     1      -0.600   1.197  25.053  0.00  0.00    +0.003 C 
ATOM      9  C   UNL     1      -0.888   1.631  25.691  0.00  0.00    +0.000 C 
ATOM     10  C   UNL     1      -0.388   1.990  25.142  0.00  0.00    +0.040 C 
ATOM     21  C   UNL     1       0.112   2.348  24.593  0.00  0.00    +0.152 C 
ATOM     22  O   UNL     1       0.324   3.140  24.683  0.00  0.00    -0.223 OA
ATOM     23  C   UNL     1       0.402   1.913  23.953  0.00  0.00    +0.033 C 
ATOM     24  C   UNL     1       0.190   1.121  23.864  0.00  0.00    +0.003 C 
ATOM     25  C   UNL     1      -0.310   0.762  24.413  0.00  0.00    +0.006 C 
ENDROOT
BRANCH   2   3
ATOM      3  C   UNL     1      -0.036   0.065  23.663  0.00  0.00    +0.185 C 
ATOM      4  O   UNL     1       0.138  -0.583  23.182  0.00  0.00    -0.220 OA
ENDBRANCH   2   3
BRANCH  10  11
ATOM     11  C   UNL     1      -0.677   2.424  25.782  0.00  0.00    +0.089 C 
BRANCH  11  12
ATOM     12  C   UNL     1      -1.084   3.129  25.651  0.00  0.00    +0.242 C 
ATOM     13  O   UNL     1      -0.666   3.833  25.546  0.00  0.00    -0.273 OA
ATOM     14  N   UNL     1      -1.908   3.131  25.627  0.00  0.00    -0.200 NA
BRANCH  14  15
ATOM     15  C   UNL     1      -2.316   3.837  25.497  0.00  0.00    +0.148 C 
BRANCH  15  16
ATOM     16  C   UNL     1      -3.135   3.828  25.399  0.00  0.00    +0.029 A 
ATOM     17  C   UNL     1      -3.696   3.819  26.005  0.00  0.00    +0.004 A 
ATOM     18  C   UNL     1      -4.444   3.813  25.658  0.00  0.00    +0.007 A 
ATOM     19  C   UNL     1      -4.346   3.818  24.839  0.00  0.00    +0.035 A 
ATOM     20  S   UNL     1      -3.537   3.828  24.679  0.00  0.00    -0.089 S 
ENDBRANCH  15  16
ENDBRANCH  14  15
ENDBRANCH  11  12
ENDBRANCH  10  11
BRANCH   5  26
ATOM     26  O   UNL     1      -1.233  -1.180  24.782  0.00  0.00    -0.437 OA
BRANCH  26  27
ATOM     27  C   UNL     1      -1.184  -1.697  25.424  0.00  0.00    +0.421 C 
ATOM     28  O   UNL     1      -0.529  -1.667  25.927  0.00  0.00    -0.225 OA
ATOM     29  N   UNL     1      -1.787  -2.241  25.563  0.00  0.00    -0.170 NA
BRANCH  29  30
ATOM     30  C   UNL     1      -2.440  -2.270  25.061  0.00  0.00    +0.099 C 
ATOM     31  C   UNL     1      -3.123  -1.847  25.247  0.00  0.00    +0.022 C 
ATOM     32  C   UNL     1      -3.776  -1.876  24.745  0.00  0.00    +0.002 C 
ATOM     33  C   UNL     1      -3.747  -2.328  24.055  0.00  0.00    +0.000 C 
ATOM     34  C   UNL     1      -3.064  -2.751  23.869  0.00  0.00    +0.002 C 
ATOM     35  C   UNL     1      -2.411  -2.723  24.371  0.00  0.00    +0.022 C 
ENDBRANCH  29  30
ENDBRANCH  26  27
ENDBRANCH   5  26
TORSDOF 8
ENDMDL
MODEL 4
REMARK VINA RESULT:      -9.6      2.600      5.845
REMARK  Name = 
REMARK  8 active torsions:
REMARK  status: ('A' for Active; 'I' for Inactive)
REMARK    1  A    between atoms: C_2  and  C_3
REMARK    2  A    between atoms: C_5  and  O_26
REMARK    3  A    between atoms: C_10  and  C_11
REMARK    4  A    between atoms: C_11  and  C_12
REMARK    5  A    between atoms: N_14  and  C_15
REMARK    6  A    between atoms: C_15  and  C_16
REMARK    7  A    between atoms: O_26  and  C_27
REMARK    8  A    between atoms: N_29  and  C_30
REMARK                            x       y       z     vdW  Elec       q    Type
REMARK                         _______ _______ _______ _____ _____    ______ ____
ROOT
ATOM      1  C   UNL     1      -0.217   1.360  25.374  0.00  0.00    +0.006 C 
ATOM      2  C   UNL     1      -0.804   1.910  25.192  0.00  0.00    +0.068 C 
ATOM      5  C   UNL     1      -0.975   1.327  24.634  0.00  0.00    +0.173 C 
ATOM      6  C   UNL     1      -1.604   1.431  24.108  0.00  0.00    +0.044 C 
ATOM      7  C   UNL     1      -2.060   2.117  24.141  0.00  0.00    +0.004 C 
ATOM      8  C   UNL     1      -1.889   2.699  24.699  0.00  0.00    +0.003 C 
ATOM      9  C   UNL     1      -2.516   2.802  24.175  0.00  0.00    +0.000 C 
ATOM     10  C   UNL     1      -2.346   3.386  24.733  0.00  0.00    +0.040 C 
ATOM     21  C   UNL     1      -2.175   3.968  25.291  0.00  0.00    +0.152 C 
ATOM     22  O   UNL     1      -2.632   4.654  25.325  0.00  0.00    -0.223 OA
ATOM     23  C   UNL     1      -1.546   3.864  25.817  0.00  0.00    +0.033 C 
ATOM     24  C   UNL     1      -1.090   3.178  25.784  0.00  0.00    +0.003 C 
ATOM     25  C   UNL     1      -1.261   2.595  25.225  0.00  0.00    +0.006 C 
ENDROOT
BRANCH   2   3
ATOM      3  C   UNL     1      -0.429   2.301  25.813  0.00  0.00    +0.185 C 
ATOM      4  O   UNL     1       0.199   1.940  26.209  0.00  0.00    -0.220 OA
ENDBRANCH   2   3
BRANCH  10  11
ATOM     11  C   UNL     1      -2.974   3.489  24.208  0.00  0.00    +0.089 C 
BRANCH  11  12
ATOM     12  C   UNL     1      -3.724   3.680  24.494  0.00  0.00    +0.242 C 
ATOM     13  O   UNL     1      -3.942   4.471  24.582  0.00  0.00    -0.273 OA
ATOM     14  N   UNL     1      -4.255   3.082  24.690  0.00  0.00    -0.200 NA
BRANCH  14  15
ATOM     15  C   UNL     1      -5.005   3.273  24.976  0.00  0.00    +0.148 C 
BRANCH  15  16
ATOM     16  C   UNL     1      -5.513   2.677  25.236  0.00  0.00    +0.029 A 
ATOM     17  C   UNL     1      -5.802   2.053  24.779  0.00  0.00    +0.004 A 
ATOM     18  C   UNL     1      -6.287   1.590  25.259  0.00  0.00    +0.007 A 
ATOM     19  C   UNL     1      -6.298   1.927  26.012  0.00  0.00    +0.035 A 
ATOM     20  S   UNL     1      -5.819   2.599  25.998  0.00  0.00    -0.089 S 
ENDBRANCH  15  16
ENDBRANCH  14  15
ENDBRANCH  11  12
ENDBRANCH  10  11
BRANCH   5  26
ATOM     26  O   UNL     1      -0.519   0.641  24.600  0.00  0.00    -0.437 OA
BRANCH  26  27
ATOM     27  C   UNL     1      -0.251   0.358  23.872  0.00  0.00    +0.421 C 
ATOM     28  O   UNL     1       0.040   0.884  23.307  0.00  0.00    -0.225 OA
ATOM     29  N   UNL     1      -0.273  -0.450  23.710  0.00  0.00    -0.170 NA
BRANCH  29  30
ATOM     30  C   UNL     1      -0.564  -0.976  24.275  0.00  0.00    +0.099 C 
ATOM     31  C   UNL     1      -1.348  -1.231  24.238  0.00  0.00    +0.022 C 
ATOM     32  C   UNL     1      -1.638  -1.757  24.802  0.00  0.00    +0.002 C 
ATOM     33  C   UNL     1      -1.146  -2.029  25.405  0.00  0.00    +0.000 C 
ATOM     34  C   UNL     1      -0.362  -1.774  25.443  0.00  0.00    +0.002 C 
ATOM     35  C   UNL     1      -0.072  -1.248  24.879  0.00  0.00    +0.022 C 
ENDBRANCH  29  30
ENDBRANCH  26  27
ENDBRANCH   5  26
TORSDOF 8
ENDMDL
MODEL 5
REMARK VINA RESULT:      -9.6      2.745      4.285
REMARK  Name = 
REMARK  8 active torsions:
REMARK  status: ('A' for Active; 'I' for Inactive)
REMARK    1  A    between atoms: C_2  and  C_3
REMARK    2  A    between atoms: C_5  and  O_26
REMARK    3  A    between atoms: C_10  and  C_11
REMARK    4  A    between atoms: C_11  and  C_12
REMARK    5  A    between atoms: N_14  and  C_15
REMARK    6  A    between atoms: C_15  and  C_16
REMARK    7  A    between atoms: O_26  and  C_27
REMARK    8  A    between atoms: N_29  and  C_30
REMARK                            x       y       z     vdW  Elec       q    Type
REMARK                         _______ _______ _______ _____ _____    ______ ____
ROOT
ATOM      1  C   UNL     1      -0.131   2.302  24.513  0.00  0.00    +0.006 C 
ATOM      2  C   UNL     1      -0.263   1.493  24.607  0.00  0.00    +0.068 C 
ATOM      5  C   UNL     1      -0.677   1.782  25.258  0.00  0.00    +0.173 C 
ATOM      6  C   UNL     1      -1.064   1.259  25.767  0.00  0.00    +0.044 C 
ATOM      7  C   UNL     1      -1.036   0.448  25.623  0.00  0.00    +0.004 C 
ATOM      8  C   UNL     1      -0.622   0.159  24.971  0.00  0.00    +0.003 C 
ATOM      9  C   UNL     1      -1.008  -0.363  25.478  0.00  0.00    +0.000 C 
ATOM     10  C   UNL     1      -0.593  -0.653  24.826  0.00  0.00    +0.040 C 
ATOM     21  C   UNL     1      -0.180  -0.942  24.174  0.00  0.00    +0.152 C 
ATOM     22  O   UNL     1      -0.151  -1.754  24.030  0.00  0.00    -0.223 OA
ATOM     23  C   UNL     1       0.207  -0.419  23.666  0.00  0.00    +0.033 C 
ATOM     24  C   UNL     1       0.179   0.392  23.810  0.00  0.00    +0.003 C 
ATOM     25  C   UNL     1      -0.235   0.682  24.462  0.00  0.00    +0.006 C 
ENDROOT
BRANCH   2   3
ATOM      3  C   UNL     1       0.197   1.485  23.922  0.00  0.00    +0.185 C 
ATOM      4  O   UNL     1       0.545   2.183  23.650  0.00  0.00    -0.220 OA
ENDBRANCH   2   3
BRANCH  10  11
ATOM     11  C   UNL     1      -0.980  -1.176  25.334  0.00  0.00    +0.089 C 
BRANCH  11  12
ATOM     12  C   UNL     1      -1.414  -1.806  25.026  0.00  0.00    +0.242 C 
ATOM     13  O   UNL     1      -1.040  -2.523  24.862  0.00  0.00    -0.273 OA
ATOM     14  N   UNL     1      -2.221  -1.720  24.883  0.00  0.00    -0.200 NA
BRANCH  14  15
ATOM     15  C   UNL     1      -2.655  -2.351  24.574  0.00  0.00    +0.148 C 
BRANCH  15  16
ATOM     16  C   UNL     1      -3.418  -2.225  24.287  0.00  0.00    +0.029 A 
ATOM     17  C   UNL     1      -3.843  -1.519  24.331  0.00  0.00    +0.004 A 
ATOM     18  C   UNL     1      -4.577  -1.641  23.976  0.00  0.00    +0.007 A 
ATOM     19  C   UNL     1      -4.606  -2.422  23.712  0.00  0.00    +0.035 A 
ATOM     20  S   UNL     1      -3.890  -2.783  23.904  0.00  0.00    -0.089 S 
ENDBRANCH  15  16
ENDBRANCH  14  15
ENDBRANCH  11  12
ENDBRANCH  10  11
BRANCH   5  26
ATOM     26  O   UNL     1      -0.705   2.594  25.403  0.00  0.00    -0.437 OA
BRANCH  26  27
ATOM     27  C   UNL     1      -0.645   2.879  26.175  0.00  0.00    +0.421 C 
ATOM     28  O   UNL     1      -0.152   2.499  26.718  0.00  0.00    -0.225 OA
ATOM     29  N   UNL     1      -1.077   3.543  26.405  0.00  0.00    -0.170 NA
BRANCH  29  30
ATOM     30  C   UNL     1      -1.570   3.922  25.863  0.00  0.00    +0.099 C 
ATOM     31  C   UNL     1      -2.367   3.716  25.815  0.00  0.00    +0.022 C 
ATOM     32  C   UNL     1      -2.859   4.095  25.273  0.00  0.00    +0.002 C 
ATOM     33  C   UNL     1      -2.555   4.681  24.779  0.00  0.00    +0.000 C 
ATOM     34  C   UNL     1      -1.758   4.887  24.827  0.00  0.00    +0.002 C 
ATOM     35  C   UNL     1      -1.266   4.508  25.369  0.00  0.00    +0.022 C 
ENDBRANCH  29  30
ENDBRANCH  26  27
ENDBRANCH   5  26
TORSDOF 8
ENDMDL
MODEL 6
REMARK VINA RESULT:      -9.5      3.340      5.139
REMARK  Name = 
REMARK  8 active torsions:
REMARK  status: ('A' for Active; 'I' for Inactive)
REMARK    1  A    between atoms: C_2  and  C_3
REMARK    2  A    between atoms: C_5  and  O_26
REMARK    3  A    between atoms: C_10  and  C_11
REMARK    4  A    between atoms: C_11  and  C_12
REMARK    5  A    between atoms: N_14  and  C_15
REMARK    6  A    between atoms: C_15  and  C_16
REMARK    7  A    between atoms: O_26  and  C_27
REMARK    8  A    between atoms: N_29  and  C_30
REMARK                            x       y       z     vdW  Elec       q    Type
REMARK                         _______ _______ _______ _____ _____    ______ ____
ROOT
ATOM      1  C   UNL     1      -3.078   3.921  25.727  0.00  0.00    +0.006 C 
ATOM      2  C   UNL     1      -3.470   3.255  25.440  0.00  0.00    +0.068 C 
ATOM      5  C   UNL     1      -2.692   3.052  25.259  0.00  0.00    +0.173 C 
ATOM      6  C   UNL     1      -2.529   2.332  24.889  0.00  0.00    +0.044 C 
ATOM      7  C   UNL     1      -3.144   1.817  24.700  0.00  0.00    +0.004 C 
ATOM      8  C   UNL     1      -3.922   2.020  24.881  0.00  0.00    +0.003 C 
ATOM      9  C   UNL     1      -3.760   1.302  24.511  0.00  0.00    +0.000 C 
ATOM     10  C   UNL     1      -4.539   1.505  24.692  0.00  0.00    +0.040 C 
ATOM     21  C   UNL     1      -5.317   1.708  24.873  0.00  0.00    +0.152 C 
ATOM     22  O   UNL     1      -5.933   1.193  24.684  0.00  0.00    -0.223 OA
ATOM     23  C   UNL     1      -5.480   2.428  25.243  0.00  0.00    +0.033 C 
ATOM     24  C   UNL     1      -4.865   2.943  25.432  0.00  0.00    +0.003 C 
ATOM     25  C   UNL     1      -4.085   2.740  25.251  0.00  0.00    +0.006 C 
ENDROOT
BRANCH   2   3
ATOM      3  C   UNL     1      -4.112   3.690  25.721  0.00  0.00    +0.185 C 
ATOM      4  O   UNL     1      -3.987   4.411  26.104  0.00  0.00    -0.220 OA
ENDBRANCH   2   3
BRANCH  10  11
ATOM     11  C   UNL     1      -4.376   0.786  24.322  0.00  0.00    +0.089 C 
BRANCH  11  12
ATOM     12  C   UNL     1      -4.463   0.079  24.737  0.00  0.00    +0.242 C 
ATOM     13  O   UNL     1      -4.873   0.069  25.453  0.00  0.00    -0.273 OA
ATOM     14  N   UNL     1      -4.140  -0.618  24.437  0.00  0.00    -0.200 NA
BRANCH  14  15
ATOM     15  C   UNL     1      -4.227  -1.326  24.853  0.00  0.00    +0.148 C 
BRANCH  15  16
ATOM     16  C   UNL     1      -3.841  -2.007  24.594  0.00  0.00    +0.029 A 
ATOM     17  C   UNL     1      -4.085  -2.499  23.978  0.00  0.00    +0.004 A 
ATOM     18  C   UNL     1      -3.538  -3.111  23.909  0.00  0.00    +0.007 A 
ATOM     19  C   UNL     1      -2.956  -2.999  24.482  0.00  0.00    +0.035 A 
ATOM     20  S   UNL     1      -3.143  -2.317  24.906  0.00  0.00    -0.089 S 
ENDBRANCH  15  16
ENDBRANCH  14  15
ENDBRANCH  11  12
ENDBRANCH  10  11
BRANCH   5  26
ATOM     26  O   UNL     1      -2.075   3.567  25.448  0.00  0.00    -0.437 OA
BRANCH  26  27
ATOM     27  C   UNL     1      -1.372   3.272  25.762  0.00  0.00    +0.421 C 
ATOM     28  O   UNL     1      -1.390   2.642  26.296  0.00  0.00    -0.225 OA
ATOM     29  N   UNL     1      -0.650   3.606  25.544  0.00  0.00    -0.170 NA
BRANCH  29  30
ATOM     30  C   UNL     1      -0.632   4.236  25.011  0.00  0.00    +0.099 C 
ATOM     31  C   UNL     1      -0.822   4.998  25.265  0.00  0.00    +0.022 C 
ATOM     32  C   UNL     1      -0.804   5.626  24.733  0.00  0.00    +0.002 C 
ATOM     33  C   UNL     1      -0.595   5.495  23.946  0.00  0.00    +0.000 C 
ATOM     34  C   UNL     1      -0.405   4.734  23.692  0.00  0.00    +0.002 C 
ATOM     35  C   UNL     1      -0.423   4.105  24.224  0.00  0.00    +0.022 C 
ENDBRANCH  29  30
ENDBRANCH  26  27
ENDBRANCH   5  26
TORSDOF 8
ENDMDL
MODEL 7
REMARK VINA RESULT:      -9.1      3.238      4.984
REMARK  Name = 
REMARK  8 active torsions:
REMARK  status: ('A' for Active; 'I' for Inactive)
REMARK    1  A    between atoms: C_2  and  C_3
REMARK    2  A    between atoms: C_5  and  O_26
REMARK    3  A    between atoms: C_10  and  C_11
REMARK    4  A    between atoms: C_11  and  C_12
REMARK    5  A    between atoms: N_14  and  C_15
REMARK    6  A    between atoms: C_15  and  C_16
REMARK    7  A    between atoms: O_26  and  C_27
REMARK    8  A    between atoms: N_29  and  C_30
REMARK                            x       y       z     vdW  Elec       q    Type
REMARK                         _______ _______ _______ _____ _____    ______ ____
ROOT
ATOM      1  C   UNL     1      -4.863   0.055  24.916  0.00  0.00    +0.006 C 
ATOM      2  C   UNL     1      -4.767   0.874  24.917  0.00  0.00    +0.068 C 
ATOM      5  C   UNL     1      -4.128   0.656  24.445  0.00  0.00    +0.173 C 
ATOM      6  C   UNL     1      -3.625   1.235  24.138  0.00  0.00    +0.044 C 
ATOM      7  C   UNL     1      -3.763   2.030  24.303  0.00  0.00    +0.004 C 
ATOM      8  C   UNL     1      -4.402   2.249  24.775  0.00  0.00    +0.003 C 
ATOM      9  C   UNL     1      -3.901   2.826  24.468  0.00  0.00    +0.000 C 
ATOM     10  C   UNL     1      -4.541   3.045  24.941  0.00  0.00    +0.040 C 
ATOM     21  C   UNL     1      -5.181   3.263  25.413  0.00  0.00    +0.152 C 
ATOM     22  O   UNL     1      -5.319   4.060  25.578  0.00  0.00    -0.223 OA
ATOM     23  C   UNL     1      -5.683   2.685  25.720  0.00  0.00    +0.033 C 
ATOM     24  C   UNL     1      -5.545   1.889  25.555  0.00  0.00    +0.003 C 
ATOM     25  C   UNL     1      -4.905   1.670  25.083  0.00  0.00    +0.006 C 
ENDROOT
BRANCH   2   3
ATOM      3  C   UNL     1      -5.440   0.808  25.389  0.00  0.00    +0.185 C 
ATOM      4  O   UNL     1      -5.612   0.093  25.766  0.00  0.00    -0.220 OA
ENDBRANCH   2   3
BRANCH  10  11
ATOM     11  C   UNL     1      -4.039   3.623  24.634  0.00  0.00    +0.089 C 
BRANCH  11  12
ATOM     12  C   UNL     1      -3.521   4.028  25.132  0.00  0.00    +0.242 C 
ATOM     13  O   UNL     1      -3.760   4.233  25.895  0.00  0.00    -0.273 OA
ATOM     14  N   UNL     1      -2.766   4.227  24.869  0.00  0.00    -0.200 NA
BRANCH  14  15
ATOM     15  C   UNL     1      -2.249   4.633  25.369  0.00  0.00    +0.148 C 
BRANCH  15  16
ATOM     16  C   UNL     1      -1.477   4.789  25.124  0.00  0.00    +0.029 A 
ATOM     17  C   UNL     1      -1.186   5.520  24.874  0.00  0.00    +0.004 A 
ATOM     18  C   UNL     1      -0.390   5.425  24.681  0.00  0.00    +0.007 A 
ATOM     19  C   UNL     1      -0.188   4.636  24.812  0.00  0.00    +0.035 A 
ATOM     20  S   UNL     1      -0.860   4.243  25.085  0.00  0.00    -0.089 S 
ENDBRANCH  15  16
ENDBRANCH  14  15
ENDBRANCH  11  12
ENDBRANCH  10  11
BRANCH   5  26
ATOM     26  O   UNL     1      -3.989  -0.141  24.280  0.00  0.00    -0.437 OA
BRANCH  26  27
ATOM     27  C   UNL     1      -3.637  -0.360  23.566  0.00  0.00    +0.421 C 
ATOM     28  O   UNL     1      -3.683   0.143  22.912  0.00  0.00    -0.225 OA
ATOM     29  N   UNL     1      -3.239  -1.079  23.506  0.00  0.00    -0.170 NA
BRANCH  29  30
ATOM     30  C   UNL     1      -3.193  -1.581  24.159  0.00  0.00    +0.099 C 
ATOM     31  C   UNL     1      -2.595  -1.477  24.718  0.00  0.00    +0.022 C 
ATOM     32  C   UNL     1      -2.549  -1.979  25.370  0.00  0.00    +0.002 C 
ATOM     33  C   UNL     1      -3.101  -2.584  25.465  0.00  0.00    +0.000 C 
ATOM     34  C   UNL     1      -3.698  -2.688  24.907  0.00  0.00    +0.002 C 
ATOM     35  C   UNL     1      -3.744  -2.187  24.254  0.00  0.00    +0.022 C 
ENDBRANCH  29  30
ENDBRANCH  26  27
ENDBRANCH   5  26
TORSDOF 8
ENDMDL
