MODEL 1
REMARK VINA RESULT:      -8.9      0.000      0.000
REMARK  Name = 
REMARK  6 active torsions:
REMARK  status: ('A' for Active; 'I' for Inactive)
REMARK    1  A    between atoms: C_2  and  C_3
REMARK    2  A    between atoms: C_3  and  N_4
REMARK    3  A    between atoms: C_5  and  O_7
REMARK    4  A    between atoms: O_7  and  C_8
REMARK    5  A    between atoms: C_12  and  N_16
REMARK    6  A    between atoms: C_19  and  C_23
REMARK                            x       y       z     vdW  Elec       q    Type
REMARK                         _______ _______ _______ _____ _____    ______ ____
ROOT
ATOM      8  C   UNL     1       0.303   0.093  23.613  0.00  0.00    +0.229 C 
ATOM      9  C   UNL     1       0.215   0.879  23.380  0.00  0.00    +0.188 C 
ATOM     10  O   UNL     1      -0.464   1.178  23.742  0.00  0.00    -0.348 OA
ATOM     11  C   UNL     1      -0.796   0.576  24.199  0.00  0.00    +0.168 C 
ATOM     12  C   UNL     1      -1.420   0.388  24.704  0.00  0.00    +0.155 C 
ATOM     13  C   UNL     1      -1.332  -0.399  24.936  0.00  0.00    +0.166 C 
ATOM     14  O   UNL     1      -0.653  -0.697  24.574  0.00  0.00    -0.348 OA
ATOM     15  C   UNL     1      -0.322  -0.095  24.118  0.00  0.00    +0.186 C 
ENDROOT
BRANCH  12  16
ATOM     16  N   UNL     1      -2.026   0.897  24.937  0.00  0.00    -0.200 NA
ATOM     17  C   UNL     1      -2.810   0.710  24.767  0.00  0.00    +0.237 A 
ATOM     18  N   UNL     1      -3.417   1.219  24.999  0.00  0.00    -0.212 NA
ATOM     19  C   UNL     1      -4.201   1.031  24.830  0.00  0.00    +0.092 A 
ATOM     20  C   UNL     1      -4.381   0.334  24.427  0.00  0.00    +0.040 A 
ATOM     21  C   UNL     1      -3.775  -0.176  24.194  0.00  0.00    +0.103 A 
ATOM     22  N   UNL     1      -2.990   0.012  24.364  0.00  0.00    -0.211 NA
BRANCH  19  23
ATOM     23  C   UNL     1      -4.807   1.541  25.062  0.00  0.00    +0.047 A 
ATOM     24  C   UNL     1      -5.489   1.325  25.474  0.00  0.00    +0.009 A 
ATOM     25  C   UNL     1      -5.942   2.005  25.590  0.00  0.00    +0.008 A 
ATOM     26  C   UNL     1      -5.540   2.641  25.250  0.00  0.00    +0.035 A 
ATOM     27  S   UNL     1      -4.839   2.353  24.924  0.00  0.00    -0.085 S 
ENDBRANCH  19  23
ENDBRANCH  12  16
BRANCH   8   7
ATOM      7  O   UNL     1       0.908  -0.417  23.380  0.00  0.00    -0.432 OA
BRANCH   7   5
ATOM      4  N   UNL     1       2.232   0.003  23.046  0.00  0.00    -0.164 NA
ATOM      5  C   UNL     1       1.460  -0.172  22.817  0.00  0.00    +0.421 C 
ATOM      6  O   UNL     1       1.238  -0.102  22.025  0.00  0.00    -0.225 OA
BRANCH   4   3
ATOM      3  C   UNL     1       2.784   0.248  22.483  0.00  0.00    +0.145 C 
BRANCH   3   2
ATOM      1  C   UNL     1       4.033   0.908  22.700  0.00  0.00    -0.003 C 
ATOM      2  C   UNL     1       3.590   0.212  22.653  0.00  0.00    -0.003 C 
ENDBRANCH   3   2
ENDBRANCH   4   3
ENDBRANCH   7   5
ENDBRANCH   8   7
TORSDOF 6
ENDMDL
MODEL 2
REMARK VINA RESULT:      -8.6      2.154      2.843
REMARK  Name = 
REMARK  6 active torsions:
REMARK  status: ('A' for Active; 'I' for Inactive)
REMARK    1  A    between atoms: C_2  and  C_3
REMARK    2  A    between atoms: C_3  and  N_4
REMARK    3  A    between atoms: C_5  and  O_7
REMARK    4  A    between atoms: O_7  and  C_8
REMARK    5  A    between atoms: C_12  and  N_16
REMARK    6  A    between atoms: C_19  and  C_23
REMARK                            x       y       z     vdW  Elec       q    Type
REMARK                         _______ _______ _______ _____ _____    ______ ____
ROOT
ATOM      8  C   UNL     1       2.056   0.734  23.074  0.00  0.00    +0.229 C 
ATOM      9  C   UNL     1       1.952   0.039  22.643  0.00  0.00    +0.188 C 
ATOM     10  O   UNL     1       1.178  -0.221  22.762  0.00  0.00    -0.348 OA
ATOM     11  C   UNL     1       0.804   0.315  23.267  0.00  0.00    +0.168 C 
ATOM     12  C   UNL     1       0.094   0.484  23.652  0.00  0.00    +0.155 C 
ATOM     13  C   UNL     1       0.200   1.181  24.083  0.00  0.00    +0.166 C 
ATOM     14  O   UNL     1       0.973   1.440  23.963  0.00  0.00    -0.348 OA
ATOM     15  C   UNL     1       1.347   0.905  23.459  0.00  0.00    +0.186 C 
ENDROOT
BRANCH  12  16
ATOM     16  N   UNL     1      -0.598   0.038  23.613  0.00  0.00    -0.200 NA
ATOM     17  C   UNL     1      -0.964  -0.216  24.307  0.00  0.00    +0.237 A 
ATOM     18  N   UNL     1      -1.656  -0.663  24.269  0.00  0.00    -0.212 NA
ATOM     19  C   UNL     1      -2.022  -0.918  24.962  0.00  0.00    +0.092 A 
ATOM     20  C   UNL     1      -1.696  -0.725  25.695  0.00  0.00    +0.040 A 
ATOM     21  C   UNL     1      -1.003  -0.279  25.735  0.00  0.00    +0.103 A 
ATOM     22  N   UNL     1      -0.637  -0.024  25.040  0.00  0.00    -0.211 NA
BRANCH  19  23
ATOM     23  C   UNL     1      -2.715  -1.365  24.924  0.00  0.00    +0.047 A 
ATOM     24  C   UNL     1      -2.758  -2.188  24.890  0.00  0.00    +0.009 A 
ATOM     25  C   UNL     1      -3.555  -2.400  24.859  0.00  0.00    +0.008 A 
ATOM     26  C   UNL     1      -4.004  -1.708  24.873  0.00  0.00    +0.035 A 
ATOM     27  S   UNL     1      -3.485  -1.068  24.914  0.00  0.00    -0.085 S 
ENDBRANCH  19  23
ENDBRANCH  12  16
BRANCH   8   7
ATOM      7  O   UNL     1       2.748   1.182  23.113  0.00  0.00    -0.432 OA
BRANCH   7   5
ATOM      4  N   UNL     1       4.067   0.714  23.402  0.00  0.00    -0.164 NA
ATOM      5  C   UNL     1       3.464   0.857  22.859  0.00  0.00    +0.421 C 
ATOM      6  O   UNL     1       3.575   0.676  22.061  0.00  0.00    -0.225 OA
BRANCH   4   3
ATOM      3  C   UNL     1       4.783   0.390  23.148  0.00  0.00    +0.145 C 
BRANCH   3   2
ATOM      1  C   UNL     1       5.734  -0.386  23.880  0.00  0.00    -0.003 C 
ATOM      2  C   UNL     1       5.423   0.348  23.667  0.00  0.00    -0.003 C 
ENDBRANCH   3   2
ENDBRANCH   4   3
ENDBRANCH   7   5
ENDBRANCH   8   7
TORSDOF 6
ENDMDL
MODEL 3
REMARK VINA RESULT:      -8.0      3.353      4.912
REMARK  Name = 
REMARK  6 active torsions:
REMARK  status: ('A' for Active; 'I' for Inactive)
REMARK    1  A    between atoms: C_2  and  C_3
REMARK    2  A    between atoms: C_3  and  N_4
REMARK    3  A    between atoms: C_5  and  O_7
REMARK    4  A    between atoms: O_7  and  C_8
REMARK    5  A    between atoms: C_12  and  N_16
REMARK    6  A    between atoms: C_19  and  C_23
REMARK                            x       y       z     vdW  Elec       q    Type
REMARK                         _______ _______ _______ _____ _____    ______ ____
ROOT
ATOM      8  C   UNL     1      -3.897   3.404  24.997  0.00  0.00    +0.229 C 
ATOM      9  C   UNL     1      -4.297   3.055  25.628  0.00  0.00    +0.188 C 
ATOM     10  O   UNL     1      -4.401   2.255  25.453  0.00  0.00    -0.348 OA
ATOM     11  C   UNL     1      -4.065   2.110  24.712  0.00  0.00    +0.168 C 
ATOM     12  C   UNL     1      -3.922   1.527  24.147  0.00  0.00    +0.155 C 
ATOM     13  C   UNL     1      -3.522   1.877  23.516  0.00  0.00    +0.166 C 
ATOM     14  O   UNL     1      -3.418   2.676  23.692  0.00  0.00    -0.348 OA
ATOM     15  C   UNL     1      -3.753   2.820  24.431  0.00  0.00    +0.186 C 
ENDROOT
BRANCH  12  16
ATOM     16  N   UNL     1      -4.140   0.734  24.202  0.00  0.00    -0.200 NA
ATOM     17  C   UNL     1      -3.563   0.151  24.284  0.00  0.00    +0.237 A 
ATOM     18  N   UNL     1      -3.781  -0.643  24.339  0.00  0.00    -0.212 NA
ATOM     19  C   UNL     1      -3.203  -1.225  24.421  0.00  0.00    +0.092 A 
ATOM     20  C   UNL     1      -2.406  -1.014  24.446  0.00  0.00    +0.040 A 
ATOM     21  C   UNL     1      -2.187  -0.221  24.391  0.00  0.00    +0.103 A 
ATOM     22  N   UNL     1      -2.766   0.362  24.310  0.00  0.00    -0.211 NA
BRANCH  19  23
ATOM     23  C   UNL     1      -3.421  -2.019  24.476  0.00  0.00    +0.047 A 
ATOM     24  C   UNL     1      -3.856  -2.442  23.916  0.00  0.00    +0.009 A 
ATOM     25  C   UNL     1      -3.947  -3.213  24.195  0.00  0.00    +0.008 A 
ATOM     26  C   UNL     1      -3.568  -3.267  24.926  0.00  0.00    +0.035 A 
ATOM     27  S   UNL     1      -3.244  -2.529  25.099  0.00  0.00    -0.085 S 
ENDBRANCH  19  23
ENDBRANCH  12  16
BRANCH   8   7
ATOM      7  O   UNL     1      -3.678   4.197  24.941  0.00  0.00    -0.432 OA
BRANCH   7   5
ATOM      4  N   UNL     1      -2.337   4.690  24.972  0.00  0.00    -0.164 NA
ATOM      5  C   UNL     1      -3.028   4.477  25.368  0.00  0.00    +0.421 C 
ATOM      6  O   UNL     1      -3.072   4.543  26.189  0.00  0.00    -0.225 OA
BRANCH   4   3
ATOM      3  C   UNL     1      -1.688   4.970  25.399  0.00  0.00    +0.145 C 
BRANCH   3   2
ATOM      1  C   UNL     1      -0.445   4.828  24.707  0.00  0.00    -0.003 C 
ATOM      2  C   UNL     1      -1.049   5.308  25.002  0.00  0.00    -0.003 C 
ENDBRANCH   3   2
ENDBRANCH   4   3
ENDBRANCH   7   5
ENDBRANCH   8   7
TORSDOF 6
ENDMDL
MODEL 4
REMARK VINA RESULT:      -7.9      2.691      4.228
REMARK  Name = 
REMARK  6 active torsions:
REMARK  status: ('A' for Active; 'I' for Inactive)
REMARK    1  A    between atoms: C_2  and  C_3
REMARK    2  A    between atoms: C_3  and  N_4
REMARK    3  A    between atoms: C_5  and  O_7
REMARK    4  A    between atoms: O_7  and  C_8
REMARK    5  A    between atoms: C_12  and  N_16
REMARK    6  A    between atoms: C_19  and  C_23
REMARK                            x       y       z     vdW  Elec       q    Type
REMARK                         _______ _______ _______ _____ _____    ______ ____
ROOT
ATOM      8  C   UNL     1      -0.983  -1.312  24.874  0.00  0.00    +0.229 C 
ATOM      9  C   UNL     1      -0.554  -1.033  24.228  0.00  0.00    +0.188 C 
ATOM     10  O   UNL     1      -0.436  -0.223  24.331  0.00  0.00    -0.348 OA
ATOM     11  C   UNL     1      -0.793  -0.002  25.042  0.00  0.00    +0.168 C 
ATOM     12  C   UNL     1      -0.941   0.636  25.544  0.00  0.00    +0.155 C 
ATOM     13  C   UNL     1      -1.370   0.355  26.191  0.00  0.00    +0.166 C 
ATOM     14  O   UNL     1      -1.488  -0.455  26.087  0.00  0.00    -0.348 OA
ATOM     15  C   UNL     1      -1.131  -0.675  25.377  0.00  0.00    +0.186 C 
ENDROOT
BRANCH  12  16
ATOM     16  N   UNL     1      -0.701   1.415  25.422  0.00  0.00    -0.200 NA
ATOM     17  C   UNL     1      -1.264   2.014  25.358  0.00  0.00    +0.237 A 
ATOM     18  N   UNL     1      -1.025   2.795  25.236  0.00  0.00    -0.212 NA
ATOM     19  C   UNL     1      -1.587   3.394  25.172  0.00  0.00    +0.092 A 
ATOM     20  C   UNL     1      -2.390   3.213  25.230  0.00  0.00    +0.040 A 
ATOM     21  C   UNL     1      -2.630   2.434  25.352  0.00  0.00    +0.103 A 
ATOM     22  N   UNL     1      -2.067   1.834  25.416  0.00  0.00    -0.211 NA
BRANCH  19  23
ATOM     23  C   UNL     1      -1.348   4.174  25.050  0.00  0.00    +0.047 A 
ATOM     24  C   UNL     1      -1.766   4.850  25.275  0.00  0.00    +0.009 A 
ATOM     25  C   UNL     1      -1.326   5.509  25.046  0.00  0.00    +0.008 A 
ATOM     26  C   UNL     1      -0.637   5.242  24.680  0.00  0.00    +0.035 A 
ATOM     27  S   UNL     1      -0.651   4.417  24.682  0.00  0.00    -0.085 S 
ENDBRANCH  19  23
ENDBRANCH  12  16
BRANCH   8   7
ATOM      7  O   UNL     1      -1.223  -2.092  24.997  0.00  0.00    -0.432 OA
BRANCH   7   5
ATOM      4  N   UNL     1      -2.558  -2.450  24.632  0.00  0.00    -0.164 NA
ATOM      5  C   UNL     1      -1.749  -2.449  24.469  0.00  0.00    +0.421 C 
ATOM      6  O   UNL     1      -1.465  -2.805  23.781  0.00  0.00    -0.225 OA
BRANCH   4   3
ATOM      3  C   UNL     1      -3.083  -2.808  24.104  0.00  0.00    +0.145 C 
BRANCH   3   2
ATOM      1  C   UNL     1      -4.369  -2.227  23.880  0.00  0.00    -0.003 C 
ATOM      2  C   UNL     1      -3.894  -2.788  24.255  0.00  0.00    -0.003 C 
ENDBRANCH   3   2
ENDBRANCH   4   3
ENDBRANCH   7   5
ENDBRANCH   8   7
TORSDOF 6
ENDMDL
MODEL 5
REMARK VINA RESULT:      -7.7      2.595      3.962
REMARK  Name = 
REMARK  6 active torsions:
REMARK  status: ('A' for Active; 'I' for Inactive)
REMARK    1  A    between atoms: C_2  and  C_3
REMARK    2  A    between atoms: C_3  and  N_4
REMARK    3  A    between atoms: C_5  and  O_7
REMARK    4  A    between atoms: O_7  and  C_8
REMARK    5  A    between atoms: C_12  and  N_16
REMARK    6  A    between atoms: C_19  and  C_23
REMARK                            x       y       z     vdW  Elec       q    Type
REMARK                         _______ _______ _______ _____ _____    ______ ____
ROOT
ATOM      8  C   UNL     1      -0.251   2.258  24.631  0.00  0.00    +0.229 C 
ATOM      9  C   UNL     1      -0.324   2.047  23.838  0.00  0.00    +0.188 C 
ATOM     10  O   UNL     1      -0.662   1.295  23.804  0.00  0.00    -0.348 OA
ATOM     11  C   UNL     1      -0.799   1.042  24.578  0.00  0.00    +0.168 C 
ATOM     12  C   UNL     1      -1.092   0.420  25.035  0.00  0.00    +0.155 C 
ATOM     13  C   UNL     1      -1.019   0.633  25.829  0.00  0.00    +0.166 C 
ATOM     14  O   UNL     1      -0.681   1.385  25.862  0.00  0.00    -0.348 OA
ATOM     15  C   UNL     1      -0.545   1.637  25.089  0.00  0.00    +0.186 C 
ENDROOT
BRANCH  12  16
ATOM     16  N   UNL     1      -1.403  -0.287  24.749  0.00  0.00    -0.200 NA
ATOM     17  C   UNL     1      -2.198  -0.467  24.870  0.00  0.00    +0.237 A 
ATOM     18  N   UNL     1      -2.510  -1.175  24.584  0.00  0.00    -0.212 NA
ATOM     19  C   UNL     1      -3.306  -1.355  24.705  0.00  0.00    +0.092 A 
ATOM     20  C   UNL     1      -3.791  -0.826  25.112  0.00  0.00    +0.040 A 
ATOM     21  C   UNL     1      -3.480  -0.118  25.398  0.00  0.00    +0.103 A 
ATOM     22  N   UNL     1      -2.683   0.062  25.277  0.00  0.00    -0.211 NA
BRANCH  19  23
ATOM     23  C   UNL     1      -3.618  -2.063  24.419  0.00  0.00    +0.047 A 
ATOM     24  C   UNL     1      -4.193  -2.137  23.831  0.00  0.00    +0.009 A 
ATOM     25  C   UNL     1      -4.340  -2.941  23.719  0.00  0.00    +0.008 A 
ATOM     26  C   UNL     1      -3.856  -3.365  24.237  0.00  0.00    +0.035 A 
ATOM     27  S   UNL     1      -3.410  -2.822  24.669  0.00  0.00    -0.085 S 
ENDBRANCH  19  23
ENDBRANCH  12  16
BRANCH   8   7
ATOM      7  O   UNL     1       0.060   2.966  24.918  0.00  0.00    -0.432 OA
BRANCH   7   5
ATOM      4  N   UNL     1      -0.714   4.158  25.071  0.00  0.00    -0.164 NA
ATOM      5  C   UNL     1      -0.210   3.687  24.619  0.00  0.00    +0.421 C 
ATOM      6  O   UNL     1       0.023   3.934  23.867  0.00  0.00    -0.225 OA
BRANCH   4   3
ATOM      3  C   UNL     1      -0.984   4.878  24.772  0.00  0.00    +0.145 C 
BRANCH   3   2
ATOM      1  C   UNL     1      -2.265   5.241  25.292  0.00  0.00    -0.003 C 
ATOM      2  C   UNL     1      -1.451   5.370  25.241  0.00  0.00    -0.003 C 
ENDBRANCH   3   2
ENDBRANCH   4   3
ENDBRANCH   7   5
ENDBRANCH   8   7
TORSDOF 6
ENDMDL
MODEL 6
REMARK VINA RESULT:      -7.4      2.552      6.076
REMARK  Name = 
REMARK  6 active torsions:
REMARK  status: ('A' for Active; 'I' for Inactive)
REMARK    1  A    between atoms: C_2  and  C_3
REMARK    2  A    between atoms: C_3  and  N_4
REMARK    3  A    between atoms: C_5  and  O_7
REMARK    4  A    between atoms: O_7  and  C_8
REMARK    5  A    between atoms: C_12  and  N_16
REMARK    6  A    between atoms: C_19  and  C_23
REMARK                            x       y       z     vdW  Elec       q    Type
REMARK                         _______ _______ _______ _____ _____    ______ ____
ROOT
ATOM      8  C   UNL     1      -2.738   3.259  25.180  0.00  0.00    +0.229 C 
ATOM      9  C   UNL     1      -2.702   3.462  24.381  0.00  0.00    +0.188 C 
ATOM     10  O   UNL     1      -2.005   3.149  24.070  0.00  0.00    -0.348 OA
ATOM     11  C   UNL     1      -1.611   2.752  24.677  0.00  0.00    +0.168 C 
ATOM     12  C   UNL     1      -0.936   2.313  24.859  0.00  0.00    +0.155 C 
ATOM     13  C   UNL     1      -0.973   2.111  25.658  0.00  0.00    +0.166 C 
ATOM     14  O   UNL     1      -1.670   2.424  25.969  0.00  0.00    -0.348 OA
ATOM     15  C   UNL     1      -2.064   2.820  25.363  0.00  0.00    +0.186 C 
ENDROOT
BRANCH  12  16
ATOM     16  N   UNL     1      -0.332   2.112  24.335  0.00  0.00    -0.200 NA
ATOM     17  C   UNL     1      -0.173   1.320  24.173  0.00  0.00    +0.237 A 
ATOM     18  N   UNL     1       0.432   1.118  23.649  0.00  0.00    -0.212 NA
ATOM     19  C   UNL     1       0.591   0.326  23.487  0.00  0.00    +0.092 A 
ATOM     20  C   UNL     1       0.146  -0.266  23.850  0.00  0.00    +0.040 A 
ATOM     21  C   UNL     1      -0.459  -0.066  24.374  0.00  0.00    +0.103 A 
ATOM     22  N   UNL     1      -0.618   0.727  24.536  0.00  0.00    -0.211 NA
BRANCH  19  23
ATOM     23  C   UNL     1       1.196   0.125  22.963  0.00  0.00    +0.047 A 
ATOM     24  C   UNL     1       1.103  -0.276  22.247  0.00  0.00    +0.009 A 
ATOM     25  C   UNL     1       1.849  -0.360  21.905  0.00  0.00    +0.008 A 
ATOM     26  C   UNL     1       2.402  -0.012  22.407  0.00  0.00    +0.035 A 
ATOM     27  S   UNL     1       1.999   0.287  23.062  0.00  0.00    -0.085 S 
ENDBRANCH  19  23
ENDBRANCH  12  16
BRANCH   8   7
ATOM      7  O   UNL     1      -3.343   3.460  25.704  0.00  0.00    -0.432 OA
BRANCH   7   5
ATOM      4  N   UNL     1      -4.603   2.789  25.636  0.00  0.00    -0.164 NA
ATOM      5  C   UNL     1      -4.129   3.440  25.454  0.00  0.00    +0.421 C 
ATOM      6  O   UNL     1      -4.441   4.070  25.023  0.00  0.00    -0.225 OA
BRANCH   4   3
ATOM      3  C   UNL     1      -5.389   2.769  25.386  0.00  0.00    +0.145 C 
BRANCH   3   2
ATOM      1  C   UNL     1      -6.252   1.667  25.098  0.00  0.00    -0.003 C 
ATOM      2  C   UNL     1      -5.889   2.167  25.646  0.00  0.00    -0.003 C 
ENDBRANCH   3   2
ENDBRANCH   4   3
ENDBRANCH   7   5
ENDBRANCH   8   7
TORSDOF 6
ENDMDL
MODEL 7
REMARK VINA RESULT:      -7.3      2.265      6.293
REMARK  Name = 
REMARK  6 active torsions:
REMARK  status: ('A' for Active; 'I' for Inactive)
REMARK    1  A    between atoms: C_2  and  C_3
REMARK    2  A    between atoms: C_3  and  N_4
REMARK    3  A    between atoms: C_5  and  O_7
REMARK    4  A    between atoms: O_7  and  C_8
REMARK    5  A    between atoms: C_12  and  N_16
REMARK    6  A    between atoms: C_19  and  C_23
REMARK                            x       y       z     vdW  Elec       q    Type
REMARK                         _______ _______ _______ _____ _____    ______ ____
ROOT
ATOM      8  C   UNL     1      -2.163   1.552  23.882  0.00  0.00    +0.229 C 
ATOM      9  C   UNL     1      -1.806   2.289  23.781  0.00  0.00    +0.188 C 
ATOM     10  O   UNL     1      -0.988   2.181  23.799  0.00  0.00    -0.348 OA
ATOM     11  C   UNL     1      -0.839   1.377  23.911  0.00  0.00    +0.168 C 
ATOM     12  C   UNL     1      -0.242   0.814  23.992  0.00  0.00    +0.155 C 
ATOM     13  C   UNL     1      -0.599   0.076  24.093  0.00  0.00    +0.166 C 
ATOM     14  O   UNL     1      -1.417   0.185  24.075  0.00  0.00    -0.348 OA
ATOM     15  C   UNL     1      -1.565   0.988  23.963  0.00  0.00    +0.186 C 
ENDROOT
BRANCH  12  16
ATOM     16  N   UNL     1       0.569   0.961  23.974  0.00  0.00    -0.200 NA
ATOM     17  C   UNL     1       1.049   0.564  23.434  0.00  0.00    +0.237 A 
ATOM     18  N   UNL     1       1.861   0.711  23.417  0.00  0.00    -0.212 NA
ATOM     19  C   UNL     1       2.341   0.314  22.877  0.00  0.00    +0.092 A 
ATOM     20  C   UNL     1       2.009  -0.232  22.354  0.00  0.00    +0.040 A 
ATOM     21  C   UNL     1       1.198  -0.380  22.370  0.00  0.00    +0.103 A 
ATOM     22  N   UNL     1       0.718   0.019  22.911  0.00  0.00    -0.211 NA
BRANCH  19  23
ATOM     23  C   UNL     1       3.152   0.461  22.859  0.00  0.00    +0.047 A 
ATOM     24  C   UNL     1       3.513   1.160  22.609  0.00  0.00    +0.009 A 
ATOM     25  C   UNL     1       4.329   1.067  22.683  0.00  0.00    +0.008 A 
ATOM     26  C   UNL     1       4.474   0.310  22.978  0.00  0.00    +0.035 A 
ATOM     27  S   UNL     1       3.747  -0.064  23.087  0.00  0.00    -0.085 S 
ENDBRANCH  19  23
ENDBRANCH  12  16
BRANCH   8   7
ATOM      7  O   UNL     1      -2.974   1.404  23.900  0.00  0.00    -0.432 OA
BRANCH   7   5
ATOM      4  N   UNL     1      -4.007   2.041  24.655  0.00  0.00    -0.164 NA
ATOM      5  C   UNL     1      -3.505   2.028  24.000  0.00  0.00    +0.421 C 
ATOM      6  O   UNL     1      -3.533   2.639  23.446  0.00  0.00    -0.225 OA
BRANCH   4   3
ATOM      3  C   UNL     1      -4.538   2.665  24.755  0.00  0.00    +0.145 C 
BRANCH   3   2
ATOM      1  C   UNL     1      -5.493   3.308  25.601  0.00  0.00    -0.003 C 
ATOM      2  C   UNL     1      -5.121   2.620  25.336  0.00  0.00    -0.003 C 
ENDBRANCH   3   2
ENDBRANCH   4   3
ENDBRANCH   7   5
ENDBRANCH   8   7
TORSDOF 6
ENDMDL
MODEL 8
REMARK VINA RESULT:      -6.9      2.494      6.140
REMARK  Name = 
REMARK  6 active torsions:
REMARK  status: ('A' for Active; 'I' for Inactive)
REMARK    1  A    between atoms: C_2  and  C_3
REMARK    2  A    between atoms: C_3  and  N_4
REMARK    3  A    between atoms: C_5  and  O_7
REMARK    4  A    between atoms: O_7  and  C_8
REMARK    5  A    between atoms: C_12  and  N_16
REMARK    6  A    between atoms: C_19  and  C_23
REMARK                            x       y       z     vdW  Elec       q    Type
REMARK                         _______ _______ _______ _____ _____    ______ ____
ROOT
ATOM      8  C   UNL     1      -1.828   0.480  24.892  0.00  0.00    +0.229 C 
ATOM      9  C   UNL     1      -1.345   0.249  25.519  0.00  0.00    +0.188 C 
ATOM     10  O   UNL     1      -0.562   0.403  25.307  0.00  0.00    -0.348 OA
ATOM     11  C   UNL     1      -0.562   0.729  24.549  0.00  0.00    +0.168 C 
ATOM     12  C   UNL     1      -0.079   1.026  23.950  0.00  0.00    +0.155 C 
ATOM     13  C   UNL     1      -0.563   1.257  23.323  0.00  0.00    +0.166 C 
ATOM     14  O   UNL     1      -1.346   1.103  23.535  0.00  0.00    -0.348 OA
ATOM     15  C   UNL     1      -1.345   0.777  24.293  0.00  0.00    +0.186 C 
ENDROOT
BRANCH  12  16
ATOM     16  N   UNL     1       0.744   1.081  23.973  0.00  0.00    -0.200 NA
ATOM     17  C   UNL     1       1.200   0.674  23.421  0.00  0.00    +0.237 A 
ATOM     18  N   UNL     1       2.023   0.729  23.444  0.00  0.00    -0.212 NA
ATOM     19  C   UNL     1       2.480   0.322  22.892  0.00  0.00    +0.092 A 
ATOM     20  C   UNL     1       2.114  -0.142  22.316  0.00  0.00    +0.040 A 
ATOM     21  C   UNL     1       1.292  -0.198  22.292  0.00  0.00    +0.103 A 
ATOM     22  N   UNL     1       0.835   0.210  22.845  0.00  0.00    -0.211 NA
BRANCH  19  23
ATOM     23  C   UNL     1       3.303   0.377  22.915  0.00  0.00    +0.047 A 
ATOM     24  C   UNL     1       3.820  -0.199  23.203  0.00  0.00    +0.009 A 
ATOM     25  C   UNL     1       4.590   0.086  23.120  0.00  0.00    +0.008 A 
ATOM     26  C   UNL     1       4.550   0.837  22.782  0.00  0.00    +0.035 A 
ATOM     27  S   UNL     1       3.755   1.017  22.655  0.00  0.00    -0.085 S 
ENDBRANCH  19  23
ENDBRANCH  12  16
BRANCH   8   7
ATOM      7  O   UNL     1      -2.651   0.425  24.868  0.00  0.00    -0.432 OA
BRANCH   7   5
ATOM      4  N   UNL     1      -3.454  -0.669  24.420  0.00  0.00    -0.164 NA
ATOM      5  C   UNL     1      -3.020  -0.299  25.016  0.00  0.00    +0.421 C 
ATOM      6  O   UNL     1      -2.954  -0.651  25.759  0.00  0.00    -0.225 OA
BRANCH   4   3
ATOM      3  C   UNL     1      -3.823  -1.393  24.568  0.00  0.00    +0.145 C 
BRANCH   3   2
ATOM      1  C   UNL     1      -4.200  -2.577  23.863  0.00  0.00    -0.003 C 
ATOM      2  C   UNL     1      -4.260  -1.761  23.973  0.00  0.00    -0.003 C 
ENDBRANCH   3   2
ENDBRANCH   4   3
ENDBRANCH   7   5
ENDBRANCH   8   7
TORSDOF 6
ENDMDL
MODEL 9
REMARK VINA RESULT:      -6.9      2.186      5.996
REMARK  Name = 
REMARK  6 active torsions:
REMARK  status: ('A' for Active; 'I' for Inactive)
REMARK    1  A    between atoms: C_2  and  C_3
REMARK    2  A    between atoms: C_3  and  N_4
REMARK    3  A    between atoms: C_5  and  O_7
REMARK    4  A    between atoms: O_7  and  C_8
REMARK    5  A    between atoms: C_12  and  N_16
REMARK    6  A    between atoms: C_19  and  C_23
REMARK                            x       y       z     vdW  Elec       q    Type
REMARK                         _______ _______ _______ _____ _____    ______ ____
ROOT
ATOM      8  C   UNL     1      -3.585   0.083  24.910  0.00  0.00    +0.229 C 
ATOM      9  C   UNL     1      -3.634  -0.092  24.105  0.00  0.00    +0.188 C 
ATOM     10  O   UNL     1      -2.874  -0.261  23.834  0.00  0.00    -0.348 OA
ATOM     11  C   UNL     1      -2.354  -0.191  24.472  0.00  0.00    +0.168 C 
ATOM     12  C   UNL     1      -1.563  -0.253  24.697  0.00  0.00    +0.155 C 
ATOM     13  C   UNL     1      -1.514  -0.078  25.503  0.00  0.00    +0.166 C 
ATOM     14  O   UNL     1      -2.275   0.091  25.773  0.00  0.00    -0.348 OA
ATOM     15  C   UNL     1      -2.794   0.021  25.136  0.00  0.00    +0.186 C 
ENDROOT
BRANCH  12  16
ATOM     16  N   UNL     1      -0.932  -0.453  24.206  0.00  0.00    -0.200 NA
ATOM     17  C   UNL     1      -0.335   0.095  24.057  0.00  0.00    +0.237 A 
ATOM     18  N   UNL     1       0.297  -0.106  23.565  0.00  0.00    -0.212 NA
ATOM     19  C   UNL     1       0.894   0.442  23.416  0.00  0.00    +0.092 A 
ATOM     20  C   UNL     1       0.861   1.192  23.759  0.00  0.00    +0.040 A 
ATOM     21  C   UNL     1       0.231   1.393  24.251  0.00  0.00    +0.103 A 
ATOM     22  N   UNL     1      -0.368   0.844  24.400  0.00  0.00    -0.211 NA
BRANCH  19  23
ATOM     23  C   UNL     1       1.526   0.242  22.924  0.00  0.00    +0.047 A 
ATOM     24  C   UNL     1       1.473  -0.174  22.213  0.00  0.00    +0.009 A 
ATOM     25  C   UNL     1       2.235  -0.251  21.906  0.00  0.00    +0.008 A 
ATOM     26  C   UNL     1       2.759   0.117  22.427  0.00  0.00    +0.035 A 
ATOM     27  S   UNL     1       2.320   0.421  23.056  0.00  0.00    -0.085 S 
ENDBRANCH  19  23
ENDBRANCH  12  16
BRANCH   8   7
ATOM      7  O   UNL     1      -4.215   0.283  25.402  0.00  0.00    -0.432 OA
BRANCH   7   5
ATOM      4  N   UNL     1      -4.862   1.554  25.499  0.00  0.00    -0.164 NA
ATOM      5  C   UNL     1      -4.790   0.815  25.140  0.00  0.00    +0.421 C 
ATOM      6  O   UNL     1      -5.292   0.606  24.519  0.00  0.00    -0.225 OA
BRANCH   4   3
ATOM      3  C   UNL     1      -5.437   2.085  25.236  0.00  0.00    +0.145 C 
BRANCH   3   2
ATOM      1  C   UNL     1      -5.401   3.487  25.514  0.00  0.00    -0.003 C 
ATOM      2  C   UNL     1      -5.654   2.725  25.710  0.00  0.00    -0.003 C 
ENDBRANCH   3   2
ENDBRANCH   4   3
ENDBRANCH   7   5
ENDBRANCH   8   7
TORSDOF 6
ENDMDL
