MODEL 1
REMARK VINA RESULT:      -9.0      0.000      0.000
REMARK  Name = 
REMARK  9 active torsions:
REMARK  status: ('A' for Active; 'I' for Inactive)
REMARK    1  A    between atoms: C_2  and  C_4
REMARK    2  A    between atoms: C_6  and  C_7
REMARK    3  A    between atoms: C_7  and  C_8
REMARK    4  A    between atoms: N_10  and  C_11
REMARK    5  A    between atoms: C_11  and  C_12
REMARK    6  A    between atoms: C_15  and  C_18
REMARK    7  A    between atoms: C_23  and  C_24
REMARK    8  A    between atoms: C_24  and  N_25
REMARK    9  A    between atoms: C_26  and  C_28
REMARK                            x       y       z     vdW  Elec       q    Type
REMARK                         _______ _______ _______ _____ _____    ______ ____
ROOT
ATOM      4  C   UNL     1      -0.803   1.998  24.552  0.00  0.00    +0.006 C 
ATOM      5  C   UNL     1      -0.278   1.394  24.352  0.00  0.00    +0.005 C 
ATOM      6  C   UNL     1      -0.560   0.631  24.217  0.00  0.00    +0.027 C 
ATOM     20  C   UNL     1      -1.367   0.472  24.282  0.00  0.00    -0.048 C 
ATOM     21  C   UNL     1      -1.650  -0.291  24.147  0.00  0.00    +0.026 C 
ATOM     22  C   UNL     1      -1.893   1.077  24.482  0.00  0.00    -0.033 C 
ATOM     23  C   UNL     1      -1.610   1.840  24.617  0.00  0.00    +0.043 C 
ENDROOT
BRANCH   4   2
ATOM      1  C   UNL     1      -0.280   2.984  25.445  0.00  0.00    +0.000 C 
ATOM      2  C   UNL     1      -0.520   2.761  24.687  0.00  0.00    +0.000 C 
ATOM      3  C   UNL     1      -0.477   3.302  24.065  0.00  0.00    +0.000 C 
ENDBRANCH   4   2
BRANCH   6   7
ATOM      7  C   UNL     1      -0.035   0.027  24.017  0.00  0.00    +0.091 C 
BRANCH   7   8
ATOM      8  C   UNL     1       0.457   0.109  23.360  0.00  0.00    +0.242 C 
ATOM      9  O   UNL     1       0.130   0.213  22.610  0.00  0.00    -0.273 OA
ATOM     10  N   UNL     1       1.276   0.088  23.454  0.00  0.00    -0.201 NA
BRANCH  10  11
ATOM     11  C   UNL     1       1.769   0.171  22.796  0.00  0.00    +0.141 C 
BRANCH  11  12
ATOM     12  C   UNL     1       2.588   0.181  22.894  0.00  0.00    -0.001 A 
ATOM     13  C   UNL     1       3.010   0.879  22.774  0.00  0.00    -0.002 A 
ATOM     14  C   UNL     1       3.830   0.887  22.872  0.00  0.00    +0.010 A 
ATOM     15  C   UNL     1       4.226   0.198  23.090  0.00  0.00    +0.068 A 
ATOM     16  C   UNL     1       3.804  -0.500  23.210  0.00  0.00    +0.010 A 
ATOM     17  C   UNL     1       2.985  -0.510  23.112  0.00  0.00    -0.002 A 
BRANCH  15  18
ATOM     18  C   UNL     1       5.046   0.206  23.188  0.00  0.00    +0.100 C 
ATOM     19  N   UNL     1       5.864   0.214  23.285  0.00  0.00    -0.191 NA
ENDBRANCH  15  18
ENDBRANCH  11  12
ENDBRANCH  10  11
ENDBRANCH   7   8
ENDBRANCH   6   7
BRANCH  23  24
ATOM     24  C   UNL     1      -2.135   2.443  24.817  0.00  0.00    +0.120 C 
BRANCH  24  25
ATOM     25  N   UNL     1      -2.929   2.268  24.962  0.00  0.00    -0.200 NA
ATOM     26  C   UNL     1      -3.489   2.874  24.975  0.00  0.00    +0.283 C 
ATOM     27  O   UNL     1      -3.257   3.654  24.843  0.00  0.00    -0.267 OA
BRANCH  26  28
ATOM     28  C   UNL     1      -4.282   2.699  25.121  0.00  0.00    +0.136 A 
ATOM     29  N   UNL     1      -4.645   2.973  25.809  0.00  0.00    -0.239 NA
ATOM     30  C   UNL     1      -5.438   2.798  25.955  0.00  0.00    +0.099 A 
ATOM     31  C   UNL     1      -5.868   2.348  25.413  0.00  0.00    +0.021 A 
ATOM     32  C   UNL     1      -5.504   2.073  24.724  0.00  0.00    +0.003 A 
ATOM     33  C   UNL     1      -4.712   2.248  24.579  0.00  0.00    +0.024 A 
ENDBRANCH  26  28
ENDBRANCH  24  25
ENDBRANCH  23  24
TORSDOF 9
ENDMDL
MODEL 2
REMARK VINA RESULT:      -8.8      3.518      5.125
REMARK  Name = 
REMARK  9 active torsions:
REMARK  status: ('A' for Active; 'I' for Inactive)
REMARK    1  A    between atoms: C_2  and  C_4
REMARK    2  A    between atoms: C_6  and  C_7
REMARK    3  A    between atoms: C_7  and  C_8
REMARK    4  A    between atoms: N_10  and  C_11
REMARK    5  A    between atoms: C_11  and  C_12
REMARK    6  A    between atoms: C_15  and  C_18
REMARK    7  A    between atoms: C_23  and  C_24
REMARK    8  A    between atoms: C_24  and  N_25
REMARK    9  A    between atoms: C_26  and  C_28
REMARK                            x       y       z     vdW  Elec       q    Type
REMARK                         _______ _______ _______ _____ _____    ______ ____
ROOT
ATOM      4  C   UNL     1      -4.636   1.502  24.523  0.00  0.00    +0.006 C 
ATOM      5  C   UNL     1      -4.422   2.277  24.341  0.00  0.00    +0.005 C 
ATOM      6  C   UNL     1      -3.860   2.423  23.754  0.00  0.00    +0.027 C 
ATOM     20  C   UNL     1      -3.511   1.793  23.351  0.00  0.00    -0.048 C 
ATOM     21  C   UNL     1      -2.949   1.938  22.765  0.00  0.00    +0.026 C 
ATOM     22  C   UNL     1      -3.725   1.017  23.534  0.00  0.00    -0.033 C 
ATOM     23  C   UNL     1      -4.288   0.872  24.120  0.00  0.00    +0.043 C 
ENDROOT
BRANCH   4   2
ATOM      1  C   UNL     1      -6.002   1.371  24.921  0.00  0.00    +0.000 C 
ATOM      2  C   UNL     1      -5.198   1.357  25.109  0.00  0.00    +0.000 C 
ATOM      3  C   UNL     1      -4.958   1.197  25.882  0.00  0.00    +0.000 C 
ENDBRANCH   4   2
BRANCH   6   7
ATOM      7  C   UNL     1      -3.646   3.199  23.572  0.00  0.00    +0.091 C 
BRANCH   7   8
ATOM      8  C   UNL     1      -3.278   3.669  24.143  0.00  0.00    +0.242 C 
ATOM      9  O   UNL     1      -3.689   4.297  24.487  0.00  0.00    -0.273 OA
ATOM     10  N   UNL     1      -2.500   3.512  24.367  0.00  0.00    -0.201 NA
BRANCH  10  11
ATOM     11  C   UNL     1      -2.133   3.983  24.937  0.00  0.00    +0.141 C 
BRANCH  11  12
ATOM     12  C   UNL     1      -1.491   3.688  25.364  0.00  0.00    -0.001 A 
ATOM     13  C   UNL     1      -0.729   3.743  25.054  0.00  0.00    -0.002 A 
ATOM     14  C   UNL     1      -0.088   3.448  25.482  0.00  0.00    +0.010 A 
ATOM     15  C   UNL     1      -0.209   3.097  26.218  0.00  0.00    +0.068 A 
ATOM     16  C   UNL     1      -0.972   3.041  26.527  0.00  0.00    +0.010 A 
ATOM     17  C   UNL     1      -1.613   3.336  26.101  0.00  0.00    -0.002 A 
BRANCH  15  18
ATOM     18  C   UNL     1       0.432   2.801  26.645  0.00  0.00    +0.100 C 
ATOM     19  N   UNL     1       1.072   2.506  27.073  0.00  0.00    -0.191 NA
ENDBRANCH  15  18
ENDBRANCH  11  12
ENDBRANCH  10  11
ENDBRANCH   7   8
ENDBRANCH   6   7
BRANCH  23  24
ATOM     24  C   UNL     1      -4.501   0.096  24.302  0.00  0.00    +0.120 C 
BRANCH  24  25
ATOM     25  N   UNL     1      -3.917  -0.476  24.417  0.00  0.00    -0.200 NA
ATOM     26  C   UNL     1      -4.079  -1.269  24.256  0.00  0.00    +0.283 C 
ATOM     27  O   UNL     1      -4.825  -1.491  23.980  0.00  0.00    -0.267 OA
BRANCH  26  28
ATOM     28  C   UNL     1      -3.496  -1.841  24.371  0.00  0.00    +0.136 A 
ATOM     29  N   UNL     1      -2.701  -1.619  24.388  0.00  0.00    -0.239 NA
ATOM     30  C   UNL     1      -2.116  -2.191  24.503  0.00  0.00    +0.099 A 
ATOM     31  C   UNL     1      -2.327  -2.982  24.601  0.00  0.00    +0.021 A 
ATOM     32  C   UNL     1      -3.122  -3.204  24.583  0.00  0.00    +0.003 A 
ATOM     33  C   UNL     1      -3.706  -2.632  24.468  0.00  0.00    +0.024 A 
ENDBRANCH  26  28
ENDBRANCH  24  25
ENDBRANCH  23  24
TORSDOF 9
ENDMDL
MODEL 3
REMARK VINA RESULT:      -8.7      2.423      5.826
REMARK  Name = 
REMARK  9 active torsions:
REMARK  status: ('A' for Active; 'I' for Inactive)
REMARK    1  A    between atoms: C_2  and  C_4
REMARK    2  A    between atoms: C_6  and  C_7
REMARK    3  A    between atoms: C_7  and  C_8
REMARK    4  A    between atoms: N_10  and  C_11
REMARK    5  A    between atoms: C_11  and  C_12
REMARK    6  A    between atoms: C_15  and  C_18
REMARK    7  A    between atoms: C_23  and  C_24
REMARK    8  A    between atoms: C_24  and  N_25
REMARK    9  A    between atoms: C_26  and  C_28
REMARK                            x       y       z     vdW  Elec       q    Type
REMARK                         _______ _______ _______ _____ _____    ______ ____
ROOT
ATOM      4  C   UNL     1      -0.326   1.131  24.281  0.00  0.00    +0.006 C 
ATOM      5  C   UNL     1      -0.231   1.923  24.494  0.00  0.00    +0.005 C 
ATOM      6  C   UNL     1      -0.299   2.147  25.286  0.00  0.00    +0.027 C 
ATOM     20  C   UNL     1      -0.460   1.580  25.863  0.00  0.00    -0.048 C 
ATOM     21  C   UNL     1      -0.528   1.804  26.654  0.00  0.00    +0.026 C 
ATOM     22  C   UNL     1      -0.555   0.788  25.649  0.00  0.00    -0.033 C 
ATOM     23  C   UNL     1      -0.487   0.564  24.858  0.00  0.00    +0.043 C 
ENDROOT
BRANCH   4   2
ATOM      1  C   UNL     1      -0.901   1.000  22.980  0.00  0.00    +0.000 C 
ATOM      2  C   UNL     1      -0.258   0.908  23.490  0.00  0.00    +0.000 C 
ATOM      3  C   UNL     1       0.450   0.592  23.209  0.00  0.00    +0.000 C 
ENDBRANCH   4   2
BRANCH   6   7
ATOM      7  C   UNL     1      -0.205   2.938  25.499  0.00  0.00    +0.091 C 
BRANCH   7   8
ATOM      8  C   UNL     1      -0.725   3.509  25.207  0.00  0.00    +0.242 C 
ATOM      9  O   UNL     1      -0.475   4.037  24.625  0.00  0.00    -0.273 OA
ATOM     10  N   UNL     1      -1.496   3.550  25.498  0.00  0.00    -0.201 NA
BRANCH  10  11
ATOM     11  C   UNL     1      -2.017   4.120  25.206  0.00  0.00    +0.141 C 
BRANCH  11  12
ATOM     12  C   UNL     1      -2.831   4.020  25.298  0.00  0.00    -0.001 A 
ATOM     13  C   UNL     1      -3.296   3.809  24.650  0.00  0.00    -0.002 A 
ATOM     14  C   UNL     1      -4.110   3.710  24.743  0.00  0.00    +0.010 A 
ATOM     15  C   UNL     1      -4.458   3.820  25.482  0.00  0.00    +0.068 A 
ATOM     16  C   UNL     1      -3.992   4.031  26.130  0.00  0.00    +0.010 A 
ATOM     17  C   UNL     1      -3.179   4.131  26.038  0.00  0.00    -0.002 A 
BRANCH  15  18
ATOM     18  C   UNL     1      -5.272   3.721  25.575  0.00  0.00    +0.100 C 
ATOM     19  N   UNL     1      -6.085   3.622  25.668  0.00  0.00    -0.191 NA
ENDBRANCH  15  18
ENDBRANCH  11  12
ENDBRANCH  10  11
ENDBRANCH   7   8
ENDBRANCH   6   7
BRANCH  23  24
ATOM     24  C   UNL     1      -0.581  -0.227  24.645  0.00  0.00    +0.120 C 
BRANCH  24  25
ATOM     25  N   UNL     1      -1.317  -0.591  24.729  0.00  0.00    -0.200 NA
ATOM     26  C   UNL     1      -1.364  -1.411  24.819  0.00  0.00    +0.283 C 
ATOM     27  O   UNL     1      -0.676  -1.865  24.824  0.00  0.00    -0.267 OA
BRANCH  26  28
ATOM     28  C   UNL     1      -2.100  -1.775  24.903  0.00  0.00    +0.136 A 
ATOM     29  N   UNL     1      -2.303  -2.409  24.416  0.00  0.00    -0.239 NA
ATOM     30  C   UNL     1      -3.039  -2.773  24.500  0.00  0.00    +0.099 A 
ATOM     31  C   UNL     1      -3.571  -2.503  25.070  0.00  0.00    +0.021 A 
ATOM     32  C   UNL     1      -3.367  -1.868  25.556  0.00  0.00    +0.003 A 
ATOM     33  C   UNL     1      -2.631  -1.504  25.473  0.00  0.00    +0.024 A 
ENDBRANCH  26  28
ENDBRANCH  24  25
ENDBRANCH  23  24
TORSDOF 9
ENDMDL
MODEL 4
REMARK VINA RESULT:      -8.5      2.010      5.921
REMARK  Name = 
REMARK  9 active torsions:
REMARK  status: ('A' for Active; 'I' for Inactive)
REMARK    1  A    between atoms: C_2  and  C_4
REMARK    2  A    between atoms: C_6  and  C_7
REMARK    3  A    between atoms: C_7  and  C_8
REMARK    4  A    between atoms: N_10  and  C_11
REMARK    5  A    between atoms: C_11  and  C_12
REMARK    6  A    between atoms: C_15  and  C_18
REMARK    7  A    between atoms: C_23  and  C_24
REMARK    8  A    between atoms: C_24  and  N_25
REMARK    9  A    between atoms: C_26  and  C_28
REMARK                            x       y       z     vdW  Elec       q    Type
REMARK                         _______ _______ _______ _____ _____    ______ ____
ROOT
ATOM      4  C   UNL     1      -1.389   2.229  24.909  0.00  0.00    +0.006 C 
ATOM      5  C   UNL     1      -2.211   2.280  24.860  0.00  0.00    +0.005 C 
ATOM      6  C   UNL     1      -2.584   2.230  24.125  0.00  0.00    +0.027 C 
ATOM     20  C   UNL     1      -2.134   2.130  23.440  0.00  0.00    -0.048 C 
ATOM     21  C   UNL     1      -2.507   2.080  22.706  0.00  0.00    +0.026 C 
ATOM     22  C   UNL     1      -1.312   2.079  23.490  0.00  0.00    -0.033 C 
ATOM     23  C   UNL     1      -0.940   2.129  24.224  0.00  0.00    +0.043 C 
ENDROOT
BRANCH   4   2
ATOM      1  C   UNL     1      -0.843   1.591  26.065  0.00  0.00    +0.000 C 
ATOM      2  C   UNL     1      -1.016   2.279  25.643  0.00  0.00    +0.000 C 
ATOM      3  C   UNL     1      -0.817   3.016  25.956  0.00  0.00    +0.000 C 
ENDBRANCH   4   2
BRANCH   6   7
ATOM      7  C   UNL     1      -3.405   2.280  24.076  0.00  0.00    +0.091 C 
BRANCH   7   8
ATOM      8  C   UNL     1      -3.876   1.746  24.494  0.00  0.00    +0.242 C 
ATOM      9  O   UNL     1      -4.341   2.010  25.123  0.00  0.00    -0.273 OA
ATOM     10  N   UNL     1      -3.883   0.949  24.283  0.00  0.00    -0.201 NA
BRANCH  10  11
ATOM     11  C   UNL     1      -4.354   0.415  24.701  0.00  0.00    +0.141 C 
BRANCH  11  12
ATOM     12  C   UNL     1      -4.178  -0.391  24.683  0.00  0.00    -0.001 A 
ATOM     13  C   UNL     1      -4.359  -0.838  24.015  0.00  0.00    -0.002 A 
ATOM     14  C   UNL     1      -4.183  -1.644  23.998  0.00  0.00    +0.010 A 
ATOM     15  C   UNL     1      -3.826  -2.002  24.649  0.00  0.00    +0.068 A 
ATOM     16  C   UNL     1      -3.645  -1.554  25.318  0.00  0.00    +0.010 A 
ATOM     17  C   UNL     1      -3.820  -0.749  25.336  0.00  0.00    -0.002 A 
BRANCH  15  18
ATOM     18  C   UNL     1      -3.649  -2.808  24.633  0.00  0.00    +0.100 C 
ATOM     19  N   UNL     1      -3.474  -3.614  24.617  0.00  0.00    -0.191 NA
ENDBRANCH  15  18
ENDBRANCH  11  12
ENDBRANCH  10  11
ENDBRANCH   7   8
ENDBRANCH   6   7
BRANCH  23  24
ATOM     24  C   UNL     1      -0.118   2.079  24.273  0.00  0.00    +0.120 C 
BRANCH  24  25
ATOM     25  N   UNL     1       0.287   1.504  23.840  0.00  0.00    -0.200 NA
ATOM     26  C   UNL     1       1.107   1.547  23.761  0.00  0.00    +0.283 C 
ATOM     27  O   UNL     1       1.523   2.166  24.115  0.00  0.00    -0.267 OA
BRANCH  26  28
ATOM     28  C   UNL     1       1.511   0.972  23.329  0.00  0.00    +0.136 A 
ATOM     29  N   UNL     1       2.319   1.055  23.188  0.00  0.00    -0.239 NA
ATOM     30  C   UNL     1       2.723   0.480  22.756  0.00  0.00    +0.099 A 
ATOM     31  C   UNL     1       2.319  -0.177  22.464  0.00  0.00    +0.021 A 
ATOM     32  C   UNL     1       1.509  -0.260  22.604  0.00  0.00    +0.003 A 
ATOM     33  C   UNL     1       1.106   0.315  23.037  0.00  0.00    +0.024 A 
ENDBRANCH  26  28
ENDBRANCH  24  25
ENDBRANCH  23  24
TORSDOF 9
ENDMDL
MODEL 5
REMARK VINA RESULT:      -8.2      1.162      1.885
REMARK  Name = 
REMARK  9 active torsions:
REMARK  status: ('A' for Active; 'I' for Inactive)
REMARK    1  A    between atoms: C_2  and  C_4
REMARK    2  A    between atoms: C_6  and  C_7
REMARK    3  A    between atoms: C_7  and  C_8
REMARK    4  A    between atoms: N_10  and  C_11
REMARK    5  A    between atoms: C_11  and  C_12
REMARK    6  A    between atoms: C_15  and  C_18
REMARK    7  A    between atoms: C_23  and  C_24
REMARK    8  A    between atoms: C_24  and  N_25
REMARK    9  A    between atoms: C_26  and  C_28
REMARK                            x       y       z     vdW  Elec       q    Type
REMARK                         _______ _______ _______ _____ _____    ______ ____
ROOT
ATOM      4  C   UNL     1      -1.303  -0.035  24.671  0.00  0.00    +0.006 C 
ATOM      5  C   UNL     1      -0.545   0.205  24.451  0.00  0.00    +0.005 C 
ATOM      6  C   UNL     1      -0.436   0.932  24.074  0.00  0.00    +0.027 C 
ATOM     20  C   UNL     1      -1.084   1.418  23.919  0.00  0.00    -0.048 C 
ATOM     21  C   UNL     1      -0.975   2.144  23.543  0.00  0.00    +0.026 C 
ATOM     22  C   UNL     1      -1.843   1.177  24.140  0.00  0.00    -0.033 C 
ATOM     23  C   UNL     1      -1.951   0.451  24.516  0.00  0.00    +0.043 C 
ENDROOT
BRANCH   4   2
ATOM      1  C   UNL     1      -1.585  -1.434  24.602  0.00  0.00    +0.000 C 
ATOM      2  C   UNL     1      -1.411  -0.761  25.047  0.00  0.00    +0.000 C 
ATOM      3  C   UNL     1      -1.347  -0.815  25.868  0.00  0.00    +0.000 C 
ENDBRANCH   4   2
BRANCH   6   7
ATOM      7  C   UNL     1       0.322   1.171  23.854  0.00  0.00    +0.091 C 
BRANCH   7   8
ATOM      8  C   UNL     1       0.768   0.705  23.338  0.00  0.00    +0.242 C 
ATOM      9  O   UNL     1       0.391   0.247  22.765  0.00  0.00    -0.273 OA
ATOM     10  N   UNL     1       1.591   0.698  23.397  0.00  0.00    -0.201 NA
BRANCH  10  11
ATOM     11  C   UNL     1       2.037   0.232  22.881  0.00  0.00    +0.141 C 
BRANCH  11  12
ATOM     12  C   UNL     1       2.856   0.196  22.963  0.00  0.00    -0.001 A 
ATOM     13  C   UNL     1       3.321   0.844  22.753  0.00  0.00    -0.002 A 
ATOM     14  C   UNL     1       4.142   0.807  22.836  0.00  0.00    +0.010 A 
ATOM     15  C   UNL     1       4.497   0.123  23.128  0.00  0.00    +0.068 A 
ATOM     16  C   UNL     1       4.032  -0.525  23.338  0.00  0.00    +0.010 A 
ATOM     17  C   UNL     1       3.212  -0.489  23.256  0.00  0.00    -0.002 A 
BRANCH  15  18
ATOM     18  C   UNL     1       5.317   0.086  23.211  0.00  0.00    +0.100 C 
ATOM     19  N   UNL     1       6.136   0.049  23.293  0.00  0.00    -0.191 NA
ENDBRANCH  15  18
ENDBRANCH  11  12
ENDBRANCH  10  11
ENDBRANCH   7   8
ENDBRANCH   6   7
BRANCH  23  24
ATOM     24  C   UNL     1      -2.709   0.212  24.737  0.00  0.00    +0.120 C 
BRANCH  24  25
ATOM     25  N   UNL     1      -3.298   0.776  24.867  0.00  0.00    -0.200 NA
ATOM     26  C   UNL     1      -4.093   0.557  24.830  0.00  0.00    +0.283 C 
ATOM     27  O   UNL     1      -4.300  -0.224  24.664  0.00  0.00    -0.267 OA
BRANCH  26  28
ATOM     28  C   UNL     1      -4.682   1.121  24.960  0.00  0.00    +0.136 A 
ATOM     29  N   UNL     1      -4.734   1.781  24.469  0.00  0.00    -0.239 NA
ATOM     30  C   UNL     1      -5.322   2.346  24.598  0.00  0.00    +0.099 A 
ATOM     31  C   UNL     1      -5.857   2.249  25.219  0.00  0.00    +0.021 A 
ATOM     32  C   UNL     1      -5.805   1.588  25.710  0.00  0.00    +0.003 A 
ATOM     33  C   UNL     1      -5.217   1.024  25.580  0.00  0.00    +0.024 A 
ENDBRANCH  26  28
ENDBRANCH  24  25
ENDBRANCH  23  24
TORSDOF 9
ENDMDL
MODEL 6
REMARK VINA RESULT:      -8.2      1.164      6.804
REMARK  Name = 
REMARK  9 active torsions:
REMARK  status: ('A' for Active; 'I' for Inactive)
REMARK    1  A    between atoms: C_2  and  C_4
REMARK    2  A    between atoms: C_6  and  C_7
REMARK    3  A    between atoms: C_7  and  C_8
REMARK    4  A    between atoms: N_10  and  C_11
REMARK    5  A    between atoms: C_11  and  C_12
REMARK    6  A    between atoms: C_15  and  C_18
REMARK    7  A    between atoms: C_23  and  C_24
REMARK    8  A    between atoms: C_24  and  N_25
REMARK    9  A    between atoms: C_26  and  C_28
REMARK                            x       y       z     vdW  Elec       q    Type
REMARK                         _______ _______ _______ _____ _____    ______ ____
ROOT
ATOM      4  C   UNL     1      -0.981   1.258  24.885  0.00  0.00    +0.006 C 
ATOM      5  C   UNL     1      -1.316   1.897  25.286  0.00  0.00    +0.005 C 
ATOM      6  C   UNL     1      -0.953   2.638  25.256  0.00  0.00    +0.027 C 
ATOM     20  C   UNL     1      -0.256   2.739  24.827  0.00  0.00    -0.048 C 
ATOM     21  C   UNL     1       0.107   3.479  24.797  0.00  0.00    +0.026 C 
ATOM     22  C   UNL     1       0.079   2.099  24.426  0.00  0.00    -0.033 C 
ATOM     23  C   UNL     1      -0.284   1.359  24.456  0.00  0.00    +0.043 C 
ENDROOT
BRANCH   4   2
ATOM      1  C   UNL     1      -1.185   0.006  25.543  0.00  0.00    +0.000 C 
ATOM      2  C   UNL     1      -1.344   0.518  24.915  0.00  0.00    +0.000 C 
ATOM      3  C   UNL     1      -1.866   0.289  24.318  0.00  0.00    +0.000 C 
ENDBRANCH   4   2
BRANCH   6   7
ATOM      7  C   UNL     1      -1.288   3.276  25.657  0.00  0.00    +0.091 C 
BRANCH   7   8
ATOM      8  C   UNL     1      -1.966   3.641  25.358  0.00  0.00    +0.242 C 
ATOM      9  O   UNL     1      -1.897   4.285  24.847  0.00  0.00    -0.273 OA
ATOM     10  N   UNL     1      -2.712   3.360  25.570  0.00  0.00    -0.201 NA
BRANCH  10  11
ATOM     11  C   UNL     1      -3.390   3.724  25.271  0.00  0.00    +0.141 C 
BRANCH  11  12
ATOM     12  C   UNL     1      -4.094   3.298  25.213  0.00  0.00    -0.001 A 
ATOM     13  C   UNL     1      -4.599   3.243  25.863  0.00  0.00    -0.002 A 
ATOM     14  C   UNL     1      -5.303   2.817  25.803  0.00  0.00    +0.010 A 
ATOM     15  C   UNL     1      -5.502   2.446  25.094  0.00  0.00    +0.068 A 
ATOM     16  C   UNL     1      -4.997   2.502  24.444  0.00  0.00    +0.010 A 
ATOM     17  C   UNL     1      -4.293   2.927  24.502  0.00  0.00    -0.002 A 
BRANCH  15  18
ATOM     18  C   UNL     1      -6.206   2.020  25.034  0.00  0.00    +0.100 C 
ATOM     19  N   UNL     1      -6.910   1.595  24.974  0.00  0.00    -0.191 NA
ENDBRANCH  15  18
ENDBRANCH  11  12
ENDBRANCH  10  11
ENDBRANCH   7   8
ENDBRANCH   6   7
BRANCH  23  24
ATOM     24  C   UNL     1       0.050   0.720  24.055  0.00  0.00    +0.120 C 
BRANCH  24  25
ATOM     25  N   UNL     1       0.781   0.806  23.680  0.00  0.00    -0.200 NA
ATOM     26  C   UNL     1       1.122   0.164  23.289  0.00  0.00    +0.283 C 
ATOM     27  O   UNL     1       0.733  -0.563  23.273  0.00  0.00    -0.267 OA
BRANCH  26  28
ATOM     28  C   UNL     1       1.852   0.250  22.914  0.00  0.00    +0.136 A 
ATOM     29  N   UNL     1       1.973  -0.082  22.169  0.00  0.00    -0.239 NA
ATOM     30  C   UNL     1       2.703   0.005  21.793  0.00  0.00    +0.099 A 
ATOM     31  C   UNL     1       3.311   0.423  22.163  0.00  0.00    +0.021 A 
ATOM     32  C   UNL     1       3.189   0.755  22.909  0.00  0.00    +0.003 A 
ATOM     33  C   UNL     1       2.459   0.668  23.284  0.00  0.00    +0.024 A 
ENDBRANCH  26  28
ENDBRANCH  24  25
ENDBRANCH  23  24
TORSDOF 9
ENDMDL
MODEL 7
REMARK VINA RESULT:      -8.2      2.344      3.769
REMARK  Name = 
REMARK  9 active torsions:
REMARK  status: ('A' for Active; 'I' for Inactive)
REMARK    1  A    between atoms: C_2  and  C_4
REMARK    2  A    between atoms: C_6  and  C_7
REMARK    3  A    between atoms: C_7  and  C_8
REMARK    4  A    between atoms: N_10  and  C_11
REMARK    5  A    between atoms: C_11  and  C_12
REMARK    6  A    between atoms: C_15  and  C_18
REMARK    7  A    between atoms: C_23  and  C_24
REMARK    8  A    between atoms: C_24  and  N_25
REMARK    9  A    between atoms: C_26  and  C_28
REMARK                            x       y       z     vdW  Elec       q    Type
REMARK                         _______ _______ _______ _____ _____    ______ ____
ROOT
ATOM      4  C   UNL     1      -2.021   1.979  23.459  0.00  0.00    +0.006 C 
ATOM      5  C   UNL     1      -1.289   1.610  23.552  0.00  0.00    +0.005 C 
ATOM      6  C   UNL     1      -0.863   1.709  24.252  0.00  0.00    +0.027 C 
ATOM     20  C   UNL     1      -1.170   2.176  24.859  0.00  0.00    -0.048 C 
ATOM     21  C   UNL     1      -0.745   2.276  25.559  0.00  0.00    +0.026 C 
ATOM     22  C   UNL     1      -1.903   2.545  24.766  0.00  0.00    -0.033 C 
ATOM     23  C   UNL     1      -2.328   2.446  24.066  0.00  0.00    +0.043 C 
ENDROOT
BRANCH   4   2
ATOM      1  C   UNL     1      -2.926   1.215  22.659  0.00  0.00    +0.000 C 
ATOM      2  C   UNL     1      -2.446   1.879  22.759  0.00  0.00    +0.000 C 
ATOM      3  C   UNL     1      -2.392   2.444  22.160  0.00  0.00    +0.000 C 
ENDBRANCH   4   2
BRANCH   6   7
ATOM      7  C   UNL     1      -0.131   1.340  24.345  0.00  0.00    +0.091 C 
BRANCH   7   8
ATOM      8  C   UNL     1      -0.054   0.533  24.189  0.00  0.00    +0.242 C 
ATOM      9  O   UNL     1       0.417   0.277  23.562  0.00  0.00    -0.273 OA
ATOM     10  N   UNL     1      -0.447  -0.017  24.661  0.00  0.00    -0.201 NA
BRANCH  10  11
ATOM     11  C   UNL     1      -0.370  -0.824  24.505  0.00  0.00    +0.141 C 
BRANCH  11  12
ATOM     12  C   UNL     1      -1.018  -1.326  24.598  0.00  0.00    -0.001 A 
ATOM     13  C   UNL     1      -1.480  -1.282  25.281  0.00  0.00    -0.002 A 
ATOM     14  C   UNL     1      -2.128  -1.784  25.373  0.00  0.00    +0.010 A 
ATOM     15  C   UNL     1      -2.315  -2.329  24.783  0.00  0.00    +0.068 A 
ATOM     16  C   UNL     1      -1.853  -2.373  24.101  0.00  0.00    +0.010 A 
ATOM     17  C   UNL     1      -1.205  -1.872  24.008  0.00  0.00    -0.002 A 
BRANCH  15  18
ATOM     18  C   UNL     1      -2.963  -2.832  24.875  0.00  0.00    +0.100 C 
ATOM     19  N   UNL     1      -3.611  -3.333  24.967  0.00  0.00    -0.191 NA
ENDBRANCH  15  18
ENDBRANCH  11  12
ENDBRANCH  10  11
ENDBRANCH   7   8
ENDBRANCH   6   7
BRANCH  23  24
ATOM     24  C   UNL     1      -3.060   2.815  23.974  0.00  0.00    +0.120 C 
BRANCH  24  25
ATOM     25  N   UNL     1      -3.697   2.590  24.448  0.00  0.00    -0.200 NA
ATOM     26  C   UNL     1      -4.319   3.117  24.581  0.00  0.00    +0.283 C 
ATOM     27  O   UNL     1      -4.303   3.868  24.239  0.00  0.00    -0.267 OA
BRANCH  26  28
ATOM     28  C   UNL     1      -4.955   2.893  25.055  0.00  0.00    +0.136 A 
ATOM     29  N   UNL     1      -5.109   3.298  25.757  0.00  0.00    -0.239 NA
ATOM     30  C   UNL     1      -5.746   3.073  26.232  0.00  0.00    +0.099 A 
ATOM     31  C   UNL     1      -6.228   2.444  26.004  0.00  0.00    +0.021 A 
ATOM     32  C   UNL     1      -6.074   2.039  25.301  0.00  0.00    +0.003 A 
ATOM     33  C   UNL     1      -5.438   2.263  24.827  0.00  0.00    +0.024 A 
ENDBRANCH  26  28
ENDBRANCH  24  25
ENDBRANCH  23  24
TORSDOF 9
ENDMDL
MODEL 8
REMARK VINA RESULT:      -7.9      1.514      6.634
REMARK  Name = 
REMARK  9 active torsions:
REMARK  status: ('A' for Active; 'I' for Inactive)
REMARK    1  A    between atoms: C_2  and  C_4
REMARK    2  A    between atoms: C_6  and  C_7
REMARK    3  A    between atoms: C_7  and  C_8
REMARK    4  A    between atoms: N_10  and  C_11
REMARK    5  A    between atoms: C_11  and  C_12
REMARK    6  A    between atoms: C_15  and  C_18
REMARK    7  A    between atoms: C_23  and  C_24
REMARK    8  A    between atoms: C_24  and  N_25
REMARK    9  A    between atoms: C_26  and  C_28
REMARK                            x       y       z     vdW  Elec       q    Type
REMARK                         _______ _______ _______ _____ _____    ______ ____
ROOT
ATOM      4  C   UNL     1      -1.224   1.051  24.786  0.00  0.00    +0.006 C 
ATOM      5  C   UNL     1      -1.938   0.686  24.979  0.00  0.00    +0.005 C 
ATOM      6  C   UNL     1      -2.022  -0.130  24.888  0.00  0.00    +0.027 C 
ATOM     20  C   UNL     1      -1.392  -0.581  24.605  0.00  0.00    -0.048 C 
ATOM     21  C   UNL     1      -1.475  -1.396  24.514  0.00  0.00    +0.026 C 
ATOM     22  C   UNL     1      -0.677  -0.215  24.412  0.00  0.00    -0.033 C 
ATOM     23  C   UNL     1      -0.594   0.600  24.503  0.00  0.00    +0.043 C 
ENDROOT
BRANCH   4   2
ATOM      1  C   UNL     1      -0.908   2.178  25.606  0.00  0.00    +0.000 C 
ATOM      2  C   UNL     1      -1.140   1.866  24.877  0.00  0.00    +0.000 C 
ATOM      3  C   UNL     1      -1.289   2.370  24.242  0.00  0.00    +0.000 C 
ENDBRANCH   4   2
BRANCH   6   7
ATOM      7  C   UNL     1      -2.737  -0.494  25.081  0.00  0.00    +0.091 C 
BRANCH   7   8
ATOM      8  C   UNL     1      -3.440  -0.230  24.739  0.00  0.00    +0.242 C 
ATOM      9  O   UNL     1      -3.669  -0.510  23.997  0.00  0.00    -0.273 OA
ATOM     10  N   UNL     1      -3.913   0.315  25.139  0.00  0.00    -0.201 NA
BRANCH  10  11
ATOM     11  C   UNL     1      -4.616   0.579  24.797  0.00  0.00    +0.141 C 
BRANCH  11  12
ATOM     12  C   UNL     1      -4.917   1.322  24.994  0.00  0.00    -0.001 A 
ATOM     13  C   UNL     1      -5.362   1.417  25.682  0.00  0.00    -0.002 A 
ATOM     14  C   UNL     1      -5.662   2.161  25.879  0.00  0.00    +0.010 A 
ATOM     15  C   UNL     1      -5.517   2.807  25.388  0.00  0.00    +0.068 A 
ATOM     16  C   UNL     1      -5.071   2.712  24.700  0.00  0.00    +0.010 A 
ATOM     17  C   UNL     1      -4.771   1.969  24.503  0.00  0.00    -0.002 A 
BRANCH  15  18
ATOM     18  C   UNL     1      -5.816   3.551  25.585  0.00  0.00    +0.100 C 
ATOM     19  N   UNL     1      -6.116   4.293  25.781  0.00  0.00    -0.191 NA
ENDBRANCH  15  18
ENDBRANCH  11  12
ENDBRANCH  10  11
ENDBRANCH   7   8
ENDBRANCH   6   7
BRANCH  23  24
ATOM     24  C   UNL     1       0.121   0.965  24.310  0.00  0.00    +0.120 C 
BRANCH  24  25
ATOM     25  N   UNL     1       0.643   0.597  23.787  0.00  0.00    -0.200 NA
ATOM     26  C   UNL     1       1.348   0.971  23.577  0.00  0.00    +0.283 C 
ATOM     27  O   UNL     1       1.531   1.712  23.890  0.00  0.00    -0.267 OA
BRANCH  26  28
ATOM     28  C   UNL     1       1.870   0.603  23.054  0.00  0.00    +0.136 A 
ATOM     29  N   UNL     1       1.577   0.122  22.451  0.00  0.00    -0.239 NA
ATOM     30  C   UNL     1       2.098  -0.247  21.928  0.00  0.00    +0.099 A 
ATOM     31  C   UNL     1       2.911  -0.133  22.007  0.00  0.00    +0.021 A 
ATOM     32  C   UNL     1       3.204   0.349  22.610  0.00  0.00    +0.003 A 
ATOM     33  C   UNL     1       2.683   0.716  23.133  0.00  0.00    +0.024 A 
ENDBRANCH  26  28
ENDBRANCH  24  25
ENDBRANCH  23  24
TORSDOF 9
ENDMDL
MODEL 9
REMARK VINA RESULT:      -6.1     14.967     17.217
REMARK  Name = 
REMARK  9 active torsions:
REMARK  status: ('A' for Active; 'I' for Inactive)
REMARK    1  A    between atoms: C_2  and  C_4
REMARK    2  A    between atoms: C_6  and  C_7
REMARK    3  A    between atoms: C_7  and  C_8
REMARK    4  A    between atoms: N_10  and  C_11
REMARK    5  A    between atoms: C_11  and  C_12
REMARK    6  A    between atoms: C_15  and  C_18
REMARK    7  A    between atoms: C_23  and  C_24
REMARK    8  A    between atoms: C_24  and  N_25
REMARK    9  A    between atoms: C_26  and  C_28
REMARK                            x       y       z     vdW  Elec       q    Type
REMARK                         _______ _______ _______ _____ _____    ______ ____
ROOT
ATOM      4  C   UNL     1      -6.135 -10.304  13.757  0.00  0.00    +0.006 C 
ATOM      5  C   UNL     1      -6.166 -10.372  14.578  0.00  0.00    +0.005 C 
ATOM      6  C   UNL     1      -5.477 -10.531  15.005  0.00  0.00    +0.027 C 
ATOM     20  C   UNL     1      -4.759 -10.621  14.610  0.00  0.00    -0.048 C 
ATOM     21  C   UNL     1      -4.070 -10.780  15.036  0.00  0.00    +0.026 C 
ATOM     22  C   UNL     1      -4.728 -10.552  13.788  0.00  0.00    -0.033 C 
ATOM     23  C   UNL     1      -5.416 -10.394  13.362  0.00  0.00    +0.043 C 
ENDROOT
BRANCH   4   2
ATOM      1  C   UNL     1      -7.042  -9.364  13.176  0.00  0.00    +0.000 C 
ATOM      2  C   UNL     1      -6.823 -10.145  13.331  0.00  0.00    +0.000 C 
ATOM      3  C   UNL     1      -7.293 -10.766  13.059  0.00  0.00    +0.000 C 
ENDBRANCH   4   2
BRANCH   6   7
ATOM      7  C   UNL     1      -5.509 -10.600  15.826  0.00  0.00    +0.091 C 
BRANCH   7   8
ATOM      8  C   UNL     1      -5.886 -10.018  16.274  0.00  0.00    +0.242 C 
ATOM      9  O   UNL     1      -5.580  -9.253  16.299  0.00  0.00    -0.273 OA
ATOM     10  N   UNL     1      -6.570 -10.203  16.697  0.00  0.00    -0.201 NA
BRANCH  10  11
ATOM     11  C   UNL     1      -6.948  -9.622  17.145  0.00  0.00    +0.141 C 
BRANCH  11  12
ATOM     12  C   UNL     1      -7.696  -9.767  17.461  0.00  0.00    -0.001 A 
ATOM     13  C   UNL     1      -7.790 -10.328  18.058  0.00  0.00    -0.002 A 
ATOM     14  C   UNL     1      -8.539 -10.472  18.374  0.00  0.00    +0.010 A 
ATOM     15  C   UNL     1      -9.193 -10.055  18.093  0.00  0.00    +0.068 A 
ATOM     16  C   UNL     1      -9.098  -9.494  17.496  0.00  0.00    +0.010 A 
ATOM     17  C   UNL     1      -8.350  -9.349  17.179  0.00  0.00    -0.002 A 
BRANCH  15  18
ATOM     18  C   UNL     1      -9.941 -10.199  18.408  0.00  0.00    +0.100 C 
ATOM     19  N   UNL     1     -10.690 -10.343  18.723  0.00  0.00    -0.191 NA
ENDBRANCH  15  18
ENDBRANCH  11  12
ENDBRANCH  10  11
ENDBRANCH   7   8
ENDBRANCH   6   7
BRANCH  23  24
ATOM     24  C   UNL     1      -5.385 -10.325  12.540  0.00  0.00    +0.120 C 
BRANCH  24  25
ATOM     25  N   UNL     1      -4.711 -10.014  12.178  0.00  0.00    -0.200 NA
ATOM     26  C   UNL     1      -4.576 -10.147  11.374  0.00  0.00    +0.283 C 
ATOM     27  O   UNL     1      -5.114 -10.590  10.933  0.00  0.00    -0.267 OA
BRANCH  26  28
ATOM     28  C   UNL     1      -3.903  -9.836  11.013  0.00  0.00    +0.136 A 
ATOM     29  N   UNL     1      -3.154 -10.057  11.279  0.00  0.00    -0.239 NA
ATOM     30  C   UNL     1      -2.480  -9.746  10.918  0.00  0.00    +0.099 A 
ATOM     31  C   UNL     1      -2.556  -9.215  10.291  0.00  0.00    +0.021 A 
ATOM     32  C   UNL     1      -3.305  -8.994  10.025  0.00  0.00    +0.003 A 
ATOM     33  C   UNL     1      -3.979  -9.305  10.386  0.00  0.00    +0.024 A 
ENDBRANCH  26  28
ENDBRANCH  24  25
ENDBRANCH  23  24
TORSDOF 9
ENDMDL
