MODEL 1
REMARK VINA RESULT:     -11.7      0.000      0.000
REMARK  Name = 
REMARK  7 active torsions:
REMARK  status: ('A' for Active; 'I' for Inactive)
REMARK    1  A    between atoms: O_2  and  C_3
REMARK    2  A    between atoms: C_3  and  C_4
REMARK    3  A    between atoms: N_6  and  C_7
REMARK    4  A    between atoms: C_14  and  C_15
REMARK    5  A    between atoms: C_15  and  C_17
REMARK    6  A    between atoms: N_19  and  C_20
REMARK    7  A    between atoms: C_20  and  C_21
REMARK                            x       y       z     vdW  Elec       q    Type
REMARK                         _______ _______ _______ _____ _____    ______ ____
ROOT
ATOM      7  C   UNL     1      -4.013  -0.401  24.403  0.00  0.00    +0.095 C 
ATOM      8  C   UNL     1      -4.616  -0.498  24.957  0.00  0.00    +0.022 C 
ATOM      9  C   UNL     1      -5.019   0.162  25.246  0.00  0.00    +0.002 C 
ATOM     10  C   UNL     1      -4.819   0.917  24.983  0.00  0.00    +0.002 C 
ATOM     11  C   UNL     1      -5.423   0.820  25.537  0.00  0.00    +0.000 C 
ATOM     12  C   UNL     1      -5.222   1.576  25.273  0.00  0.00    +0.000 C 
ATOM     13  C   UNL     1      -5.021   2.331  25.009  0.00  0.00    +0.003 C 
ATOM     14  C   UNL     1      -4.417   2.428  24.456  0.00  0.00    +0.039 C 
ATOM     29  C   UNL     1      -4.014   1.770  24.165  0.00  0.00    +0.152 C 
ATOM     30  O   UNL     1      -3.410   1.866  23.612  0.00  0.00    -0.223 OA
ATOM     31  C   UNL     1      -4.215   1.014  24.429  0.00  0.00    +0.032 C 
ATOM     32  C   UNL     1      -3.811   0.355  24.139  0.00  0.00    +0.022 C 
ATOM     33  C   UNL     1      -3.208   0.452  23.586  0.00  0.00    +0.002 C 
ENDROOT
BRANCH   7   6
ATOM      4  C   UNL     1      -3.360  -1.651  24.631  0.00  0.00    +0.272 C 
ATOM      5  O   UNL     1      -3.514  -1.584  25.439  0.00  0.00    -0.271 OA
ATOM      6  N   UNL     1      -3.609  -1.059  24.113  0.00  0.00    -0.205 NA
BRANCH   4   3
ATOM      3  C   UNL     1      -2.956  -2.310  24.341  0.00  0.00    +0.229 C 
BRANCH   3   2
ATOM      1  C   UNL     1      -1.653  -2.893  24.297  0.00  0.00    +0.175 C 
ATOM      2  O   UNL     1      -2.283  -2.586  24.731  0.00  0.00    -0.342 OA
ENDBRANCH   3   2
ENDBRANCH   4   3
ENDBRANCH   7   6
BRANCH  14  15
ATOM     15  C   UNL     1      -4.216   3.183  24.192  0.00  0.00    +0.081 C 
ATOM     16  C   UNL     1      -4.393   3.411  23.420  0.00  0.00    +0.010 C 
BRANCH  15  17
ATOM     17  C   UNL     1      -3.836   3.710  24.701  0.00  0.00    +0.241 C 
ATOM     18  O   UNL     1      -4.280   4.180  25.214  0.00  0.00    -0.273 OA
ATOM     19  N   UNL     1      -3.013   3.767  24.698  0.00  0.00    -0.201 NA
BRANCH  19  20
ATOM     20  C   UNL     1      -2.634   4.294  25.207  0.00  0.00    +0.142 C 
BRANCH  20  21
ATOM     21  C   UNL     1      -1.811   4.351  25.202  0.00  0.00    +0.004 A 
ATOM     22  C   UNL     1      -1.446   5.025  24.895  0.00  0.00    +0.027 A 
ATOM     23  C   UNL     1      -0.623   5.082  24.890  0.00  0.00    +0.142 A 
ATOM     24  F   UNL     1      -0.259   5.756  24.583  0.00  0.00    -0.204 F 
ATOM     25  C   UNL     1      -0.166   4.467  25.192  0.00  0.00    +0.059 A 
ATOM     26  C   UNL     1      -0.529   3.793  25.499  0.00  0.00    +0.142 A 
ATOM     27  F   UNL     1      -0.071   3.177  25.801  0.00  0.00    -0.204 F 
ATOM     28  C   UNL     1      -1.353   3.736  25.504  0.00  0.00    +0.027 A 
ENDBRANCH  20  21
ENDBRANCH  19  20
ENDBRANCH  15  17
ENDBRANCH  14  15
TORSDOF 7
ENDMDL
MODEL 2
REMARK VINA RESULT:     -11.4      2.611      5.593
REMARK  Name = 
REMARK  7 active torsions:
REMARK  status: ('A' for Active; 'I' for Inactive)
REMARK    1  A    between atoms: O_2  and  C_3
REMARK    2  A    between atoms: C_3  and  C_4
REMARK    3  A    between atoms: N_6  and  C_7
REMARK    4  A    between atoms: C_14  and  C_15
REMARK    5  A    between atoms: C_15  and  C_17
REMARK    6  A    between atoms: N_19  and  C_20
REMARK    7  A    between atoms: C_20  and  C_21
REMARK                            x       y       z     vdW  Elec       q    Type
REMARK                         _______ _______ _______ _____ _____    ______ ____
ROOT
ATOM      7  C   UNL     1      -2.509   3.264  25.035  0.00  0.00    +0.095 C 
ATOM      8  C   UNL     1      -2.020   3.523  25.647  0.00  0.00    +0.022 C 
ATOM      9  C   UNL     1      -1.322   3.117  25.817  0.00  0.00    +0.002 C 
ATOM     10  C   UNL     1      -1.113   2.452  25.377  0.00  0.00    +0.002 C 
ATOM     11  C   UNL     1      -0.625   2.712  25.989  0.00  0.00    +0.000 C 
ATOM     12  C   UNL     1      -0.416   2.046  25.548  0.00  0.00    +0.000 C 
ATOM     13  C   UNL     1      -0.207   1.381  25.108  0.00  0.00    +0.003 C 
ATOM     14  C   UNL     1      -0.696   1.121  24.496  0.00  0.00    +0.039 C 
ATOM     29  C   UNL     1      -1.393   1.526  24.324  0.00  0.00    +0.152 C 
ATOM     30  O   UNL     1      -1.881   1.267  23.713  0.00  0.00    -0.223 OA
ATOM     31  C   UNL     1      -1.602   2.192  24.765  0.00  0.00    +0.032 C 
ATOM     32  C   UNL     1      -2.300   2.598  24.594  0.00  0.00    +0.022 C 
ATOM     33  C   UNL     1      -2.788   2.338  23.983  0.00  0.00    +0.002 C 
ENDROOT
BRANCH   7   6
ATOM      4  C   UNL     1      -3.777   3.774  25.451  0.00  0.00    +0.272 C 
ATOM      5  O   UNL     1      -3.649   3.474  26.209  0.00  0.00    -0.271 OA
ATOM      6  N   UNL     1      -3.206   3.669  24.863  0.00  0.00    -0.205 NA
BRANCH   4   3
ATOM      3  C   UNL     1      -4.475   4.179  25.279  0.00  0.00    +0.229 C 
BRANCH   3   2
ATOM      1  C   UNL     1      -5.888   4.321  25.438  0.00  0.00    +0.175 C 
ATOM      2  O   UNL     1      -5.173   3.983  25.674  0.00  0.00    -0.342 OA
ENDBRANCH   3   2
ENDBRANCH   4   3
ENDBRANCH   7   6
BRANCH  14  15
ATOM     15  C   UNL     1      -0.487   0.456  24.055  0.00  0.00    +0.081 C 
ATOM     16  C   UNL     1      -0.216   0.542  23.282  0.00  0.00    +0.010 C 
BRANCH  15  17
ATOM     17  C   UNL     1      -0.551  -0.297  24.389  0.00  0.00    +0.241 C 
ATOM     18  O   UNL     1       0.111  -0.657  24.723  0.00  0.00    -0.273 OA
ATOM     19  N   UNL     1      -1.278  -0.688  24.388  0.00  0.00    -0.201 NA
BRANCH  19  20
ATOM     20  C   UNL     1      -1.342  -1.439  24.722  0.00  0.00    +0.142 C 
BRANCH  20  21
ATOM     21  C   UNL     1      -2.086  -1.772  24.848  0.00  0.00    +0.004 A 
ATOM     22  C   UNL     1      -2.544  -1.526  25.490  0.00  0.00    +0.027 A 
ATOM     23  C   UNL     1      -3.288  -1.859  25.616  0.00  0.00    +0.142 A 
ATOM     24  F   UNL     1      -3.746  -1.613  26.258  0.00  0.00    -0.204 F 
ATOM     25  C   UNL     1      -3.575  -2.436  25.102  0.00  0.00    +0.059 A 
ATOM     26  C   UNL     1      -3.118  -2.681  24.461  0.00  0.00    +0.142 A 
ATOM     27  F   UNL     1      -3.404  -3.259  23.947  0.00  0.00    -0.204 F 
ATOM     28  C   UNL     1      -2.373  -2.349  24.335  0.00  0.00    +0.027 A 
ENDBRANCH  20  21
ENDBRANCH  19  20
ENDBRANCH  15  17
ENDBRANCH  14  15
TORSDOF 7
ENDMDL
MODEL 3
REMARK VINA RESULT:     -11.1      1.809      5.008
REMARK  Name = 
REMARK  7 active torsions:
REMARK  status: ('A' for Active; 'I' for Inactive)
REMARK    1  A    between atoms: O_2  and  C_3
REMARK    2  A    between atoms: C_3  and  C_4
REMARK    3  A    between atoms: N_6  and  C_7
REMARK    4  A    between atoms: C_14  and  C_15
REMARK    5  A    between atoms: C_15  and  C_17
REMARK    6  A    between atoms: N_19  and  C_20
REMARK    7  A    between atoms: C_20  and  C_21
REMARK                            x       y       z     vdW  Elec       q    Type
REMARK                         _______ _______ _______ _____ _____    ______ ____
ROOT
ATOM      7  C   UNL     1      -3.583   3.609  24.856  0.00  0.00    +0.095 C 
ATOM      8  C   UNL     1      -4.221   3.836  25.328  0.00  0.00    +0.022 C 
ATOM      9  C   UNL     1      -4.782   3.277  25.558  0.00  0.00    +0.002 C 
ATOM     10  C   UNL     1      -4.706   2.492  25.319  0.00  0.00    +0.002 C 
ATOM     11  C   UNL     1      -5.344   2.720  25.790  0.00  0.00    +0.000 C 
ATOM     12  C   UNL     1      -5.268   1.933  25.549  0.00  0.00    +0.000 C 
ATOM     13  C   UNL     1      -5.192   1.148  25.310  0.00  0.00    +0.003 C 
ATOM     14  C   UNL     1      -4.554   0.921  24.838  0.00  0.00    +0.039 C 
ATOM     29  C   UNL     1      -3.992   1.479  24.607  0.00  0.00    +0.152 C 
ATOM     30  O   UNL     1      -3.355   1.252  24.137  0.00  0.00    -0.223 OA
ATOM     31  C   UNL     1      -4.068   2.265  24.847  0.00  0.00    +0.032 C 
ATOM     32  C   UNL     1      -3.506   2.823  24.616  0.00  0.00    +0.022 C 
ATOM     33  C   UNL     1      -2.869   2.596  24.146  0.00  0.00    +0.002 C 
ENDROOT
BRANCH   7   6
ATOM      4  C   UNL     1      -2.563   4.551  25.195  0.00  0.00    +0.272 C 
ATOM      5  O   UNL     1      -2.668   4.377  25.994  0.00  0.00    -0.271 OA
ATOM      6  N   UNL     1      -3.021   4.167  24.625  0.00  0.00    -0.205 NA
BRANCH   4   3
ATOM      3  C   UNL     1      -2.001   5.109  24.963  0.00  0.00    +0.229 C 
BRANCH   3   2
ATOM      1  C   UNL     1      -0.597   5.335  24.825  0.00  0.00    +0.175 C 
ATOM      2  O   UNL     1      -1.238   5.079  25.277  0.00  0.00    -0.342 OA
ENDBRANCH   3   2
ENDBRANCH   4   3
ENDBRANCH   7   6
BRANCH  14  15
ATOM     15  C   UNL     1      -4.477   0.136  24.598  0.00  0.00    +0.081 C 
ATOM     16  C   UNL     1      -4.773  -0.103  23.867  0.00  0.00    +0.010 C 
BRANCH  15  17
ATOM     17  C   UNL     1      -4.102  -0.411  25.091  0.00  0.00    +0.241 C 
ATOM     18  O   UNL     1      -4.385  -0.540  25.855  0.00  0.00    -0.273 OA
ATOM     19  N   UNL     1      -3.445  -0.829  24.818  0.00  0.00    -0.201 NA
BRANCH  19  20
ATOM     20  C   UNL     1      -3.071  -1.376  25.310  0.00  0.00    +0.142 C 
BRANCH  20  21
ATOM     21  C   UNL     1      -2.339  -1.689  25.096  0.00  0.00    +0.004 A 
ATOM     22  C   UNL     1      -1.647  -1.386  25.429  0.00  0.00    +0.027 A 
ATOM     23  C   UNL     1      -0.915  -1.700  25.215  0.00  0.00    +0.142 A 
ATOM     24  F   UNL     1      -0.223  -1.397  25.549  0.00  0.00    -0.204 F 
ATOM     25  C   UNL     1      -0.874  -2.315  24.668  0.00  0.00    +0.059 A 
ATOM     26  C   UNL     1      -1.565  -2.618  24.334  0.00  0.00    +0.142 A 
ATOM     27  F   UNL     1      -1.523  -3.233  23.786  0.00  0.00    -0.204 F 
ATOM     28  C   UNL     1      -2.298  -2.304  24.549  0.00  0.00    +0.027 A 
ENDBRANCH  20  21
ENDBRANCH  19  20
ENDBRANCH  15  17
ENDBRANCH  14  15
TORSDOF 7
ENDMDL
MODEL 4
REMARK VINA RESULT:     -11.0      2.386      3.679
REMARK  Name = 
REMARK  7 active torsions:
REMARK  status: ('A' for Active; 'I' for Inactive)
REMARK    1  A    between atoms: O_2  and  C_3
REMARK    2  A    between atoms: C_3  and  C_4
REMARK    3  A    between atoms: N_6  and  C_7
REMARK    4  A    between atoms: C_14  and  C_15
REMARK    5  A    between atoms: C_15  and  C_17
REMARK    6  A    between atoms: N_19  and  C_20
REMARK    7  A    between atoms: C_20  and  C_21
REMARK                            x       y       z     vdW  Elec       q    Type
REMARK                         _______ _______ _______ _____ _____    ______ ____
ROOT
ATOM      7  C   UNL     1      -0.839  -0.805  24.692  0.00  0.00    +0.095 C 
ATOM      8  C   UNL     1      -0.418  -0.756  23.985  0.00  0.00    +0.022 C 
ATOM      9  C   UNL     1      -0.062  -0.044  23.766  0.00  0.00    +0.002 C 
ATOM     10  C   UNL     1      -0.127   0.618  24.253  0.00  0.00    +0.002 C 
ATOM     11  C   UNL     1       0.294   0.667  23.546  0.00  0.00    +0.000 C 
ATOM     12  C   UNL     1       0.228   1.329  24.034  0.00  0.00    +0.000 C 
ATOM     13  C   UNL     1       0.163   1.991  24.522  0.00  0.00    +0.003 C 
ATOM     14  C   UNL     1      -0.258   1.941  25.229  0.00  0.00    +0.039 C 
ATOM     29  C   UNL     1      -0.614   1.231  25.449  0.00  0.00    +0.152 C 
ATOM     30  O   UNL     1      -1.035   1.181  26.156  0.00  0.00    -0.223 OA
ATOM     31  C   UNL     1      -0.549   0.568  24.961  0.00  0.00    +0.032 C 
ATOM     32  C   UNL     1      -0.905  -0.143  25.181  0.00  0.00    +0.022 C 
ATOM     33  C   UNL     1      -1.326  -0.192  25.887  0.00  0.00    +0.002 C 
ENDROOT
BRANCH   7   6
ATOM      4  C   UNL     1      -1.784  -1.846  24.437  0.00  0.00    +0.272 C 
ATOM      5  O   UNL     1      -2.015  -1.466  23.742  0.00  0.00    -0.271 OA
ATOM      6  N   UNL     1      -1.195  -1.516  24.912  0.00  0.00    -0.205 NA
BRANCH   4   3
ATOM      3  C   UNL     1      -2.140  -2.557  24.657  0.00  0.00    +0.229 C 
BRANCH   3   2
ATOM      1  C   UNL     1      -3.412  -3.197  24.774  0.00  0.00    +0.175 C 
ATOM      2  O   UNL     1      -2.863  -2.776  24.324  0.00  0.00    -0.342 OA
ENDBRANCH   3   2
ENDBRANCH   4   3
ENDBRANCH   7   6
BRANCH  14  15
ATOM     15  C   UNL     1      -0.324   2.603  25.718  0.00  0.00    +0.081 C 
ATOM     16  C   UNL     1       0.060   2.617  26.447  0.00  0.00    +0.010 C 
BRANCH  15  17
ATOM     17  C   UNL     1      -0.776   3.250  25.476  0.00  0.00    +0.241 C 
ATOM     18  O   UNL     1      -0.409   3.904  25.132  0.00  0.00    -0.273 OA
ATOM     19  N   UNL     1      -1.595   3.244  25.579  0.00  0.00    -0.201 NA
BRANCH  19  20
ATOM     20  C   UNL     1      -2.046   3.891  25.337  0.00  0.00    +0.142 C 
BRANCH  20  21
ATOM     21  C   UNL     1      -2.855   3.802  25.206  0.00  0.00    +0.004 A 
ATOM     22  C   UNL     1      -3.143   3.733  24.435  0.00  0.00    +0.027 A 
ATOM     23  C   UNL     1      -3.952   3.644  24.304  0.00  0.00    +0.142 A 
ATOM     24  F   UNL     1      -4.240   3.575  23.533  0.00  0.00    -0.204 F 
ATOM     25  C   UNL     1      -4.474   3.625  24.942  0.00  0.00    +0.059 A 
ATOM     26  C   UNL     1      -4.187   3.695  25.712  0.00  0.00    +0.142 A 
ATOM     27  F   UNL     1      -4.709   3.676  26.350  0.00  0.00    -0.204 F 
ATOM     28  C   UNL     1      -3.377   3.783  25.843  0.00  0.00    +0.027 A 
ENDBRANCH  20  21
ENDBRANCH  19  20
ENDBRANCH  15  17
ENDBRANCH  14  15
TORSDOF 7
ENDMDL
MODEL 5
REMARK VINA RESULT:     -10.8      2.502      4.705
REMARK  Name = 
REMARK  7 active torsions:
REMARK  status: ('A' for Active; 'I' for Inactive)
REMARK    1  A    between atoms: O_2  and  C_3
REMARK    2  A    between atoms: C_3  and  C_4
REMARK    3  A    between atoms: N_6  and  C_7
REMARK    4  A    between atoms: C_14  and  C_15
REMARK    5  A    between atoms: C_15  and  C_17
REMARK    6  A    between atoms: N_19  and  C_20
REMARK    7  A    between atoms: C_20  and  C_21
REMARK                            x       y       z     vdW  Elec       q    Type
REMARK                         _______ _______ _______ _____ _____    ______ ____
ROOT
ATOM      7  C   UNL     1      -0.677   2.888  24.383  0.00  0.00    +0.095 C 
ATOM      8  C   UNL     1      -0.598   3.327  25.077  0.00  0.00    +0.022 C 
ATOM      9  C   UNL     1      -1.266   3.516  25.523  0.00  0.00    +0.002 C 
ATOM     10  C   UNL     1      -2.012   3.267  25.277  0.00  0.00    +0.002 C 
ATOM     11  C   UNL     1      -1.933   3.706  25.971  0.00  0.00    +0.000 C 
ATOM     12  C   UNL     1      -2.680   3.455  25.723  0.00  0.00    +0.000 C 
ATOM     13  C   UNL     1      -3.426   3.206  25.476  0.00  0.00    +0.003 C 
ATOM     14  C   UNL     1      -3.505   2.767  24.782  0.00  0.00    +0.039 C 
ATOM     29  C   UNL     1      -2.838   2.577  24.335  0.00  0.00    +0.152 C 
ATOM     30  O   UNL     1      -2.917   2.139  23.642  0.00  0.00    -0.223 OA
ATOM     31  C   UNL     1      -2.091   2.827  24.583  0.00  0.00    +0.032 C 
ATOM     32  C   UNL     1      -1.424   2.638  24.136  0.00  0.00    +0.022 C 
ATOM     33  C   UNL     1      -1.503   2.199  23.442  0.00  0.00    +0.002 C 
ENDROOT
BRANCH   7   6
ATOM      4  C   UNL     1       0.584   2.228  24.262  0.00  0.00    +0.272 C 
ATOM      5  O   UNL     1       0.511   1.947  25.034  0.00  0.00    -0.271 OA
ATOM      6  N   UNL     1      -0.011   2.699  23.936  0.00  0.00    -0.205 NA
BRANCH   4   3
ATOM      3  C   UNL     1       1.251   2.038  23.815  0.00  0.00    +0.229 C 
BRANCH   3   2
ATOM      1  C   UNL     1       2.089   1.013  23.278  0.00  0.00    +0.175 C 
ATOM      2  O   UNL     1       1.584   1.285  23.870  0.00  0.00    -0.342 OA
ENDBRANCH   3   2
ENDBRANCH   4   3
ENDBRANCH   7   6
BRANCH  14  15
ATOM     15  C   UNL     1      -4.251   2.517  24.535  0.00  0.00    +0.081 C 
ATOM     16  C   UNL     1      -4.643   2.921  23.933  0.00  0.00    +0.010 C 
BRANCH  15  17
ATOM     17  C   UNL     1      -4.604   1.860  24.890  0.00  0.00    +0.241 C 
ATOM     18  O   UNL     1      -5.180   1.966  25.471  0.00  0.00    -0.273 OA
ATOM     19  N   UNL     1      -4.381   1.098  24.663  0.00  0.00    -0.201 NA
BRANCH  19  20
ATOM     20  C   UNL     1      -4.735   0.443  25.018  0.00  0.00    +0.142 C 
BRANCH  20  21
ATOM     21  C   UNL     1      -4.406  -0.307  24.917  0.00  0.00    +0.004 A 
ATOM     22  C   UNL     1      -4.532  -0.720  24.214  0.00  0.00    +0.027 A 
ATOM     23  C   UNL     1      -4.203  -1.470  24.113  0.00  0.00    +0.142 A 
ATOM     24  F   UNL     1      -4.328  -1.884  23.409  0.00  0.00    -0.204 F 
ATOM     25  C   UNL     1      -3.749  -1.806  24.713  0.00  0.00    +0.059 A 
ATOM     26  C   UNL     1      -3.624  -1.393  25.416  0.00  0.00    +0.142 A 
ATOM     27  F   UNL     1      -3.170  -1.729  26.017  0.00  0.00    -0.204 F 
ATOM     28  C   UNL     1      -3.953  -0.643  25.517  0.00  0.00    +0.027 A 
ENDBRANCH  20  21
ENDBRANCH  19  20
ENDBRANCH  15  17
ENDBRANCH  14  15
TORSDOF 7
ENDMDL
MODEL 6
REMARK VINA RESULT:     -10.7      2.713      3.919
REMARK  Name = 
REMARK  7 active torsions:
REMARK  status: ('A' for Active; 'I' for Inactive)
REMARK    1  A    between atoms: O_2  and  C_3
REMARK    2  A    between atoms: C_3  and  C_4
REMARK    3  A    between atoms: N_6  and  C_7
REMARK    4  A    between atoms: C_14  and  C_15
REMARK    5  A    between atoms: C_15  and  C_17
REMARK    6  A    between atoms: N_19  and  C_20
REMARK    7  A    between atoms: C_20  and  C_21
REMARK                            x       y       z     vdW  Elec       q    Type
REMARK                         _______ _______ _______ _____ _____    ______ ____
ROOT
ATOM      7  C   UNL     1      -0.503   0.119  24.236  0.00  0.00    +0.095 C 
ATOM      8  C   UNL     1      -0.343  -0.425  24.835  0.00  0.00    +0.022 C 
ATOM      9  C   UNL     1      -0.963  -0.764  25.260  0.00  0.00    +0.002 C 
ATOM     10  C   UNL     1      -1.743  -0.560  25.086  0.00  0.00    +0.002 C 
ATOM     11  C   UNL     1      -1.582  -1.104  25.686  0.00  0.00    +0.000 C 
ATOM     12  C   UNL     1      -2.363  -0.900  25.512  0.00  0.00    +0.000 C 
ATOM     13  C   UNL     1      -3.143  -0.696  25.338  0.00  0.00    +0.003 C 
ATOM     14  C   UNL     1      -3.303  -0.152  24.739  0.00  0.00    +0.039 C 
ATOM     29  C   UNL     1      -2.684   0.188  24.313  0.00  0.00    +0.152 C 
ATOM     30  O   UNL     1      -2.844   0.732  23.715  0.00  0.00    -0.223 OA
ATOM     31  C   UNL     1      -1.903  -0.016  24.487  0.00  0.00    +0.032 C 
ATOM     32  C   UNL     1      -1.284   0.324  24.062  0.00  0.00    +0.022 C 
ATOM     33  C   UNL     1      -1.444   0.867  23.463  0.00  0.00    +0.002 C 
ENDROOT
BRANCH   7   6
ATOM      4  C   UNL     1       0.673  -0.023  23.436  0.00  0.00    +0.272 C 
ATOM      5  O   UNL     1       0.610  -0.844  23.489  0.00  0.00    -0.271 OA
ATOM      6  N   UNL     1       0.117   0.459  23.810  0.00  0.00    -0.205 NA
BRANCH   4   3
ATOM      3  C   UNL     1       1.292   0.317  23.011  0.00  0.00    +0.229 C 
BRANCH   3   2
ATOM      1  C   UNL     1       2.526   0.171  22.303  0.00  0.00    +0.175 C 
ATOM      2  O   UNL     1       1.852  -0.165  22.641  0.00  0.00    -0.342 OA
ENDBRANCH   3   2
ENDBRANCH   4   3
ENDBRANCH   7   6
BRANCH  14  15
ATOM     15  C   UNL     1      -4.083   0.053  24.565  0.00  0.00    +0.081 C 
ATOM     16  C   UNL     1      -4.425  -0.191  23.856  0.00  0.00    +0.010 C 
BRANCH  15  17
ATOM     17  C   UNL     1      -4.521   0.503  25.101  0.00  0.00    +0.241 C 
ATOM     18  O   UNL     1      -4.885   0.138  25.745  0.00  0.00    -0.273 OA
ATOM     19  N   UNL     1      -4.594   1.318  24.992  0.00  0.00    -0.201 NA
BRANCH  19  20
ATOM     20  C   UNL     1      -5.031   1.768  25.528  0.00  0.00    +0.142 C 
BRANCH  20  21
ATOM     21  C   UNL     1      -4.966   2.590  25.525  0.00  0.00    +0.004 A 
ATOM     22  C   UNL     1      -5.647   3.057  25.528  0.00  0.00    +0.027 A 
ATOM     23  C   UNL     1      -5.582   3.879  25.525  0.00  0.00    +0.142 A 
ATOM     24  F   UNL     1      -6.263   4.346  25.528  0.00  0.00    -0.204 F 
ATOM     25  C   UNL     1      -4.839   4.234  25.519  0.00  0.00    +0.059 A 
ATOM     26  C   UNL     1      -4.158   3.768  25.515  0.00  0.00    +0.142 A 
ATOM     27  F   UNL     1      -3.414   4.124  25.509  0.00  0.00    -0.204 F 
ATOM     28  C   UNL     1      -4.223   2.945  25.519  0.00  0.00    +0.027 A 
ENDBRANCH  20  21
ENDBRANCH  19  20
ENDBRANCH  15  17
ENDBRANCH  14  15
TORSDOF 7
ENDMDL
MODEL 7
REMARK VINA RESULT:     -10.5      2.911      4.382
REMARK  Name = 
REMARK  7 active torsions:
REMARK  status: ('A' for Active; 'I' for Inactive)
REMARK    1  A    between atoms: O_2  and  C_3
REMARK    2  A    between atoms: C_3  and  C_4
REMARK    3  A    between atoms: N_6  and  C_7
REMARK    4  A    between atoms: C_14  and  C_15
REMARK    5  A    between atoms: C_15  and  C_17
REMARK    6  A    between atoms: N_19  and  C_20
REMARK    7  A    between atoms: C_20  and  C_21
REMARK                            x       y       z     vdW  Elec       q    Type
REMARK                         _______ _______ _______ _____ _____    ______ ____
ROOT
ATOM      7  C   UNL     1      -0.364   1.284  24.383  0.00  0.00    +0.095 C 
ATOM      8  C   UNL     1       0.081   1.344  25.075  0.00  0.00    +0.022 C 
ATOM      9  C   UNL     1      -0.107   1.920  25.636  0.00  0.00    +0.002 C 
ATOM     10  C   UNL     1      -0.737   2.434  25.505  0.00  0.00    +0.002 C 
ATOM     11  C   UNL     1      -0.293   2.495  26.197  0.00  0.00    +0.000 C 
ATOM     12  C   UNL     1      -0.925   3.010  26.065  0.00  0.00    +0.000 C 
ATOM     13  C   UNL     1      -1.555   3.524  25.935  0.00  0.00    +0.003 C 
ATOM     14  C   UNL     1      -2.000   3.464  25.242  0.00  0.00    +0.039 C 
ATOM     29  C   UNL     1      -1.814   2.889  24.681  0.00  0.00    +0.152 C 
ATOM     30  O   UNL     1      -2.258   2.828  23.990  0.00  0.00    -0.223 OA
ATOM     31  C   UNL     1      -1.182   2.374  24.813  0.00  0.00    +0.032 C 
ATOM     32  C   UNL     1      -0.996   1.799  24.251  0.00  0.00    +0.022 C 
ATOM     33  C   UNL     1      -1.440   1.738  23.560  0.00  0.00    +0.002 C 
ENDROOT
BRANCH   7   6
ATOM      4  C   UNL     1       0.600   0.626  23.558  0.00  0.00    +0.272 C 
ATOM      5  O   UNL     1       1.191   1.119  23.857  0.00  0.00    -0.271 OA
ATOM      6  N   UNL     1      -0.178   0.709  23.821  0.00  0.00    -0.205 NA
BRANCH   4   3
ATOM      3  C   UNL     1       0.787   0.051  22.997  0.00  0.00    +0.229 C 
BRANCH   3   2
ATOM      1  C   UNL     1       1.668  -0.348  21.945  0.00  0.00    +0.175 C 
ATOM      2  O   UNL     1       1.545   0.023  22.671  0.00  0.00    -0.342 OA
ENDBRANCH   3   2
ENDBRANCH   4   3
ENDBRANCH   7   6
BRANCH  14  15
ATOM     15  C   UNL     1      -2.631   3.978  25.111  0.00  0.00    +0.081 C 
ATOM     16  C   UNL     1      -2.596   4.526  24.496  0.00  0.00    +0.010 C 
BRANCH  15  17
ATOM     17  C   UNL     1      -3.299   3.943  25.595  0.00  0.00    +0.241 C 
ATOM     18  O   UNL     1      -3.301   4.328  26.324  0.00  0.00    -0.273 OA
ATOM     19  N   UNL     1      -3.966   3.522  25.349  0.00  0.00    -0.201 NA
BRANCH  19  20
ATOM     20  C   UNL     1      -4.633   3.488  25.833  0.00  0.00    +0.142 C 
BRANCH  20  21
ATOM     21  C   UNL     1      -5.193   2.893  25.719  0.00  0.00    +0.004 A 
ATOM     22  C   UNL     1      -5.595   2.577  26.367  0.00  0.00    +0.027 A 
ATOM     23  C   UNL     1      -6.156   1.982  26.253  0.00  0.00    +0.142 A 
ATOM     24  F   UNL     1      -6.558   1.665  26.901  0.00  0.00    -0.204 F 
ATOM     25  C   UNL     1      -6.314   1.704  25.494  0.00  0.00    +0.059 A 
ATOM     26  C   UNL     1      -5.912   2.020  24.846  0.00  0.00    +0.142 A 
ATOM     27  F   UNL     1      -6.071   1.741  24.086  0.00  0.00    -0.204 F 
ATOM     28  C   UNL     1      -5.351   2.615  24.960  0.00  0.00    +0.027 A 
ENDBRANCH  20  21
ENDBRANCH  19  20
ENDBRANCH  15  17
ENDBRANCH  14  15
TORSDOF 7
ENDMDL
MODEL 8
REMARK VINA RESULT:      -9.9      2.583      4.673
REMARK  Name = 
REMARK  7 active torsions:
REMARK  status: ('A' for Active; 'I' for Inactive)
REMARK    1  A    between atoms: O_2  and  C_3
REMARK    2  A    between atoms: C_3  and  C_4
REMARK    3  A    between atoms: N_6  and  C_7
REMARK    4  A    between atoms: C_14  and  C_15
REMARK    5  A    between atoms: C_15  and  C_17
REMARK    6  A    between atoms: N_19  and  C_20
REMARK    7  A    between atoms: C_20  and  C_21
REMARK                            x       y       z     vdW  Elec       q    Type
REMARK                         _______ _______ _______ _____ _____    ______ ____
ROOT
ATOM      7  C   UNL     1      -3.965   3.439  25.113  0.00  0.00    +0.095 C 
ATOM      8  C   UNL     1      -3.814   3.908  25.775  0.00  0.00    +0.022 C 
ATOM      9  C   UNL     1      -3.036   4.051  26.010  0.00  0.00    +0.002 C 
ATOM     10  C   UNL     1      -2.410   3.725  25.584  0.00  0.00    +0.002 C 
ATOM     11  C   UNL     1      -2.259   4.194  26.246  0.00  0.00    +0.000 C 
ATOM     12  C   UNL     1      -1.632   3.868  25.819  0.00  0.00    +0.000 C 
ATOM     13  C   UNL     1      -1.005   3.543  25.394  0.00  0.00    +0.003 C 
ATOM     14  C   UNL     1      -1.156   3.074  24.732  0.00  0.00    +0.039 C 
ATOM     29  C   UNL     1      -1.933   2.931  24.496  0.00  0.00    +0.152 C 
ATOM     30  O   UNL     1      -2.084   2.462  23.835  0.00  0.00    -0.223 OA
ATOM     31  C   UNL     1      -2.560   3.257  24.923  0.00  0.00    +0.032 C 
ATOM     32  C   UNL     1      -3.338   3.113  24.686  0.00  0.00    +0.022 C 
ATOM     33  C   UNL     1      -3.488   2.645  24.025  0.00  0.00    +0.002 C 
ENDROOT
BRANCH   7   6
ATOM      4  C   UNL     1      -5.285   2.983  25.415  0.00  0.00    +0.272 C 
ATOM      5  O   UNL     1      -5.050   2.814  26.188  0.00  0.00    -0.271 OA
ATOM      6  N   UNL     1      -4.742   3.295  24.877  0.00  0.00    -0.205 NA
BRANCH   4   3
ATOM      3  C   UNL     1      -6.062   2.839  25.179  0.00  0.00    +0.229 C 
BRANCH   3   2
ATOM      1  C   UNL     1      -6.892   1.760  24.744  0.00  0.00    +0.175 C 
ATOM      2  O   UNL     1      -6.405   2.100  25.316  0.00  0.00    -0.342 OA
ENDBRANCH   3   2
ENDBRANCH   4   3
ENDBRANCH   7   6
BRANCH  14  15
ATOM     15  C   UNL     1      -0.530   2.748  24.305  0.00  0.00    +0.081 C 
ATOM     16  C   UNL     1      -0.304   3.080  23.585  0.00  0.00    +0.010 C 
BRANCH  15  17
ATOM     17  C   UNL     1      -0.129   2.089  24.600  0.00  0.00    +0.241 C 
ATOM     18  O   UNL     1       0.584   2.187  25.004  0.00  0.00    -0.273 OA
ATOM     19  N   UNL     1      -0.441   1.333  24.490  0.00  0.00    -0.201 NA
BRANCH  19  20
ATOM     20  C   UNL     1      -0.040   0.675  24.785  0.00  0.00    +0.142 C 
BRANCH  20  21
ATOM     21  C   UNL     1      -0.438  -0.041  24.878  0.00  0.00    +0.004 A 
ATOM     22  C   UNL     1      -0.417  -0.606  24.276  0.00  0.00    +0.027 A 
ATOM     23  C   UNL     1      -0.815  -1.322  24.369  0.00  0.00    +0.142 A 
ATOM     24  F   UNL     1      -0.793  -1.887  23.767  0.00  0.00    -0.204 F 
ATOM     25  C   UNL     1      -1.234  -1.475  25.062  0.00  0.00    +0.059 A 
ATOM     26  C   UNL     1      -1.255  -0.911  25.664  0.00  0.00    +0.142 A 
ATOM     27  F   UNL     1      -1.675  -1.063  26.358  0.00  0.00    -0.204 F 
ATOM     28  C   UNL     1      -0.857  -0.193  25.571  0.00  0.00    +0.027 A 
ENDBRANCH  20  21
ENDBRANCH  19  20
ENDBRANCH  15  17
ENDBRANCH  14  15
TORSDOF 7
ENDMDL
MODEL 9
REMARK VINA RESULT:      -9.7      2.088      2.999
REMARK  Name = 
REMARK  7 active torsions:
REMARK  status: ('A' for Active; 'I' for Inactive)
REMARK    1  A    between atoms: O_2  and  C_3
REMARK    2  A    between atoms: C_3  and  C_4
REMARK    3  A    between atoms: N_6  and  C_7
REMARK    4  A    between atoms: C_14  and  C_15
REMARK    5  A    between atoms: C_15  and  C_17
REMARK    6  A    between atoms: N_19  and  C_20
REMARK    7  A    between atoms: C_20  and  C_21
REMARK                            x       y       z     vdW  Elec       q    Type
REMARK                         _______ _______ _______ _____ _____    ______ ____
ROOT
ATOM      7  C   UNL     1      -3.000  -0.992  24.811  0.00  0.00    +0.095 C 
ATOM      8  C   UNL     1      -2.766  -1.325  25.528  0.00  0.00    +0.022 C 
ATOM      9  C   UNL     1      -2.084  -1.053  25.906  0.00  0.00    +0.002 C 
ATOM     10  C   UNL     1      -1.638  -0.448  25.567  0.00  0.00    +0.002 C 
ATOM     11  C   UNL     1      -1.404  -0.781  26.285  0.00  0.00    +0.000 C 
ATOM     12  C   UNL     1      -0.956  -0.176  25.945  0.00  0.00    +0.000 C 
ATOM     13  C   UNL     1      -0.510   0.428  25.606  0.00  0.00    +0.003 C 
ATOM     14  C   UNL     1      -0.744   0.761  24.888  0.00  0.00    +0.039 C 
ATOM     29  C   UNL     1      -1.425   0.490  24.510  0.00  0.00    +0.152 C 
ATOM     30  O   UNL     1      -1.658   0.822  23.793  0.00  0.00    -0.223 OA
ATOM     31  C   UNL     1      -1.872  -0.115  24.850  0.00  0.00    +0.032 C 
ATOM     32  C   UNL     1      -2.553  -0.387  24.471  0.00  0.00    +0.022 C 
ATOM     33  C   UNL     1      -2.786  -0.054  23.754  0.00  0.00    +0.002 C 
ENDROOT
BRANCH   7   6
ATOM      4  C   UNL     1      -3.829  -2.074  24.383  0.00  0.00    +0.272 C 
ATOM      5  O   UNL     1      -3.298  -2.612  24.712  0.00  0.00    -0.271 OA
ATOM      6  N   UNL     1      -3.681  -1.263  24.432  0.00  0.00    -0.205 NA
BRANCH   4   3
ATOM      3  C   UNL     1      -4.510  -2.345  24.004  0.00  0.00    +0.229 C 
BRANCH   3   2
ATOM      1  C   UNL     1      -5.126  -3.172  23.015  0.00  0.00    +0.175 C 
ATOM      2  O   UNL     1      -4.457  -2.946  23.441  0.00  0.00    -0.342 OA
ENDBRANCH   3   2
ENDBRANCH   4   3
ENDBRANCH   7   6
BRANCH  14  15
ATOM     15  C   UNL     1      -0.297   1.366  24.548  0.00  0.00    +0.081 C 
ATOM     16  C   UNL     1       0.007   1.276  23.788  0.00  0.00    +0.010 C 
BRANCH  15  17
ATOM     17  C   UNL     1      -0.155   2.061  24.971  0.00  0.00    +0.241 C 
ATOM     18  O   UNL     1       0.525   2.131  25.432  0.00  0.00    -0.273 OA
ATOM     19  N   UNL     1      -0.695   2.685  24.932  0.00  0.00    -0.201 NA
BRANCH  19  20
ATOM     20  C   UNL     1      -0.552   3.379  25.354  0.00  0.00    +0.142 C 
BRANCH  20  21
ATOM     21  C   UNL     1      -1.117   3.980  25.360  0.00  0.00    +0.004 A 
ATOM     22  C   UNL     1      -1.863   3.842  25.686  0.00  0.00    +0.027 A 
ATOM     23  C   UNL     1      -2.427   4.443  25.692  0.00  0.00    +0.142 A 
ATOM     24  F   UNL     1      -3.173   4.305  26.018  0.00  0.00    -0.204 F 
ATOM     25  C   UNL     1      -2.248   5.181  25.372  0.00  0.00    +0.059 A 
ATOM     26  C   UNL     1      -1.503   5.319  25.045  0.00  0.00    +0.142 A 
ATOM     27  F   UNL     1      -1.323   6.058  24.725  0.00  0.00    -0.204 F 
ATOM     28  C   UNL     1      -0.937   4.718  25.039  0.00  0.00    +0.027 A 
ENDBRANCH  20  21
ENDBRANCH  19  20
ENDBRANCH  15  17
ENDBRANCH  14  15
TORSDOF 7
ENDMDL
MODEL 10
REMARK VINA RESULT:      -9.6      1.223      1.935
REMARK  Name = 
REMARK  7 active torsions:
REMARK  status: ('A' for Active; 'I' for Inactive)
REMARK    1  A    between atoms: O_2  and  C_3
REMARK    2  A    between atoms: C_3  and  C_4
REMARK    3  A    between atoms: N_6  and  C_7
REMARK    4  A    between atoms: C_14  and  C_15
REMARK    5  A    between atoms: C_15  and  C_17
REMARK    6  A    between atoms: N_19  and  C_20
REMARK    7  A    between atoms: C_20  and  C_21
REMARK                            x       y       z     vdW  Elec       q    Type
REMARK                         _______ _______ _______ _____ _____    ______ ____
ROOT
ATOM      7  C   UNL     1      -2.786  -1.565  25.022  0.00  0.00    +0.095 C 
ATOM      8  C   UNL     1      -3.258  -1.921  24.448  0.00  0.00    +0.022 C 
ATOM      9  C   UNL     1      -3.880  -1.499  24.107  0.00  0.00    +0.002 C 
ATOM     10  C   UNL     1      -4.029  -0.723  24.339  0.00  0.00    +0.002 C 
ATOM     11  C   UNL     1      -4.502  -1.078  23.765  0.00  0.00    +0.000 C 
ATOM     12  C   UNL     1      -4.651  -0.301  23.998  0.00  0.00    +0.000 C 
ATOM     13  C   UNL     1      -4.799   0.476  24.231  0.00  0.00    +0.003 C 
ATOM     14  C   UNL     1      -4.326   0.832  24.806  0.00  0.00    +0.039 C 
ATOM     29  C   UNL     1      -3.705   0.411  25.148  0.00  0.00    +0.152 C 
ATOM     30  O   UNL     1      -3.232   0.767  25.722  0.00  0.00    -0.223 OA
ATOM     31  C   UNL     1      -3.556  -0.367  24.914  0.00  0.00    +0.032 C 
ATOM     32  C   UNL     1      -2.934  -0.787  25.256  0.00  0.00    +0.022 C 
ATOM     33  C   UNL     1      -2.462  -0.432  25.830  0.00  0.00    +0.002 C 
ENDROOT
BRANCH   7   6
ATOM      4  C   UNL     1      -1.544  -2.261  24.893  0.00  0.00    +0.272 C 
ATOM      5  O   UNL     1      -1.547  -2.115  24.081  0.00  0.00    -0.271 OA
ATOM      6  N   UNL     1      -2.164  -1.986  25.364  0.00  0.00    -0.205 NA
BRANCH   4   3
ATOM      3  C   UNL     1      -0.922  -2.682  25.235  0.00  0.00    +0.229 C 
BRANCH   3   2
ATOM      1  C   UNL     1       0.467  -2.723  25.567  0.00  0.00    +0.175 C 
ATOM      2  O   UNL     1      -0.141  -2.469  25.071  0.00  0.00    -0.342 OA
ENDBRANCH   3   2
ENDBRANCH   4   3
ENDBRANCH   7   6
BRANCH  14  15
ATOM     15  C   UNL     1      -4.474   1.609  25.040  0.00  0.00    +0.081 C 
ATOM     16  C   UNL     1      -4.920   1.759  25.717  0.00  0.00    +0.010 C 
BRANCH  15  17
ATOM     17  C   UNL     1      -4.176   2.237  24.594  0.00  0.00    +0.241 C 
ATOM     18  O   UNL     1      -4.534   2.443  23.880  0.00  0.00    -0.273 OA
ATOM     19  N   UNL     1      -3.520   2.659  24.864  0.00  0.00    -0.201 NA
BRANCH  19  20
ATOM     20  C   UNL     1      -3.222   3.287  24.419  0.00  0.00    +0.142 C 
BRANCH  20  21
ATOM     21  C   UNL     1      -2.515   3.649  24.640  0.00  0.00    +0.004 A 
ATOM     22  C   UNL     1      -2.530   4.352  25.072  0.00  0.00    +0.027 A 
ATOM     23  C   UNL     1      -1.822   4.715  25.294  0.00  0.00    +0.142 A 
ATOM     24  F   UNL     1      -1.837   5.418  25.726  0.00  0.00    -0.204 F 
ATOM     25  C   UNL     1      -1.102   4.375  25.084  0.00  0.00    +0.059 A 
ATOM     26  C   UNL     1      -1.086   3.672  24.653  0.00  0.00    +0.142 A 
ATOM     27  F   UNL     1      -0.365   3.332  24.443  0.00  0.00    -0.204 F 
ATOM     28  C   UNL     1      -1.794   3.309  24.431  0.00  0.00    +0.027 A 
ENDBRANCH  20  21
ENDBRANCH  19  20
ENDBRANCH  15  17
ENDBRANCH  14  15
TORSDOF 7
ENDMDL
