MODEL 1
REMARK VINA RESULT:     -12.3      0.000      0.000
REMARK  Name = 
REMARK  7 active torsions:
REMARK  status: ('A' for Active; 'I' for Inactive)
REMARK    1  A    between atoms: N_2  and  C_3
REMARK    2  A    between atoms: C_3  and  C_4
REMARK    3  A    between atoms: C_6  and  C_8
REMARK    4  A    between atoms: C_8  and  C_9
REMARK    5  A    between atoms: C_14  and  C_16
REMARK    6  A    between atoms: C_27  and  C_29
REMARK    7  A    between atoms: C_32  and  C_35
REMARK                            x       y       z     vdW  Elec       q    Type
REMARK                         _______ _______ _______ _____ _____    ______ ____
ROOT
ATOM      9  C   UNL     1      -3.714   1.076  24.491  0.00  0.00    +0.050 C 
ATOM     10  C   UNL     1      -2.948   1.375  24.415  0.00  0.00    +0.063 A 
ATOM     11  C   UNL     1      -2.786   2.154  24.634  0.00  0.00    +0.023 A 
ATOM     12  C   UNL     1      -3.388   2.633  24.928  0.00  0.00    +0.034 C 
ATOM     13  C   UNL     1      -4.153   2.335  25.004  0.00  0.00    +0.010 C 
ATOM     14  C   UNL     1      -4.756   2.815  25.299  0.00  0.00    +0.059 C 
ATOM     15  C   UNL     1      -4.124   3.344  25.330  0.00  0.00    +0.005 C 
ATOM     18  C   UNL     1      -5.521   2.516  25.375  0.00  0.00    +0.154 C 
ATOM     19  O   UNL     1      -6.125   2.997  25.670  0.00  0.00    -0.223 OA
ATOM     20  C   UNL     1      -5.684   1.738  25.156  0.00  0.00    +0.033 C 
ATOM     21  C   UNL     1      -5.082   1.258  24.861  0.00  0.00    +0.003 C 
ATOM     22  C   UNL     1      -4.316   1.556  24.785  0.00  0.00    +0.006 C 
ATOM     23  C   UNL     1      -4.479   0.778  24.566  0.00  0.00    +0.000 C 
ATOM     24  S   UNL     1      -1.984   2.294  24.498  0.00  0.00    -0.054 S 
ATOM     25  C   UNL     1      -1.652   1.603  24.195  0.00  0.00    +0.185 A 
ATOM     26  N   UNL     1      -0.862   1.498  23.981  0.00  0.00    -0.151 NA
ATOM     27  C   UNL     1      -0.608   0.772  23.684  0.00  0.00    +0.271 C 
ATOM     28  O   UNL     1      -1.144   0.150  23.601  0.00  0.00    -0.268 OA
ATOM     39  N   UNL     1      -2.248   1.034  24.143  0.00  0.00    -0.227 NA
ENDROOT
BRANCH  27  29
ATOM     29  C   UNL     1       0.182   0.666  23.470  0.00  0.00    +0.055 A 
ATOM     30  C   UNL     1       0.755   1.198  23.730  0.00  0.00    +0.004 A 
ATOM     31  C   UNL     1       1.545   1.093  23.516  0.00  0.00    -0.004 A 
ATOM     32  C   UNL     1       1.761   0.454  23.041  0.00  0.00    -0.023 A 
ATOM     33  C   UNL     1       1.187  -0.080  22.780  0.00  0.00    -0.004 A 
ATOM     34  C   UNL     1       0.398   0.027  22.995  0.00  0.00    +0.004 A 
BRANCH  32  35
ATOM     35  C   UNL     1       2.550   0.347  22.826  0.00  0.00    +0.019 C 
ATOM     36  C   UNL     1       3.340   0.242  22.612  0.00  0.00    +0.004 C 
ATOM     37  C   UNL     1       2.361  -0.382  22.490  0.00  0.00    +0.004 C 
ATOM     38  C   UNL     1       2.740   1.077  23.162  0.00  0.00    +0.004 C 
ENDBRANCH  32  35
ENDBRANCH  27  29
BRANCH  14  16
ATOM     16  C   UNL     1      -5.139   3.479  25.605  0.00  0.00    +0.184 C 
ATOM     17  O   UNL     1      -4.734   4.195  25.670  0.00  0.00    -0.220 OA
ENDBRANCH  14  16
BRANCH   9   8
ATOM      8  C   UNL     1      -3.876   0.298  24.271  0.00  0.00    +0.091 C 
BRANCH   8   6
ATOM      1  C   UNL     1      -3.991  -1.264  23.753  0.00  0.00    +0.115 C 
ATOM      2  N   UNL     1      -3.750  -1.102  24.525  0.00  0.00    -0.274 N 
ATOM      6  C   UNL     1      -3.692  -0.322  24.785  0.00  0.00    +0.226 C 
ATOM      7  O   UNL     1      -3.451  -0.160  25.556  0.00  0.00    -0.275 OA
BRANCH   2   3
ATOM      3  C   UNL     1      -3.566  -1.722  25.039  0.00  0.00    +0.120 C 
BRANCH   3   4
ATOM      4  C   UNL     1      -3.491  -2.490  24.747  0.00  0.00    -0.005 C 
ATOM      5  C   UNL     1      -3.231  -3.096  25.244  0.00  0.00    -0.003 C 
ENDBRANCH   3   4
ENDBRANCH   2   3
ENDBRANCH   8   6
ENDBRANCH   9   8
TORSDOF 7
ENDMDL
MODEL 2
REMARK VINA RESULT:     -11.8      2.453      4.675
REMARK  Name = 
REMARK  7 active torsions:
REMARK  status: ('A' for Active; 'I' for Inactive)
REMARK    1  A    between atoms: N_2  and  C_3
REMARK    2  A    between atoms: C_3  and  C_4
REMARK    3  A    between atoms: C_6  and  C_8
REMARK    4  A    between atoms: C_8  and  C_9
REMARK    5  A    between atoms: C_14  and  C_16
REMARK    6  A    between atoms: C_27  and  C_29
REMARK    7  A    between atoms: C_32  and  C_35
REMARK                            x       y       z     vdW  Elec       q    Type
REMARK                         _______ _______ _______ _____ _____    ______ ____
ROOT
ATOM      9  C   UNL     1      -2.705   3.298  25.322  0.00  0.00    +0.050 C 
ATOM     10  C   UNL     1      -2.469   2.568  25.017  0.00  0.00    +0.063 A 
ATOM     11  C   UNL     1      -1.747   2.500  24.623  0.00  0.00    +0.023 A 
ATOM     12  C   UNL     1      -1.263   3.161  24.533  0.00  0.00    +0.034 C 
ATOM     13  C   UNL     1      -1.498   3.890  24.838  0.00  0.00    +0.010 C 
ATOM     14  C   UNL     1      -1.013   4.551  24.748  0.00  0.00    +0.059 C 
ATOM     15  C   UNL     1      -0.553   3.983  24.366  0.00  0.00    +0.005 C 
ATOM     18  C   UNL     1      -1.250   5.281  25.053  0.00  0.00    +0.154 C 
ATOM     19  O   UNL     1      -0.764   5.943  24.963  0.00  0.00    -0.223 OA
ATOM     20  C   UNL     1      -1.970   5.349  25.447  0.00  0.00    +0.033 C 
ATOM     21  C   UNL     1      -2.456   4.688  25.536  0.00  0.00    +0.003 C 
ATOM     22  C   UNL     1      -2.220   3.959  25.232  0.00  0.00    +0.006 C 
ATOM     23  C   UNL     1      -2.941   4.027  25.626  0.00  0.00    +0.000 C 
ATOM     24  S   UNL     1      -1.662   1.715  24.383  0.00  0.00    -0.054 S 
ATOM     25  C   UNL     1      -2.329   1.299  24.629  0.00  0.00    +0.185 A 
ATOM     26  N   UNL     1      -2.474   0.496  24.505  0.00  0.00    -0.151 NA
ATOM     27  C   UNL     1      -3.170   0.154  24.784  0.00  0.00    +0.271 C 
ATOM     28  O   UNL     1      -3.723   0.614  25.188  0.00  0.00    -0.268 OA
ATOM     39  N   UNL     1      -2.829   1.826  25.021  0.00  0.00    -0.227 NA
ENDROOT
BRANCH  27  29
ATOM     29  C   UNL     1      -3.315  -0.649  24.660  0.00  0.00    +0.055 A 
ATOM     30  C   UNL     1      -2.939  -1.214  25.130  0.00  0.00    +0.004 A 
ATOM     31  C   UNL     1      -3.084  -2.017  25.006  0.00  0.00    -0.004 A 
ATOM     32  C   UNL     1      -3.605  -2.255  24.412  0.00  0.00    -0.023 A 
ATOM     33  C   UNL     1      -3.981  -1.690  23.941  0.00  0.00    -0.004 A 
ATOM     34  C   UNL     1      -3.835  -0.887  24.066  0.00  0.00    +0.004 A 
BRANCH  32  35
ATOM     35  C   UNL     1      -3.750  -3.057  24.287  0.00  0.00    +0.019 C 
ATOM     36  C   UNL     1      -3.896  -3.859  24.161  0.00  0.00    +0.004 C 
ATOM     37  C   UNL     1      -3.166  -3.248  24.838  0.00  0.00    +0.004 C 
ATOM     38  C   UNL     1      -4.334  -2.865  23.736  0.00  0.00    +0.004 C 
ENDBRANCH  32  35
ENDBRANCH  27  29
BRANCH  14  16
ATOM     16  C   UNL     1      -0.368   5.015  24.526  0.00  0.00    +0.184 C 
ATOM     17  O   UNL     1       0.099   4.791  23.883  0.00  0.00    -0.220 OA
ENDBRANCH  14  16
BRANCH   9   8
ATOM      8  C   UNL     1      -3.427   3.366  25.716  0.00  0.00    +0.091 C 
BRANCH   8   6
ATOM      1  C   UNL     1      -4.850   3.053  26.489  0.00  0.00    +0.115 C 
ATOM      2  N   UNL     1      -4.844   3.192  25.675  0.00  0.00    -0.274 N 
ATOM      6  C   UNL     1      -4.133   3.348  25.288  0.00  0.00    +0.226 C 
ATOM      7  O   UNL     1      -4.127   3.486  24.476  0.00  0.00    -0.275 OA
BRANCH   2   3
ATOM      3  C   UNL     1      -5.551   3.174  25.248  0.00  0.00    +0.120 C 
BRANCH   3   4
ATOM      4  C   UNL     1      -6.181   2.712  25.513  0.00  0.00    -0.005 C 
ATOM      5  C   UNL     1      -6.581   2.218  24.986  0.00  0.00    -0.003 C 
ENDBRANCH   3   4
ENDBRANCH   2   3
ENDBRANCH   8   6
ENDBRANCH   9   8
TORSDOF 7
ENDMDL
MODEL 3
REMARK VINA RESULT:     -10.4      2.507      4.506
REMARK  Name = 
REMARK  7 active torsions:
REMARK  status: ('A' for Active; 'I' for Inactive)
REMARK    1  A    between atoms: N_2  and  C_3
REMARK    2  A    between atoms: C_3  and  C_4
REMARK    3  A    between atoms: C_6  and  C_8
REMARK    4  A    between atoms: C_8  and  C_9
REMARK    5  A    between atoms: C_14  and  C_16
REMARK    6  A    between atoms: C_27  and  C_29
REMARK    7  A    between atoms: C_32  and  C_35
REMARK                            x       y       z     vdW  Elec       q    Type
REMARK                         _______ _______ _______ _____ _____    ______ ____
ROOT
ATOM      9  C   UNL     1      -3.638  -0.367  24.434  0.00  0.00    +0.050 C 
ATOM     10  C   UNL     1      -2.965   0.105  24.515  0.00  0.00    +0.063 A 
ATOM     11  C   UNL     1      -2.221  -0.244  24.576  0.00  0.00    +0.023 A 
ATOM     12  C   UNL     1      -2.148  -1.065  24.557  0.00  0.00    +0.034 C 
ATOM     13  C   UNL     1      -2.819  -1.538  24.477  0.00  0.00    +0.010 C 
ATOM     14  C   UNL     1      -2.746  -2.359  24.458  0.00  0.00    +0.059 C 
ATOM     15  C   UNL     1      -1.954  -2.147  24.542  0.00  0.00    +0.005 C 
ATOM     18  C   UNL     1      -3.419  -2.831  24.377  0.00  0.00    +0.154 C 
ATOM     19  O   UNL     1      -3.345  -3.653  24.358  0.00  0.00    -0.223 OA
ATOM     20  C   UNL     1      -4.163  -2.482  24.316  0.00  0.00    +0.033 C 
ATOM     21  C   UNL     1      -4.236  -1.660  24.335  0.00  0.00    +0.003 C 
ATOM     22  C   UNL     1      -3.565  -1.188  24.415  0.00  0.00    +0.006 C 
ATOM     23  C   UNL     1      -4.309  -0.839  24.354  0.00  0.00    +0.000 C 
ATOM     24  S   UNL     1      -1.662   0.359  24.650  0.00  0.00    -0.054 S 
ATOM     25  C   UNL     1      -2.061   1.080  24.634  0.00  0.00    +0.185 A 
ATOM     26  N   UNL     1      -1.716   1.827  24.692  0.00  0.00    -0.151 NA
ATOM     27  C   UNL     1      -2.188   2.503  24.667  0.00  0.00    +0.271 C 
ATOM     28  O   UNL     1      -3.006   2.432  24.585  0.00  0.00    -0.268 OA
ATOM     39  N   UNL     1      -2.867   0.924  24.551  0.00  0.00    -0.227 NA
ENDROOT
BRANCH  27  29
ATOM     29  C   UNL     1      -1.843   3.250  24.725  0.00  0.00    +0.055 A 
ATOM     30  C   UNL     1      -1.186   3.439  24.263  0.00  0.00    +0.004 A 
ATOM     31  C   UNL     1      -0.841   4.186  24.320  0.00  0.00    -0.004 A 
ATOM     32  C   UNL     1      -1.153   4.745  24.841  0.00  0.00    -0.023 A 
ATOM     33  C   UNL     1      -1.811   4.557  25.303  0.00  0.00    -0.004 A 
ATOM     34  C   UNL     1      -2.155   3.809  25.245  0.00  0.00    +0.004 A 
BRANCH  32  35
ATOM     35  C   UNL     1      -0.809   5.492  24.899  0.00  0.00    +0.019 C 
ATOM     36  C   UNL     1      -0.466   6.241  24.958  0.00  0.00    +0.004 C 
ATOM     37  C   UNL     1      -0.065   5.160  24.772  0.00  0.00    +0.004 C 
ATOM     38  C   UNL     1      -1.554   5.825  25.027  0.00  0.00    +0.004 C 
ENDBRANCH  32  35
ENDBRANCH  27  29
BRANCH  14  16
ATOM     16  C   UNL     1      -2.398  -3.107  24.468  0.00  0.00    +0.184 C 
ATOM     17  O   UNL     1      -1.581  -3.182  24.381  0.00  0.00    -0.220 OA
ENDBRANCH  14  16
BRANCH   9   8
ATOM      8  C   UNL     1      -4.382  -0.017  24.373  0.00  0.00    +0.091 C 
BRANCH   8   6
ATOM      1  C   UNL     1      -5.557   1.128  24.201  0.00  0.00    +0.115 C 
ATOM      2  N   UNL     1      -5.327   0.883  24.954  0.00  0.00    -0.274 N 
ATOM      6  C   UNL     1      -4.740   0.311  25.041  0.00  0.00    +0.226 C 
ATOM      7  O   UNL     1      -4.510   0.067  25.793  0.00  0.00    -0.275 OA
BRANCH   2   3
ATOM      3  C   UNL     1      -5.685   1.212  25.622  0.00  0.00    +0.120 C 
BRANCH   3   4
ATOM      4  C   UNL     1      -6.107   1.917  25.558  0.00  0.00    -0.005 C 
ATOM      5  C   UNL     1      -6.213   2.395  26.223  0.00  0.00    -0.003 C 
ENDBRANCH   3   4
ENDBRANCH   2   3
ENDBRANCH   8   6
ENDBRANCH   9   8
TORSDOF 7
ENDMDL
MODEL 4
REMARK VINA RESULT:      -9.8      1.996      4.790
REMARK  Name = 
REMARK  7 active torsions:
REMARK  status: ('A' for Active; 'I' for Inactive)
REMARK    1  A    between atoms: N_2  and  C_3
REMARK    2  A    between atoms: C_3  and  C_4
REMARK    3  A    between atoms: C_6  and  C_8
REMARK    4  A    between atoms: C_8  and  C_9
REMARK    5  A    between atoms: C_14  and  C_16
REMARK    6  A    between atoms: C_27  and  C_29
REMARK    7  A    between atoms: C_32  and  C_35
REMARK                            x       y       z     vdW  Elec       q    Type
REMARK                         _______ _______ _______ _____ _____    ______ ____
ROOT
ATOM      9  C   UNL     1      -1.855  -0.969  24.531  0.00  0.00    +0.050 C 
ATOM     10  C   UNL     1      -2.214  -0.226  24.575  0.00  0.00    +0.063 A 
ATOM     11  C   UNL     1      -3.036  -0.163  24.541  0.00  0.00    +0.023 A 
ATOM     12  C   UNL     1      -3.499  -0.841  24.465  0.00  0.00    +0.034 C 
ATOM     13  C   UNL     1      -3.141  -1.583  24.421  0.00  0.00    +0.010 C 
ATOM     14  C   UNL     1      -3.604  -2.261  24.345  0.00  0.00    +0.059 C 
ATOM     15  C   UNL     1      -4.195  -1.686  24.364  0.00  0.00    +0.005 C 
ATOM     18  C   UNL     1      -3.245  -3.003  24.301  0.00  0.00    +0.154 C 
ATOM     19  O   UNL     1      -3.708  -3.682  24.224  0.00  0.00    -0.223 OA
ATOM     20  C   UNL     1      -2.423  -3.066  24.334  0.00  0.00    +0.033 C 
ATOM     21  C   UNL     1      -1.960  -2.388  24.411  0.00  0.00    +0.003 C 
ATOM     22  C   UNL     1      -2.318  -1.646  24.455  0.00  0.00    +0.006 C 
ATOM     23  C   UNL     1      -1.497  -1.710  24.488  0.00  0.00    +0.000 C 
ATOM     24  S   UNL     1      -3.232   0.637  24.597  0.00  0.00    -0.054 S 
ATOM     25  C   UNL     1      -2.532   1.067  24.665  0.00  0.00    +0.185 A 
ATOM     26  N   UNL     1      -2.471   1.887  24.734  0.00  0.00    -0.151 NA
ATOM     27  C   UNL     1      -1.730   2.242  24.798  0.00  0.00    +0.271 C 
ATOM     28  O   UNL     1      -1.048   1.777  24.792  0.00  0.00    -0.268 OA
ATOM     39  N   UNL     1      -1.902   0.534  24.651  0.00  0.00    -0.227 NA
ENDROOT
BRANCH  27  29
ATOM     29  C   UNL     1      -1.669   3.062  24.867  0.00  0.00    +0.055 A 
ATOM     30  C   UNL     1      -2.292   3.497  25.187  0.00  0.00    +0.004 A 
ATOM     31  C   UNL     1      -2.230   4.317  25.257  0.00  0.00    -0.004 A 
ATOM     32  C   UNL     1      -1.545   4.702  25.005  0.00  0.00    -0.023 A 
ATOM     33  C   UNL     1      -0.921   4.266  24.684  0.00  0.00    -0.004 A 
ATOM     34  C   UNL     1      -0.984   3.447  24.616  0.00  0.00    +0.004 A 
BRANCH  32  35
ATOM     35  C   UNL     1      -1.483   5.521  25.074  0.00  0.00    +0.019 C 
ATOM     36  C   UNL     1      -1.419   6.341  25.143  0.00  0.00    +0.004 C 
ATOM     37  C   UNL     1      -2.256   5.556  25.359  0.00  0.00    +0.004 C 
ATOM     38  C   UNL     1      -0.709   5.486  24.789  0.00  0.00    +0.004 C 
ENDBRANCH  32  35
ENDBRANCH  27  29
BRANCH  14  16
ATOM     16  C   UNL     1      -4.272  -2.739  24.274  0.00  0.00    +0.184 C 
ATOM     17  O   UNL     1      -4.924  -2.476  23.842  0.00  0.00    -0.220 OA
ENDBRANCH  14  16
BRANCH   9   8
ATOM      8  C   UNL     1      -1.034  -1.031  24.565  0.00  0.00    +0.091 C 
BRANCH   8   6
ATOM      1  C   UNL     1       0.594  -0.802  24.705  0.00  0.00    +0.115 C 
ATOM      2  N   UNL     1       0.233  -0.755  23.964  0.00  0.00    -0.274 N 
ATOM      6  C   UNL     1      -0.580  -0.870  23.894  0.00  0.00    +0.226 C 
ATOM      7  O   UNL     1      -0.941  -0.823  23.154  0.00  0.00    -0.275 OA
BRANCH   2   3
ATOM      3  C   UNL     1       0.687  -0.594  23.293  0.00  0.00    +0.120 C 
BRANCH   3   4
ATOM      4  C   UNL     1       1.383  -0.156  23.362  0.00  0.00    -0.005 C 
ATOM      5  C   UNL     1       1.819   0.033  22.687  0.00  0.00    -0.003 C 
ENDBRANCH   3   4
ENDBRANCH   2   3
ENDBRANCH   8   6
ENDBRANCH   9   8
TORSDOF 7
ENDMDL
MODEL 5
REMARK VINA RESULT:      -9.6      1.571      3.159
REMARK  Name = 
REMARK  7 active torsions:
REMARK  status: ('A' for Active; 'I' for Inactive)
REMARK    1  A    between atoms: N_2  and  C_3
REMARK    2  A    between atoms: C_3  and  C_4
REMARK    3  A    between atoms: C_6  and  C_8
REMARK    4  A    between atoms: C_8  and  C_9
REMARK    5  A    between atoms: C_14  and  C_16
REMARK    6  A    between atoms: C_27  and  C_29
REMARK    7  A    between atoms: C_32  and  C_35
REMARK                            x       y       z     vdW  Elec       q    Type
REMARK                         _______ _______ _______ _____ _____    ______ ____
ROOT
ATOM      9  C   UNL     1      -3.384   2.546  25.211  0.00  0.00    +0.050 C 
ATOM     10  C   UNL     1      -2.973   1.979  24.773  0.00  0.00    +0.063 A 
ATOM     11  C   UNL     1      -3.383   1.358  24.417  0.00  0.00    +0.023 A 
ATOM     12  C   UNL     1      -4.201   1.303  24.499  0.00  0.00    +0.034 C 
ATOM     13  C   UNL     1      -4.612   1.869  24.937  0.00  0.00    +0.010 C 
ATOM     14  C   UNL     1      -5.431   1.813  25.019  0.00  0.00    +0.059 C 
ATOM     15  C   UNL     1      -5.288   1.148  24.554  0.00  0.00    +0.005 C 
ATOM     18  C   UNL     1      -5.840   2.380  25.458  0.00  0.00    +0.154 C 
ATOM     19  O   UNL     1      -6.660   2.325  25.540  0.00  0.00    -0.223 OA
ATOM     20  C   UNL     1      -5.431   3.002  25.813  0.00  0.00    +0.033 C 
ATOM     21  C   UNL     1      -4.612   3.057  25.731  0.00  0.00    +0.003 C 
ATOM     22  C   UNL     1      -4.202   2.491  25.293  0.00  0.00    +0.006 C 
ATOM     23  C   UNL     1      -3.793   3.112  25.649  0.00  0.00    +0.000 C 
ATOM     24  S   UNL     1      -2.834   0.885  24.022  0.00  0.00    -0.054 S 
ATOM     25  C   UNL     1      -2.087   1.214  24.133  0.00  0.00    +0.185 A 
ATOM     26  N   UNL     1      -1.377   0.919  23.833  0.00  0.00    -0.151 NA
ATOM     27  C   UNL     1      -0.668   1.309  23.990  0.00  0.00    +0.271 C 
ATOM     28  O   UNL     1      -0.668   1.995  24.449  0.00  0.00    -0.268 OA
ATOM     39  N   UNL     1      -2.172   1.891  24.597  0.00  0.00    -0.227 NA
ENDROOT
BRANCH  27  29
ATOM     29  C   UNL     1       0.042   1.014  23.690  0.00  0.00    +0.055 A 
ATOM     30  C   UNL     1       0.054   0.292  23.293  0.00  0.00    +0.004 A 
ATOM     31  C   UNL     1       0.764  -0.003  22.993  0.00  0.00    -0.004 A 
ATOM     32  C   UNL     1       1.462   0.426  23.090  0.00  0.00    -0.023 A 
ATOM     33  C   UNL     1       1.450   1.150  23.488  0.00  0.00    -0.004 A 
ATOM     34  C   UNL     1       0.740   1.443  23.788  0.00  0.00    +0.004 A 
BRANCH  32  35
ATOM     35  C   UNL     1       2.172   0.132  22.791  0.00  0.00    +0.019 C 
ATOM     36  C   UNL     1       2.884  -0.160  22.492  0.00  0.00    +0.004 C 
ATOM     37  C   UNL     1       1.765  -0.489  22.433  0.00  0.00    +0.004 C 
ATOM     38  C   UNL     1       2.580   0.754  23.150  0.00  0.00    +0.004 C 
ENDBRANCH  32  35
ENDBRANCH  27  29
BRANCH  14  16
ATOM     16  C   UNL     1      -6.200   1.527  24.940  0.00  0.00    +0.184 C 
ATOM     17  O   UNL     1      -6.338   0.822  24.534  0.00  0.00    -0.220 OA
ENDBRANCH  14  16
BRANCH   9   8
ATOM      8  C   UNL     1      -2.974   3.167  25.567  0.00  0.00    +0.091 C 
BRANCH   8   6
ATOM      1  C   UNL     1      -1.822   4.192  26.155  0.00  0.00    +0.115 C 
ATOM      2  N   UNL     1      -2.144   4.319  25.406  0.00  0.00    -0.274 N 
ATOM      6  C   UNL     1      -2.720   3.807  25.111  0.00  0.00    +0.226 C 
ATOM      7  O   UNL     1      -3.041   3.934  24.363  0.00  0.00    -0.275 OA
BRANCH   2   3
ATOM      3  C   UNL     1      -1.890   4.959  24.950  0.00  0.00    +0.120 C 
BRANCH   3   4
ATOM      4  C   UNL     1      -1.164   5.317  25.112  0.00  0.00    -0.005 C 
ATOM      5  C   UNL     1      -0.752   5.702  24.509  0.00  0.00    -0.003 C 
ENDBRANCH   3   4
ENDBRANCH   2   3
ENDBRANCH   8   6
ENDBRANCH   9   8
TORSDOF 7
ENDMDL
MODEL 6
REMARK VINA RESULT:      -9.5      1.842      3.500
REMARK  Name = 
REMARK  7 active torsions:
REMARK  status: ('A' for Active; 'I' for Inactive)
REMARK    1  A    between atoms: N_2  and  C_3
REMARK    2  A    between atoms: C_3  and  C_4
REMARK    3  A    between atoms: C_6  and  C_8
REMARK    4  A    between atoms: C_8  and  C_9
REMARK    5  A    between atoms: C_14  and  C_16
REMARK    6  A    between atoms: C_27  and  C_29
REMARK    7  A    between atoms: C_32  and  C_35
REMARK                            x       y       z     vdW  Elec       q    Type
REMARK                         _______ _______ _______ _____ _____    ______ ____
ROOT
ATOM      9  C   UNL     1      -2.096   0.571  24.214  0.00  0.00    +0.050 C 
ATOM     10  C   UNL     1      -1.379   0.168  24.134  0.00  0.00    +0.063 A 
ATOM     11  C   UNL     1      -1.338  -0.636  24.312  0.00  0.00    +0.023 A 
ATOM     12  C   UNL     1      -2.010  -1.038  24.569  0.00  0.00    +0.034 C 
ATOM     13  C   UNL     1      -2.726  -0.636  24.649  0.00  0.00    +0.010 C 
ATOM     14  C   UNL     1      -3.399  -1.037  24.906  0.00  0.00    +0.059 C 
ATOM     15  C   UNL     1      -2.851  -1.654  24.917  0.00  0.00    +0.005 C 
ATOM     18  C   UNL     1      -4.114  -0.634  24.985  0.00  0.00    +0.154 C 
ATOM     19  O   UNL     1      -4.788  -1.036  25.243  0.00  0.00    -0.223 OA
ATOM     20  C   UNL     1      -4.157   0.170  24.808  0.00  0.00    +0.033 C 
ATOM     21  C   UNL     1      -3.484   0.572  24.551  0.00  0.00    +0.003 C 
ATOM     22  C   UNL     1      -2.768   0.170  24.471  0.00  0.00    +0.006 C 
ATOM     23  C   UNL     1      -2.811   0.974  24.293  0.00  0.00    +0.000 C 
ATOM     24  S   UNL     1      -0.561  -0.885  24.181  0.00  0.00    -0.054 S 
ATOM     25  C   UNL     1      -0.125  -0.235  23.924  0.00  0.00    +0.185 A 
ATOM     26  N   UNL     1       0.677  -0.235  23.729  0.00  0.00    -0.151 NA
ATOM     27  C   UNL     1       1.041   0.461  23.478  0.00  0.00    +0.271 C 
ATOM     28  O   UNL     1       0.604   1.158  23.421  0.00  0.00    -0.268 OA
ATOM     39  N   UNL     1      -0.630   0.417  23.894  0.00  0.00    -0.227 NA
ENDROOT
BRANCH  27  29
ATOM     29  C   UNL     1       1.843   0.461  23.283  0.00  0.00    +0.055 A 
ATOM     30  C   UNL     1       2.186  -0.209  22.946  0.00  0.00    +0.004 A 
ATOM     31  C   UNL     1       2.988  -0.208  22.752  0.00  0.00    -0.004 A 
ATOM     32  C   UNL     1       3.447   0.462  22.894  0.00  0.00    -0.023 A 
ATOM     33  C   UNL     1       3.103   1.133  23.232  0.00  0.00    -0.004 A 
ATOM     34  C   UNL     1       2.302   1.132  23.426  0.00  0.00    +0.004 A 
BRANCH  32  35
ATOM     35  C   UNL     1       4.248   0.464  22.700  0.00  0.00    +0.019 C 
ATOM     36  C   UNL     1       5.051   0.465  22.507  0.00  0.00    +0.004 C 
ATOM     37  C   UNL     1       4.073   0.822  21.978  0.00  0.00    +0.004 C 
ATOM     38  C   UNL     1       4.424   0.105  23.423  0.00  0.00    +0.004 C 
ENDBRANCH  32  35
ENDBRANCH  27  29
BRANCH  14  16
ATOM     16  C   UNL     1      -3.881  -1.653  25.167  0.00  0.00    +0.184 C 
ATOM     17  O   UNL     1      -3.567  -2.410  25.264  0.00  0.00    -0.220 OA
ENDBRANCH  14  16
BRANCH   9   8
ATOM      8  C   UNL     1      -2.138   1.375  24.036  0.00  0.00    +0.091 C 
BRANCH   8   6
ATOM      1  C   UNL     1      -2.041   2.969  23.620  0.00  0.00    +0.115 C 
ATOM      2  N   UNL     1      -1.848   2.730  24.385  0.00  0.00    -0.274 N 
ATOM      6  C   UNL     1      -1.896   1.934  24.594  0.00  0.00    +0.226 C 
ATOM      7  O   UNL     1      -1.704   1.696  25.359  0.00  0.00    -0.275 OA
BRANCH   2   3
ATOM      3  C   UNL     1      -1.607   3.289  24.944  0.00  0.00    +0.120 C 
BRANCH   3   4
ATOM      4  C   UNL     1      -1.479   4.071  24.715  0.00  0.00    -0.005 C 
ATOM      5  C   UNL     1      -1.366   4.655  25.288  0.00  0.00    -0.003 C 
ENDBRANCH   3   4
ENDBRANCH   2   3
ENDBRANCH   8   6
ENDBRANCH   9   8
TORSDOF 7
ENDMDL
MODEL 7
REMARK VINA RESULT:      -8.9      1.720      4.664
REMARK  Name = 
REMARK  7 active torsions:
REMARK  status: ('A' for Active; 'I' for Inactive)
REMARK    1  A    between atoms: N_2  and  C_3
REMARK    2  A    between atoms: C_3  and  C_4
REMARK    3  A    between atoms: C_6  and  C_8
REMARK    4  A    between atoms: C_8  and  C_9
REMARK    5  A    between atoms: C_14  and  C_16
REMARK    6  A    between atoms: C_27  and  C_29
REMARK    7  A    between atoms: C_32  and  C_35
REMARK                            x       y       z     vdW  Elec       q    Type
REMARK                         _______ _______ _______ _____ _____    ______ ____
ROOT
ATOM      9  C   UNL     1      -1.111   2.750  24.903  0.00  0.00    +0.050 C 
ATOM     10  C   UNL     1      -1.788   2.280  24.848  0.00  0.00    +0.063 A 
ATOM     11  C   UNL     1      -2.535   2.629  24.884  0.00  0.00    +0.023 A 
ATOM     12  C   UNL     1      -2.606   3.445  24.974  0.00  0.00    +0.034 C 
ATOM     13  C   UNL     1      -1.930   3.914  25.029  0.00  0.00    +0.010 C 
ATOM     14  C   UNL     1      -2.000   4.731  25.120  0.00  0.00    +0.059 C 
ATOM     15  C   UNL     1      -2.797   4.521  25.093  0.00  0.00    +0.005 C 
ATOM     18  C   UNL     1      -1.323   5.200  25.175  0.00  0.00    +0.154 C 
ATOM     19  O   UNL     1      -1.394   6.018  25.266  0.00  0.00    -0.223 OA
ATOM     20  C   UNL     1      -0.577   4.852  25.140  0.00  0.00    +0.033 C 
ATOM     21  C   UNL     1      -0.506   4.035  25.049  0.00  0.00    +0.003 C 
ATOM     22  C   UNL     1      -1.182   3.566  24.994  0.00  0.00    +0.006 C 
ATOM     23  C   UNL     1      -0.435   3.218  24.958  0.00  0.00    +0.000 C 
ATOM     24  S   UNL     1      -3.098   2.029  24.815  0.00  0.00    -0.054 S 
ATOM     25  C   UNL     1      -2.700   1.312  24.737  0.00  0.00    +0.185 A 
ATOM     26  N   UNL     1      -3.049   0.569  24.652  0.00  0.00    -0.151 NA
ATOM     27  C   UNL     1      -2.577  -0.103  24.580  0.00  0.00    +0.271 C 
ATOM     28  O   UNL     1      -1.755  -0.033  24.591  0.00  0.00    -0.268 OA
ATOM     39  N   UNL     1      -1.889   1.467  24.757  0.00  0.00    -0.227 NA
ENDROOT
BRANCH  27  29
ATOM     29  C   UNL     1      -2.926  -0.846  24.495  0.00  0.00    +0.055 A 
ATOM     30  C   UNL     1      -3.722  -0.908  24.288  0.00  0.00    +0.004 A 
ATOM     31  C   UNL     1      -4.071  -1.650  24.204  0.00  0.00    -0.004 A 
ATOM     32  C   UNL     1      -3.623  -2.332  24.327  0.00  0.00    -0.023 A 
ATOM     33  C   UNL     1      -2.826  -2.271  24.535  0.00  0.00    -0.004 A 
ATOM     34  C   UNL     1      -2.479  -1.528  24.619  0.00  0.00    +0.004 A 
BRANCH  32  35
ATOM     35  C   UNL     1      -3.971  -3.076  24.244  0.00  0.00    +0.019 C 
ATOM     36  C   UNL     1      -4.320  -3.819  24.159  0.00  0.00    +0.004 C 
ATOM     37  C   UNL     1      -3.549  -3.347  24.898  0.00  0.00    +0.004 C 
ATOM     38  C   UNL     1      -4.393  -2.803  23.588  0.00  0.00    +0.004 C 
ENDBRANCH  32  35
ENDBRANCH  27  29
BRANCH  14  16
ATOM     16  C   UNL     1      -2.348   5.475  25.201  0.00  0.00    +0.184 C 
ATOM     17  O   UNL     1      -3.154   5.537  25.366  0.00  0.00    -0.220 OA
ENDBRANCH  14  16
BRANCH   9   8
ATOM      8  C   UNL     1      -0.364   2.401  24.868  0.00  0.00    +0.091 C 
BRANCH   8   6
ATOM      1  C   UNL     1       0.900   1.342  24.844  0.00  0.00    +0.115 C 
ATOM      2  N   UNL     1       0.557   1.591  24.136  0.00  0.00    -0.274 N 
ATOM      6  C   UNL     1      -0.075   2.120  24.147  0.00  0.00    +0.226 C 
ATOM      7  O   UNL     1      -0.417   2.369  23.440  0.00  0.00    -0.275 OA
BRANCH   2   3
ATOM      3  C   UNL     1       0.847   1.309  23.416  0.00  0.00    +0.120 C 
BRANCH   3   4
ATOM      4  C   UNL     1       1.323   0.636  23.398  0.00  0.00    -0.005 C 
ATOM      5  C   UNL     1       1.426   0.222  22.691  0.00  0.00    -0.003 C 
ENDBRANCH   3   4
ENDBRANCH   2   3
ENDBRANCH   8   6
ENDBRANCH   9   8
TORSDOF 7
ENDMDL
