MODEL 1
REMARK VINA RESULT:      -9.7      0.000      0.000
REMARK  Name = 
REMARK  8 active torsions:
REMARK  status: ('A' for Active; 'I' for Inactive)
REMARK    1  A    between atoms: N_2  and  C_3
REMARK    2  A    between atoms: N_2  and  C_11
REMARK    3  A    between atoms: C_3  and  C_4
REMARK    4  A    between atoms: C_4  and  C_5
REMARK    5  A    between atoms: C_12  and  C_13
REMARK    6  A    between atoms: C_13  and  N_14
REMARK    7  A    between atoms: N_17  and  C_18
REMARK    8  A    between atoms: C_26  and  C_27
REMARK                            x       y       z     vdW  Elec       q    Type
REMARK                         _______ _______ _______ _____ _____    ______ ____
ROOT
ATOM     11  C   UNL     1      -1.398   1.370  24.819  0.00  0.00    +0.120 C 
ATOM     12  C   UNL     1      -1.849   2.025  24.601  0.00  0.00    +0.154 C 
ATOM     25  O   UNL     1      -1.616   2.664  25.069  0.00  0.00    -0.350 OA
ATOM     26  C   UNL     1      -1.020   2.403  25.577  0.00  0.00    +0.180 C 
ATOM     29  C   UNL     1      -0.885   1.603  25.422  0.00  0.00    +0.198 C 
ATOM     30  O   UNL     1      -0.335   1.122  25.804  0.00  0.00    -0.219 OA
ENDROOT
BRANCH  11   2
ATOM      1  C   UNL     1      -0.989   0.416  23.837  0.00  0.00    +0.090 C 
ATOM      2  N   UNL     1      -1.449   0.615  24.493  0.00  0.00    -0.268 NA
BRANCH   2   3
ATOM      3  C   UNL     1      -1.962   0.057  24.820  0.00  0.00    +0.079 C 
BRANCH   3   4
ATOM      4  C   UNL     1      -1.886  -0.739  24.623  0.00  0.00    +0.063 C 
BRANCH   4   5
ATOM      5  C   UNL     1      -2.490  -1.270  24.808  0.00  0.00    +0.060 A 
ATOM      6  N   UNL     1      -2.734  -1.360  25.591  0.00  0.00    -0.248 NA
ATOM      7  C   UNL     1      -3.339  -1.891  25.776  0.00  0.00    +0.098 A 
ATOM      8  C   UNL     1      -3.699  -2.330  25.178  0.00  0.00    +0.021 A 
ATOM      9  C   UNL     1      -3.455  -2.240  24.395  0.00  0.00    +0.003 A 
ATOM     10  C   UNL     1      -2.851  -1.710  24.210  0.00  0.00    +0.015 A 
ENDBRANCH   4   5
ENDBRANCH   3   4
ENDBRANCH   2   3
ENDBRANCH  11   2
BRANCH  26  27
ATOM     27  C   UNL     1      -0.628   2.861  26.140  0.00  0.00    +0.214 C 
ATOM     28  O   UNL     1      -0.440   3.647  25.974  0.00  0.00    -0.218 OA
ENDBRANCH  26  27
BRANCH  12  13
ATOM     13  C   UNL     1      -2.432   2.039  24.017  0.00  0.00    +0.148 C 
BRANCH  13  14
ATOM     14  N   UNL     1      -2.222   1.970  23.223  0.00  0.00    -0.184 NA
ATOM     15  C   UNL     1      -2.764   2.171  22.634  0.00  0.00    +0.344 C 
ATOM     16  O   UNL     1      -2.554   2.103  21.839  0.00  0.00    -0.249 OA
ATOM     17  N   UNL     1      -3.516   2.441  22.840  0.00  0.00    -0.161 NA
BRANCH  17  18
ATOM     18  C   UNL     1      -3.726   2.510  23.634  0.00  0.00    +0.076 A 
ATOM     19  C   UNL     1      -4.173   1.917  23.996  0.00  0.00    +0.028 A 
ATOM     20  C   UNL     1      -4.383   1.986  24.790  0.00  0.00    +0.059 A 
ATOM     21 CL   UNL     1      -4.830   1.394  25.151  0.00  0.00    -0.082 Cl
ATOM     22  C   UNL     1      -4.146   2.647  25.224  0.00  0.00    +0.011 A 
ATOM     23  C   UNL     1      -3.699   3.238  24.863  0.00  0.00    +0.002 A 
ATOM     24  C   UNL     1      -3.489   3.170  24.068  0.00  0.00    +0.017 A 
ENDBRANCH  17  18
ENDBRANCH  13  14
ENDBRANCH  12  13
TORSDOF 8
ENDMDL
MODEL 2
REMARK VINA RESULT:      -9.5      1.458      2.519
REMARK  Name = 
REMARK  8 active torsions:
REMARK  status: ('A' for Active; 'I' for Inactive)
REMARK    1  A    between atoms: N_2  and  C_3
REMARK    2  A    between atoms: N_2  and  C_11
REMARK    3  A    between atoms: C_3  and  C_4
REMARK    4  A    between atoms: C_4  and  C_5
REMARK    5  A    between atoms: C_12  and  C_13
REMARK    6  A    between atoms: C_13  and  N_14
REMARK    7  A    between atoms: N_17  and  C_18
REMARK    8  A    between atoms: C_26  and  C_27
REMARK                            x       y       z     vdW  Elec       q    Type
REMARK                         _______ _______ _______ _____ _____    ______ ____
ROOT
ATOM     11  C   UNL     1      -3.825   2.250  24.900  0.00  0.00    +0.120 C 
ATOM     12  C   UNL     1      -3.103   2.572  24.663  0.00  0.00    +0.154 C 
ATOM     25  O   UNL     1      -2.977   3.263  25.097  0.00  0.00    -0.350 OA
ATOM     26  C   UNL     1      -3.621   3.368  25.601  0.00  0.00    +0.180 C 
ATOM     29  C   UNL     1      -4.145   2.741  25.480  0.00  0.00    +0.198 C 
ATOM     30  O   UNL     1      -4.863   2.628  25.870  0.00  0.00    -0.219 OA
ENDROOT
BRANCH  11   2
ATOM      1  C   UNL     1      -4.705   1.595  23.984  0.00  0.00    +0.090 C 
ATOM      2  N   UNL     1      -4.166   1.559  24.608  0.00  0.00    -0.268 NA
BRANCH   2   3
ATOM      3  C   UNL     1      -3.969   0.829  24.940  0.00  0.00    +0.079 C 
BRANCH   3   4
ATOM      4  C   UNL     1      -4.424   0.163  24.772  0.00  0.00    +0.063 C 
BRANCH   4   5
ATOM      5  C   UNL     1      -4.109  -0.591  24.886  0.00  0.00    +0.060 A 
ATOM      6  N   UNL     1      -3.814  -0.808  25.625  0.00  0.00    -0.248 NA
ATOM      7  C   UNL     1      -3.499  -1.562  25.739  0.00  0.00    +0.098 A 
ATOM      8  C   UNL     1      -3.479  -2.099  25.113  0.00  0.00    +0.021 A 
ATOM      9  C   UNL     1      -3.775  -1.883  24.374  0.00  0.00    +0.003 A 
ATOM     10  C   UNL     1      -4.089  -1.129  24.261  0.00  0.00    +0.015 A 
ENDBRANCH   4   5
ENDBRANCH   3   4
ENDBRANCH   2   3
ENDBRANCH  11   2
BRANCH  26  27
ATOM     27  C   UNL     1      -3.723   3.989  26.135  0.00  0.00    +0.214 C 
ATOM     28  O   UNL     1      -3.066   4.359  26.468  0.00  0.00    -0.218 OA
ENDBRANCH  26  27
BRANCH  12  13
ATOM     13  C   UNL     1      -2.597   2.258  24.093  0.00  0.00    +0.148 C 
BRANCH  13  14
ATOM     14  N   UNL     1      -2.833   2.225  23.304  0.00  0.00    -0.184 NA
ATOM     15  C   UNL     1      -2.279   2.068  22.713  0.00  0.00    +0.344 C 
ATOM     16  O   UNL     1      -2.516   2.035  21.923  0.00  0.00    -0.249 OA
ATOM     17  N   UNL     1      -1.488   1.944  22.912  0.00  0.00    -0.161 NA
BRANCH  17  18
ATOM     18  C   UNL     1      -1.251   1.977  23.701  0.00  0.00    +0.076 A 
ATOM     19  C   UNL     1      -1.140   1.279  24.128  0.00  0.00    +0.028 A 
ATOM     20  C   UNL     1      -0.903   1.312  24.917  0.00  0.00    +0.059 A 
ATOM     21 CL   UNL     1      -0.791   0.615  25.343  0.00  0.00    -0.082 Cl
ATOM     22  C   UNL     1      -0.778   2.043  25.280  0.00  0.00    +0.011 A 
ATOM     23  C   UNL     1      -0.889   2.739  24.854  0.00  0.00    +0.002 A 
ATOM     24  C   UNL     1      -1.126   2.707  24.064  0.00  0.00    +0.017 A 
ENDBRANCH  17  18
ENDBRANCH  13  14
ENDBRANCH  12  13
TORSDOF 8
ENDMDL
MODEL 3
REMARK VINA RESULT:      -9.2      1.583      2.685
REMARK  Name = 
REMARK  8 active torsions:
REMARK  status: ('A' for Active; 'I' for Inactive)
REMARK    1  A    between atoms: N_2  and  C_3
REMARK    2  A    between atoms: N_2  and  C_11
REMARK    3  A    between atoms: C_3  and  C_4
REMARK    4  A    between atoms: C_4  and  C_5
REMARK    5  A    between atoms: C_12  and  C_13
REMARK    6  A    between atoms: C_13  and  N_14
REMARK    7  A    between atoms: N_17  and  C_18
REMARK    8  A    between atoms: C_26  and  C_27
REMARK                            x       y       z     vdW  Elec       q    Type
REMARK                         _______ _______ _______ _____ _____    ______ ____
ROOT
ATOM     11  C   UNL     1      -0.619  -0.033  24.488  0.00  0.00    +0.120 C 
ATOM     12  C   UNL     1      -0.452   0.773  24.428  0.00  0.00    +0.154 C 
ATOM     25  O   UNL     1       0.139   0.869  23.859  0.00  0.00    -0.350 OA
ATOM     26  C   UNL     1       0.336   0.123  23.568  0.00  0.00    +0.180 C 
ATOM     29  C   UNL     1      -0.133  -0.435  23.957  0.00  0.00    +0.198 C 
ATOM     30  O   UNL     1      -0.117  -1.250  23.835  0.00  0.00    -0.219 OA
ENDROOT
BRANCH  11   2
ATOM      1  C   UNL     1      -1.013  -0.453  25.796  0.00  0.00    +0.090 C 
ATOM      2  N   UNL     1      -1.175  -0.376  24.990  0.00  0.00    -0.268 NA
BRANCH   2   3
ATOM      3  C   UNL     1      -1.896  -0.644  24.689  0.00  0.00    +0.079 C 
BRANCH   3   4
ATOM      4  C   UNL     1      -2.376  -1.136  25.143  0.00  0.00    +0.063 C 
BRANCH   4   5
ATOM      5  C   UNL     1      -3.004  -1.539  24.790  0.00  0.00    +0.060 A 
ATOM      6  N   UNL     1      -3.009  -2.364  24.778  0.00  0.00    -0.248 NA
ATOM      7  C   UNL     1      -3.637  -2.767  24.425  0.00  0.00    +0.098 A 
ATOM      8  C   UNL     1      -4.258  -2.345  24.085  0.00  0.00    +0.021 A 
ATOM      9  C   UNL     1      -4.253  -1.520  24.097  0.00  0.00    +0.003 A 
ATOM     10  C   UNL     1      -3.626  -1.118  24.449  0.00  0.00    +0.015 A 
ENDBRANCH   4   5
ENDBRANCH   3   4
ENDBRANCH   2   3
ENDBRANCH  11   2
BRANCH  26  27
ATOM     27  C   UNL     1       0.902  -0.038  22.990  0.00  0.00    +0.214 C 
ATOM     28  O   UNL     1       1.589   0.416  22.948  0.00  0.00    -0.218 OA
ENDBRANCH  26  27
BRANCH  12  13
ATOM     13  C   UNL     1      -0.812   1.376  24.861  0.00  0.00    +0.148 C 
BRANCH  13  14
ATOM     14  N   UNL     1      -0.566   1.534  25.631  0.00  0.00    -0.184 NA
ATOM     15  C   UNL     1      -0.756   2.255  25.986  0.00  0.00    +0.344 C 
ATOM     16  O   UNL     1      -0.510   2.413  26.757  0.00  0.00    -0.249 OA
ATOM     17  N   UNL     1      -1.193   2.816  25.568  0.00  0.00    -0.161 NA
BRANCH  17  18
ATOM     18  C   UNL     1      -1.439   2.658  24.798  0.00  0.00    +0.076 A 
ATOM     19  C   UNL     1      -2.221   2.438  24.651  0.00  0.00    +0.028 A 
ATOM     20  C   UNL     1      -2.467   2.280  23.879  0.00  0.00    +0.059 A 
ATOM     21 CL   UNL     1      -3.248   2.061  23.733  0.00  0.00    -0.082 Cl
ATOM     22  C   UNL     1      -1.931   2.342  23.255  0.00  0.00    +0.011 A 
ATOM     23  C   UNL     1      -1.150   2.561  23.401  0.00  0.00    +0.002 A 
ATOM     24  C   UNL     1      -0.904   2.719  24.173  0.00  0.00    +0.017 A 
ENDBRANCH  17  18
ENDBRANCH  13  14
ENDBRANCH  12  13
TORSDOF 8
ENDMDL
MODEL 4
REMARK VINA RESULT:      -8.9      1.425      3.356
REMARK  Name = 
REMARK  8 active torsions:
REMARK  status: ('A' for Active; 'I' for Inactive)
REMARK    1  A    between atoms: N_2  and  C_3
REMARK    2  A    between atoms: N_2  and  C_11
REMARK    3  A    between atoms: C_3  and  C_4
REMARK    4  A    between atoms: C_4  and  C_5
REMARK    5  A    between atoms: C_12  and  C_13
REMARK    6  A    between atoms: C_13  and  N_14
REMARK    7  A    between atoms: N_17  and  C_18
REMARK    8  A    between atoms: C_26  and  C_27
REMARK                            x       y       z     vdW  Elec       q    Type
REMARK                         _______ _______ _______ _____ _____    ______ ____
ROOT
ATOM     11  C   UNL     1      -1.386   2.107  25.117  0.00  0.00    +0.120 C 
ATOM     12  C   UNL     1      -0.920   1.427  25.156  0.00  0.00    +0.154 C 
ATOM     25  O   UNL     1      -0.363   1.532  25.756  0.00  0.00    -0.350 OA
ATOM     26  C   UNL     1      -0.486   2.277  26.089  0.00  0.00    +0.180 C 
ATOM     29  C   UNL     1      -1.118   2.632  25.694  0.00  0.00    +0.198 C 
ATOM     30  O   UNL     1      -1.427   3.381  25.849  0.00  0.00    -0.219 OA
ENDROOT
BRANCH  11   2
ATOM      1  C   UNL     1      -1.856   2.446  23.811  0.00  0.00    +0.090 C 
ATOM      2  N   UNL     1      -2.010   2.237  24.595  0.00  0.00    -0.268 NA
BRANCH   2   3
ATOM      3  C   UNL     1      -2.789   2.159  24.854  0.00  0.00    +0.079 C 
BRANCH   3   4
ATOM      4  C   UNL     1      -3.408   2.453  24.396  0.00  0.00    +0.063 C 
BRANCH   4   5
ATOM      5  C   UNL     1      -4.182   2.422  24.679  0.00  0.00    +0.060 A 
ATOM      6  N   UNL     1      -4.497   3.064  25.091  0.00  0.00    -0.248 NA
ATOM      7  C   UNL     1      -5.271   3.033  25.375  0.00  0.00    +0.098 A 
ATOM      8  C   UNL     1      -5.730   2.359  25.247  0.00  0.00    +0.021 A 
ATOM      9  C   UNL     1      -5.416   1.718  24.835  0.00  0.00    +0.003 A 
ATOM     10  C   UNL     1      -4.643   1.749  24.552  0.00  0.00    +0.015 A 
ENDBRANCH   4   5
ENDBRANCH   3   4
ENDBRANCH   2   3
ENDBRANCH  11   2
BRANCH  26  27
ATOM     27  C   UNL     1      -0.053   2.609  26.708  0.00  0.00    +0.214 C 
ATOM     28  O   UNL     1       0.768   2.527  26.728  0.00  0.00    -0.218 OA
ENDBRANCH  26  27
BRANCH  12  13
ATOM     13  C   UNL     1      -0.997   0.759  24.677  0.00  0.00    +0.148 C 
BRANCH  13  14
ATOM     14  N   UNL     1      -0.679   0.758  23.917  0.00  0.00    -0.184 NA
ATOM     15  C   UNL     1      -0.553   0.043  23.523  0.00  0.00    +0.344 C 
ATOM     16  O   UNL     1      -0.236   0.042  22.762  0.00  0.00    -0.249 OA
ATOM     17  N   UNL     1      -0.746  -0.669  23.892  0.00  0.00    -0.161 NA
BRANCH  17  18
ATOM     18  C   UNL     1      -1.063  -0.668  24.652  0.00  0.00    +0.076 A 
ATOM     19  C   UNL     1      -1.873  -0.783  24.762  0.00  0.00    +0.028 A 
ATOM     20  C   UNL     1      -2.191  -0.781  25.523  0.00  0.00    +0.059 A 
ATOM     21 CL   UNL     1      -3.000  -0.896  25.632  0.00  0.00    -0.082 Cl
ATOM     22  C   UNL     1      -1.698  -0.665  26.175  0.00  0.00    +0.011 A 
ATOM     23  C   UNL     1      -0.889  -0.551  26.066  0.00  0.00    +0.002 A 
ATOM     24  C   UNL     1      -0.572  -0.552  25.305  0.00  0.00    +0.017 A 
ENDBRANCH  17  18
ENDBRANCH  13  14
ENDBRANCH  12  13
TORSDOF 8
ENDMDL
MODEL 5
REMARK VINA RESULT:      -8.8      1.703      3.374
REMARK  Name = 
REMARK  8 active torsions:
REMARK  status: ('A' for Active; 'I' for Inactive)
REMARK    1  A    between atoms: N_2  and  C_3
REMARK    2  A    between atoms: N_2  and  C_11
REMARK    3  A    between atoms: C_3  and  C_4
REMARK    4  A    between atoms: C_4  and  C_5
REMARK    5  A    between atoms: C_12  and  C_13
REMARK    6  A    between atoms: C_13  and  N_14
REMARK    7  A    between atoms: N_17  and  C_18
REMARK    8  A    between atoms: C_26  and  C_27
REMARK                            x       y       z     vdW  Elec       q    Type
REMARK                         _______ _______ _______ _____ _____    ______ ____
ROOT
ATOM     11  C   UNL     1      -2.624   0.263  24.868  0.00  0.00    +0.120 C 
ATOM     12  C   UNL     1      -1.895   0.639  24.778  0.00  0.00    +0.154 C 
ATOM     25  O   UNL     1      -1.326   0.193  25.176  0.00  0.00    -0.350 OA
ATOM     26  C   UNL     1      -1.704  -0.458  25.513  0.00  0.00    +0.180 C 
ATOM     29  C   UNL     1      -2.506  -0.415  25.323  0.00  0.00    +0.198 C 
ATOM     30  O   UNL     1      -3.087  -0.955  25.548  0.00  0.00    -0.219 OA
ENDROOT
BRANCH  11   2
ATOM      1  C   UNL     1      -3.579   0.279  23.806  0.00  0.00    +0.090 C 
ATOM      2  N   UNL     1      -3.343   0.520  24.559  0.00  0.00    -0.268 NA
BRANCH   2   3
ATOM      3  C   UNL     1      -3.829   1.019  25.003  0.00  0.00    +0.079 C 
BRANCH   3   4
ATOM      4  C   UNL     1      -4.591   1.192  24.741  0.00  0.00    +0.063 C 
BRANCH   4   5
ATOM      5  C   UNL     1      -5.024   1.794  25.103  0.00  0.00    +0.060 A 
ATOM      6  N   UNL     1      -4.937   2.574  24.849  0.00  0.00    -0.248 NA
ATOM      7  C   UNL     1      -5.370   3.177  25.210  0.00  0.00    +0.098 A 
ATOM      8  C   UNL     1      -5.890   2.998  25.825  0.00  0.00    +0.021 A 
ATOM      9  C   UNL     1      -5.978   2.218  26.079  0.00  0.00    +0.003 A 
ATOM     10  C   UNL     1      -5.545   1.617  25.717  0.00  0.00    +0.015 A 
ENDBRANCH   4   5
ENDBRANCH   3   4
ENDBRANCH   2   3
ENDBRANCH  11   2
BRANCH  26  27
ATOM     27  C   UNL     1      -1.343  -1.049  25.962  0.00  0.00    +0.214 C 
ATOM     28  O   UNL     1      -0.638  -1.390  25.704  0.00  0.00    -0.218 OA
ENDBRANCH  26  27
BRANCH  12  13
ATOM     13  C   UNL     1      -1.759   1.338  24.361  0.00  0.00    +0.148 C 
BRANCH  13  14
ATOM     14  N   UNL     1      -1.884   1.364  23.547  0.00  0.00    -0.184 NA
ATOM     15  C   UNL     1      -1.594   1.998  23.105  0.00  0.00    +0.344 C 
ATOM     16  O   UNL     1      -1.719   2.024  22.290  0.00  0.00    -0.249 OA
ATOM     17  N   UNL     1      -1.180   2.605  23.478  0.00  0.00    -0.161 NA
BRANCH  17  18
ATOM     18  C   UNL     1      -1.055   2.579  24.292  0.00  0.00    +0.076 A 
ATOM     19  C   UNL     1      -1.536   3.020  24.798  0.00  0.00    +0.028 A 
ATOM     20  C   UNL     1      -1.411   2.994  25.614  0.00  0.00    +0.059 A 
ATOM     21 CL   UNL     1      -1.892   3.434  26.118  0.00  0.00    -0.082 Cl
ATOM     22  C   UNL     1      -0.804   2.527  25.923  0.00  0.00    +0.011 A 
ATOM     23  C   UNL     1      -0.324   2.087  25.418  0.00  0.00    +0.002 A 
ATOM     24  C   UNL     1      -0.449   2.113  24.603  0.00  0.00    +0.017 A 
ENDBRANCH  17  18
ENDBRANCH  13  14
ENDBRANCH  12  13
TORSDOF 8
ENDMDL
MODEL 6
REMARK VINA RESULT:      -8.8      1.572      2.431
REMARK  Name = 
REMARK  8 active torsions:
REMARK  status: ('A' for Active; 'I' for Inactive)
REMARK    1  A    between atoms: N_2  and  C_3
REMARK    2  A    between atoms: N_2  and  C_11
REMARK    3  A    between atoms: C_3  and  C_4
REMARK    4  A    between atoms: C_4  and  C_5
REMARK    5  A    between atoms: C_12  and  C_13
REMARK    6  A    between atoms: C_13  and  N_14
REMARK    7  A    between atoms: N_17  and  C_18
REMARK    8  A    between atoms: C_26  and  C_27
REMARK                            x       y       z     vdW  Elec       q    Type
REMARK                         _______ _______ _______ _____ _____    ______ ____
ROOT
ATOM     11  C   UNL     1      -2.583   1.440  23.979  0.00  0.00    +0.120 C 
ATOM     12  C   UNL     1      -3.192   1.994  23.915  0.00  0.00    +0.154 C 
ATOM     25  O   UNL     1      -3.129   2.359  23.177  0.00  0.00    -0.350 OA
ATOM     26  C   UNL     1      -2.481   2.031  22.786  0.00  0.00    +0.180 C 
ATOM     29  C   UNL     1      -2.144   1.463  23.281  0.00  0.00    +0.198 C 
ATOM     30  O   UNL     1      -1.483   1.000  23.109  0.00  0.00    -0.219 OA
ENDROOT
BRANCH  11   2
ATOM      1  C   UNL     1      -1.957   1.212  25.243  0.00  0.00    +0.090 C 
ATOM      2  N   UNL     1      -2.439   0.951  24.626  0.00  0.00    -0.268 NA
BRANCH   2   3
ATOM      3  C   UNL     1      -2.778   0.199  24.659  0.00  0.00    +0.079 C 
BRANCH   3   4
ATOM      4  C   UNL     1      -2.448  -0.381  25.142  0.00  0.00    +0.063 C 
BRANCH   4   5
ATOM      5  C   UNL     1      -2.681  -1.169  25.059  0.00  0.00    +0.060 A 
ATOM      6  N   UNL     1      -2.212  -1.695  24.631  0.00  0.00    -0.248 NA
ATOM      7  C   UNL     1      -2.446  -2.483  24.548  0.00  0.00    +0.098 A 
ATOM      8  C   UNL     1      -3.148  -2.742  24.894  0.00  0.00    +0.021 A 
ATOM      9  C   UNL     1      -3.617  -2.216  25.322  0.00  0.00    +0.003 A 
ATOM     10  C   UNL     1      -3.384  -1.430  25.405  0.00  0.00    +0.015 A 
ENDBRANCH   4   5
ENDBRANCH   3   4
ENDBRANCH   2   3
ENDBRANCH  11   2
BRANCH  26  27
ATOM     27  C   UNL     1      -2.216   2.234  22.031  0.00  0.00    +0.214 C 
ATOM     28  O   UNL     1      -2.760   2.380  21.429  0.00  0.00    -0.218 OA
ENDBRANCH  26  27
BRANCH  12  13
ATOM     13  C   UNL     1      -3.763   2.154  24.488  0.00  0.00    +0.148 C 
BRANCH  13  14
ATOM     14  N   UNL     1      -4.389   1.631  24.604  0.00  0.00    -0.184 NA
ATOM     15  C   UNL     1      -5.063   1.877  25.013  0.00  0.00    +0.344 C 
ATOM     16  O   UNL     1      -5.690   1.354  25.129  0.00  0.00    -0.249 OA
ATOM     17  N   UNL     1      -5.108   2.647  25.305  0.00  0.00    -0.161 NA
BRANCH  17  18
ATOM     18  C   UNL     1      -4.482   3.170  25.190  0.00  0.00    +0.076 A 
ATOM     19  C   UNL     1      -3.943   3.310  25.799  0.00  0.00    +0.028 A 
ATOM     20  C   UNL     1      -3.316   3.834  25.683  0.00  0.00    +0.059 A 
ATOM     21 CL   UNL     1      -2.777   3.973  26.291  0.00  0.00    -0.082 Cl
ATOM     22  C   UNL     1      -3.228   4.218  24.957  0.00  0.00    +0.011 A 
ATOM     23  C   UNL     1      -3.767   4.078  24.349  0.00  0.00    +0.002 A 
ATOM     24  C   UNL     1      -4.394   3.555  24.465  0.00  0.00    +0.017 A 
ENDBRANCH  17  18
ENDBRANCH  13  14
ENDBRANCH  12  13
TORSDOF 8
ENDMDL
MODEL 7
REMARK VINA RESULT:      -8.7      1.918      3.882
REMARK  Name = 
REMARK  8 active torsions:
REMARK  status: ('A' for Active; 'I' for Inactive)
REMARK    1  A    between atoms: N_2  and  C_3
REMARK    2  A    between atoms: N_2  and  C_11
REMARK    3  A    between atoms: C_3  and  C_4
REMARK    4  A    between atoms: C_4  and  C_5
REMARK    5  A    between atoms: C_12  and  C_13
REMARK    6  A    between atoms: C_13  and  N_14
REMARK    7  A    between atoms: N_17  and  C_18
REMARK    8  A    between atoms: C_26  and  C_27
REMARK                            x       y       z     vdW  Elec       q    Type
REMARK                         _______ _______ _______ _____ _____    ______ ____
ROOT
ATOM     11  C   UNL     1      -3.898   2.818  25.068  0.00  0.00    +0.120 C 
ATOM     12  C   UNL     1      -4.088   2.113  24.684  0.00  0.00    +0.154 C 
ATOM     25  O   UNL     1      -4.851   1.895  24.913  0.00  0.00    -0.350 OA
ATOM     26  C   UNL     1      -5.131   2.466  25.438  0.00  0.00    +0.180 C 
ATOM     29  C   UNL     1      -4.542   3.036  25.535  0.00  0.00    +0.198 C 
ATOM     30  O   UNL     1      -4.590   3.707  26.012  0.00  0.00    -0.219 OA
ENDROOT
BRANCH  11   2
ATOM      1  C   UNL     1      -3.119   3.844  24.449  0.00  0.00    +0.090 C 
ATOM      2  N   UNL     1      -3.188   3.231  24.998  0.00  0.00    -0.268 NA
BRANCH   2   3
ATOM      3  C   UNL     1      -2.545   3.033  25.477  0.00  0.00    +0.079 C 
BRANCH   3   4
ATOM      4  C   UNL     1      -1.877   3.514  25.491  0.00  0.00    +0.063 C 
BRANCH   4   5
ATOM      5  C   UNL     1      -1.143   3.196  25.693  0.00  0.00    +0.060 A 
ATOM      6  N   UNL     1      -1.028   2.868  26.442  0.00  0.00    -0.248 NA
ATOM      7  C   UNL     1      -0.294   2.550  26.644  0.00  0.00    +0.098 A 
ATOM      8  C   UNL     1       0.324   2.559  26.098  0.00  0.00    +0.021 A 
ATOM      9  C   UNL     1       0.209   2.886  25.350  0.00  0.00    +0.003 A 
ATOM     10  C   UNL     1      -0.524   3.204  25.148  0.00  0.00    +0.015 A 
ENDBRANCH   4   5
ENDBRANCH   3   4
ENDBRANCH   2   3
ENDBRANCH  11   2
BRANCH  26  27
ATOM     27  C   UNL     1      -5.871   2.467  25.804  0.00  0.00    +0.214 C 
ATOM     28  O   UNL     1      -6.491   2.029  25.482  0.00  0.00    -0.218 OA
ENDBRANCH  26  27
BRANCH  12  13
ATOM     13  C   UNL     1      -3.602   1.698  24.163  0.00  0.00    +0.148 C 
BRANCH  13  14
ATOM     14  N   UNL     1      -3.375   2.041  23.449  0.00  0.00    -0.184 NA
ATOM     15  C   UNL     1      -3.027   1.579  22.861  0.00  0.00    +0.344 C 
ATOM     16  O   UNL     1      -2.800   1.922  22.146  0.00  0.00    -0.249 OA
ATOM     17  N   UNL     1      -2.906   0.773  22.988  0.00  0.00    -0.161 NA
BRANCH  17  18
ATOM     18  C   UNL     1      -3.133   0.429  23.702  0.00  0.00    +0.076 A 
ATOM     19  C   UNL     1      -2.568   0.278  24.285  0.00  0.00    +0.028 A 
ATOM     20  C   UNL     1      -2.796  -0.066  25.000  0.00  0.00    +0.059 A 
ATOM     21 CL   UNL     1      -2.232  -0.217  25.582  0.00  0.00    -0.082 Cl
ATOM     22  C   UNL     1      -3.587  -0.258  25.132  0.00  0.00    +0.011 A 
ATOM     23  C   UNL     1      -4.151  -0.107  24.550  0.00  0.00    +0.002 A 
ATOM     24  C   UNL     1      -3.924   0.237  23.835  0.00  0.00    +0.017 A 
ENDBRANCH  17  18
ENDBRANCH  13  14
ENDBRANCH  12  13
TORSDOF 8
ENDMDL
MODEL 8
REMARK VINA RESULT:      -8.5      1.803      4.028
REMARK  Name = 
REMARK  8 active torsions:
REMARK  status: ('A' for Active; 'I' for Inactive)
REMARK    1  A    between atoms: N_2  and  C_3
REMARK    2  A    between atoms: N_2  and  C_11
REMARK    3  A    between atoms: C_3  and  C_4
REMARK    4  A    between atoms: C_4  and  C_5
REMARK    5  A    between atoms: C_12  and  C_13
REMARK    6  A    between atoms: C_13  and  N_14
REMARK    7  A    between atoms: N_17  and  C_18
REMARK    8  A    between atoms: C_26  and  C_27
REMARK                            x       y       z     vdW  Elec       q    Type
REMARK                         _______ _______ _______ _____ _____    ______ ____
ROOT
ATOM     11  C   UNL     1      -0.640   1.070  24.734  0.00  0.00    +0.120 C 
ATOM     12  C   UNL     1      -1.135   0.440  24.535  0.00  0.00    +0.154 C 
ATOM     25  O   UNL     1      -0.807   0.053  23.884  0.00  0.00    -0.350 OA
ATOM     26  C   UNL     1      -0.110   0.444  23.680  0.00  0.00    +0.180 C 
ATOM     29  C   UNL     1      -0.007   1.073  24.205  0.00  0.00    +0.198 C 
ATOM     30  O   UNL     1       0.619   1.610  24.202  0.00  0.00    -0.219 OA
ENDROOT
BRANCH  11   2
ATOM      1  C   UNL     1      -0.549   1.397  26.122  0.00  0.00    +0.090 C 
ATOM      2  N   UNL     1      -0.759   1.603  25.351  0.00  0.00    -0.268 NA
BRANCH   2   3
ATOM      3  C   UNL     1      -1.089   2.344  25.199  0.00  0.00    +0.079 C 
BRANCH   3   4
ATOM      4  C   UNL     1      -1.025   2.947  25.758  0.00  0.00    +0.063 C 
BRANCH   4   5
ATOM      5  C   UNL     1      -1.381   3.678  25.618  0.00  0.00    +0.060 A 
ATOM      6  N   UNL     1      -2.143   3.826  25.895  0.00  0.00    -0.248 NA
ATOM      7  C   UNL     1      -2.499   4.558  25.755  0.00  0.00    +0.098 A 
ATOM      8  C   UNL     1      -2.091   5.141  25.338  0.00  0.00    +0.021 A 
ATOM      9  C   UNL     1      -1.328   4.993  25.061  0.00  0.00    +0.003 A 
ATOM     10  C   UNL     1      -0.973   4.262  25.201  0.00  0.00    +0.015 A 
ENDBRANCH   4   5
ENDBRANCH   3   4
ENDBRANCH   2   3
ENDBRANCH  11   2
BRANCH  26  27
ATOM     27  C   UNL     1       0.397   0.242  23.060  0.00  0.00    +0.214 C 
ATOM     28  O   UNL     1       0.553  -0.550  22.897  0.00  0.00    -0.218 OA
ENDBRANCH  26  27
BRANCH  12  13
ATOM     13  C   UNL     1      -1.834   0.233  24.920  0.00  0.00    +0.148 C 
BRANCH  13  14
ATOM     14  N   UNL     1      -1.806  -0.188  25.628  0.00  0.00    -0.184 NA
ATOM     15  C   UNL     1      -2.481  -0.575  25.906  0.00  0.00    +0.344 C 
ATOM     16  O   UNL     1      -2.454  -0.996  26.614  0.00  0.00    -0.249 OA
ATOM     17  N   UNL     1      -3.183  -0.539  25.473  0.00  0.00    -0.161 NA
BRANCH  17  18
ATOM     18  C   UNL     1      -3.211  -0.118  24.766  0.00  0.00    +0.076 A 
ATOM     19  C   UNL     1      -3.551   0.634  24.746  0.00  0.00    +0.028 A 
ATOM     20  C   UNL     1      -3.579   1.056  24.037  0.00  0.00    +0.059 A 
ATOM     21 CL   UNL     1      -3.919   1.807  24.017  0.00  0.00    -0.082 Cl
ATOM     22  C   UNL     1      -3.266   0.725  23.348  0.00  0.00    +0.011 A 
ATOM     23  C   UNL     1      -2.926  -0.025  23.368  0.00  0.00    +0.002 A 
ATOM     24  C   UNL     1      -2.899  -0.447  24.077  0.00  0.00    +0.017 A 
ENDBRANCH  17  18
ENDBRANCH  13  14
ENDBRANCH  12  13
TORSDOF 8
ENDMDL
