MODEL 1
REMARK VINA RESULT:     -14.5      0.000      0.000
REMARK  Name = 
REMARK  6 active torsions:
REMARK  status: ('A' for Active; 'I' for Inactive)
REMARK    1  A    between atoms: N_4  and  C_23
REMARK    2  A    between atoms: C_7  and  C_8
REMARK    3  A    between atoms: C_10  and  N_11
REMARK    4  A    between atoms: N_11  and  S_12
REMARK    5  A    between atoms: S_12  and  C_15
REMARK    6  A    between atoms: C_26  and  C_29
REMARK                            x       y       z     vdW  Elec       q    Type
REMARK                         _______ _______ _______ _____ _____    ______ ____
ROOT
ATOM      1  C   UNL     1      -5.850   1.615  25.591  0.00  0.00    +0.054 C 
ATOM      2  C   UNL     1      -5.221   1.177  25.284  0.00  0.00    +0.077 A 
ATOM      3  N   UNL     1      -5.180   0.355  25.238  0.00  0.00    -0.170 NA
ATOM      4  N   UNL     1      -4.456   0.155  24.895  0.00  0.00    -0.234 N 
ATOM      5  C   UNL     1      -4.050   0.854  24.730  0.00  0.00    +0.058 A 
ATOM      6  C   UNL     1      -3.303   0.911  24.385  0.00  0.00    +0.052 C 
ATOM      7  C   UNL     1      -4.523   1.486  24.971  0.00  0.00    +0.010 A 
ENDROOT
BRANCH   4  23
ATOM     23  C   UNL     1      -4.186  -0.610  24.744  0.00  0.00    +0.082 A 
ATOM     24  C   UNL     1      -4.360  -0.973  24.024  0.00  0.00    +0.019 A 
ATOM     25  C   UNL     1      -4.090  -1.739  23.873  0.00  0.00    +0.005 A 
ATOM     26  C   UNL     1      -3.646  -2.139  24.441  0.00  0.00    +0.072 A 
ATOM     27  C   UNL     1      -3.471  -1.775  25.161  0.00  0.00    +0.005 A 
ATOM     28  C   UNL     1      -3.742  -1.010  25.312  0.00  0.00    +0.019 A 
BRANCH  26  29
ATOM     29  C   UNL     1      -3.375  -2.904  24.290  0.00  0.00    +0.419 C 
ATOM     30  F   UNL     1      -3.104  -3.668  24.138  0.00  0.00    -0.166 F 
ATOM     31  F   UNL     1      -4.146  -3.191  24.363  0.00  0.00    -0.166 F 
ATOM     32  F   UNL     1      -2.606  -2.617  24.216  0.00  0.00    -0.166 F 
ENDBRANCH  26  29
ENDBRANCH   4  23
BRANCH   7   8
ATOM      8  C   UNL     1      -4.331   2.286  24.908  0.00  0.00    +0.048 C 
ATOM      9  C   UNL     1      -3.898   2.726  25.455  0.00  0.00    +0.033 C 
ATOM     10  C   UNL     1      -3.838   3.497  25.171  0.00  0.00    +0.120 C 
ATOM     21  C   UNL     1      -4.233   3.535  24.448  0.00  0.00    -0.011 C 
ATOM     22  C   UNL     1      -4.538   2.787  24.285  0.00  0.00    -0.025 C 
BRANCH  10  11
ATOM     11  N   UNL     1      -3.450   4.123  25.544  0.00  0.00    -0.075 NA
BRANCH  11  12
ATOM     12  S   UNL     1      -2.652   4.265  25.391  0.00  0.00    +0.077 S 
ATOM     13  O   UNL     1      -2.455   3.947  26.127  0.00  0.00    -0.152 OA
ATOM     14  O   UNL     1      -2.850   4.583  24.656  0.00  0.00    -0.152 OA
BRANCH  12  15
ATOM     15  C   UNL     1      -1.854   4.407  25.238  0.00  0.00    +0.124 A 
ATOM     16  C   UNL     1      -1.605   5.161  25.011  0.00  0.00    +0.020 A 
ATOM     17  C   UNL     1      -0.807   5.303  24.858  0.00  0.00    +0.001 A 
ATOM     18  C   UNL     1      -0.258   4.691  24.931  0.00  0.00    +0.000 A 
ATOM     19  C   UNL     1      -0.507   3.938  25.157  0.00  0.00    +0.001 A 
ATOM     20  C   UNL     1      -1.305   3.796  25.311  0.00  0.00    +0.020 A 
ENDBRANCH  12  15
ENDBRANCH  11  12
ENDBRANCH  10  11
ENDBRANCH   7   8
TORSDOF 6
ENDMDL
MODEL 2
REMARK VINA RESULT:     -13.0      3.240      5.674
REMARK  Name = 
REMARK  6 active torsions:
REMARK  status: ('A' for Active; 'I' for Inactive)
REMARK    1  A    between atoms: N_4  and  C_23
REMARK    2  A    between atoms: C_7  and  C_8
REMARK    3  A    between atoms: C_10  and  N_11
REMARK    4  A    between atoms: N_11  and  S_12
REMARK    5  A    between atoms: S_12  and  C_15
REMARK    6  A    between atoms: C_26  and  C_29
REMARK                            x       y       z     vdW  Elec       q    Type
REMARK                         _______ _______ _______ _____ _____    ______ ____
ROOT
ATOM      1  C   UNL     1      -5.370   2.289  25.610  0.00  0.00    +0.054 C 
ATOM      2  C   UNL     1      -4.587   2.426  25.386  0.00  0.00    +0.077 A 
ATOM      3  N   UNL     1      -4.183   3.141  25.451  0.00  0.00    -0.170 NA
ATOM      4  N   UNL     1      -3.417   3.028  25.163  0.00  0.00    -0.234 N 
ATOM      5  C   UNL     1      -3.349   2.242  24.921  0.00  0.00    +0.058 A 
ATOM      6  C   UNL     1      -2.676   1.891  24.597  0.00  0.00    +0.052 C 
ATOM      7  C   UNL     1      -4.073   1.869  25.059  0.00  0.00    +0.010 A 
ENDROOT
BRANCH   4  23
ATOM     23  C   UNL     1      -2.824   3.601  25.124  0.00  0.00    +0.082 A 
ATOM     24  C   UNL     1      -2.271   3.663  25.733  0.00  0.00    +0.019 A 
ATOM     25  C   UNL     1      -1.678   4.235  25.694  0.00  0.00    +0.005 A 
ATOM     26  C   UNL     1      -1.638   4.744  25.047  0.00  0.00    +0.072 A 
ATOM     27  C   UNL     1      -2.191   4.682  24.437  0.00  0.00    +0.005 A 
ATOM     28  C   UNL     1      -2.784   4.109  24.476  0.00  0.00    +0.019 A 
BRANCH  26  29
ATOM     29  C   UNL     1      -1.044   5.317  25.008  0.00  0.00    +0.419 C 
ATOM     30  F   UNL     1      -0.451   5.888  24.969  0.00  0.00    -0.166 F 
ATOM     31  F   UNL     1      -1.558   5.871  25.340  0.00  0.00    -0.166 F 
ATOM     32  F   UNL     1      -0.532   4.762  24.677  0.00  0.00    -0.166 F 
ENDBRANCH  26  29
ENDBRANCH   4  23
BRANCH   7   8
ATOM      8  C   UNL     1      -4.249   1.080  24.898  0.00  0.00    +0.048 C 
ATOM      9  C   UNL     1      -4.027   0.430  25.353  0.00  0.00    +0.033 C 
ATOM     10  C   UNL     1      -4.319  -0.249  24.989  0.00  0.00    +0.120 C 
ATOM     21  C   UNL     1      -4.722  -0.019  24.307  0.00  0.00    -0.011 C 
ATOM     22  C   UNL     1      -4.679   0.802  24.250  0.00  0.00    -0.025 C 
BRANCH  10  11
ATOM     11  N   UNL     1      -4.225  -1.024  25.258  0.00  0.00    -0.075 NA
BRANCH  11  12
ATOM     12  S   UNL     1      -3.559  -1.459  25.041  0.00  0.00    +0.077 S 
ATOM     13  O   UNL     1      -3.228  -1.321  25.784  0.00  0.00    -0.152 OA
ATOM     14  O   UNL     1      -3.890  -1.596  24.298  0.00  0.00    -0.152 OA
BRANCH  12  15
ATOM     15  C   UNL     1      -2.893  -1.894  24.824  0.00  0.00    +0.124 A 
ATOM     16  C   UNL     1      -2.977  -2.583  24.378  0.00  0.00    +0.020 A 
ATOM     17  C   UNL     1      -2.311  -3.018  24.161  0.00  0.00    +0.001 A 
ATOM     18  C   UNL     1      -1.560  -2.764  24.390  0.00  0.00    +0.000 A 
ATOM     19  C   UNL     1      -1.475  -2.076  24.836  0.00  0.00    +0.001 A 
ATOM     20  C   UNL     1      -2.142  -1.641  25.053  0.00  0.00    +0.020 A 
ENDBRANCH  12  15
ENDBRANCH  11  12
ENDBRANCH  10  11
ENDBRANCH   7   8
TORSDOF 6
ENDMDL
MODEL 3
REMARK VINA RESULT:     -12.1      3.713      6.337
REMARK  Name = 
REMARK  6 active torsions:
REMARK  status: ('A' for Active; 'I' for Inactive)
REMARK    1  A    between atoms: N_4  and  C_23
REMARK    2  A    between atoms: C_7  and  C_8
REMARK    3  A    between atoms: C_10  and  N_11
REMARK    4  A    between atoms: N_11  and  S_12
REMARK    5  A    between atoms: S_12  and  C_15
REMARK    6  A    between atoms: C_26  and  C_29
REMARK                            x       y       z     vdW  Elec       q    Type
REMARK                         _______ _______ _______ _____ _____    ______ ____
ROOT
ATOM      1  C   UNL     1      -0.174   0.430  23.343  0.00  0.00    +0.054 C 
ATOM      2  C   UNL     1      -0.482   0.956  23.901  0.00  0.00    +0.077 A 
ATOM      3  N   UNL     1      -0.495   1.777  23.837  0.00  0.00    -0.170 NA
ATOM      4  N   UNL     1      -0.853   2.080  24.517  0.00  0.00    -0.234 N 
ATOM      5  C   UNL     1      -1.060   1.445  25.000  0.00  0.00    +0.058 A 
ATOM      6  C   UNL     1      -1.431   1.496  25.736  0.00  0.00    +0.052 C 
ATOM      7  C   UNL     1      -0.831   0.749  24.620  0.00  0.00    +0.010 A 
ENDROOT
BRANCH   4  23
ATOM     23  C   UNL     1      -0.980   2.878  24.683  0.00  0.00    +0.082 A 
ATOM     24  C   UNL     1      -1.714   3.219  24.526  0.00  0.00    +0.019 A 
ATOM     25  C   UNL     1      -1.842   4.018  24.692  0.00  0.00    +0.005 A 
ATOM     26  C   UNL     1      -1.236   4.473  25.016  0.00  0.00    +0.072 A 
ATOM     27  C   UNL     1      -0.501   4.132  25.174  0.00  0.00    +0.005 A 
ATOM     28  C   UNL     1      -0.374   3.334  25.007  0.00  0.00    +0.019 A 
BRANCH  26  29
ATOM     29  C   UNL     1      -1.364   5.272  25.183  0.00  0.00    +0.419 C 
ATOM     30  F   UNL     1      -1.492   6.069  25.350  0.00  0.00    -0.166 F 
ATOM     31  F   UNL     1      -0.736   5.476  24.687  0.00  0.00    -0.166 F 
ATOM     32  F   UNL     1      -1.991   5.067  25.678  0.00  0.00    -0.166 F 
ENDBRANCH  26  29
ENDBRANCH   4  23
BRANCH   7   8
ATOM      8  C   UNL     1      -0.933  -0.017  24.908  0.00  0.00    +0.048 C 
ATOM      9  C   UNL     1      -1.651  -0.370  25.105  0.00  0.00    +0.033 C 
ATOM     10  C   UNL     1      -1.496  -1.135  25.369  0.00  0.00    +0.120 C 
ATOM     21  C   UNL     1      -0.681  -1.256  25.336  0.00  0.00    -0.011 C 
ATOM     22  C   UNL     1      -0.333  -0.565  25.052  0.00  0.00    -0.025 C 
BRANCH  10  11
ATOM     11  N   UNL     1      -2.057  -1.685  25.622  0.00  0.00    -0.075 NA
BRANCH  11  12
ATOM     12  S   UNL     1      -2.684  -1.893  25.128  0.00  0.00    +0.077 S 
ATOM     13  O   UNL     1      -3.196  -1.433  25.584  0.00  0.00    -0.152 OA
ATOM     14  O   UNL     1      -2.173  -2.353  24.672  0.00  0.00    -0.152 OA
BRANCH  12  15
ATOM     15  C   UNL     1      -3.311  -2.102  24.634  0.00  0.00    +0.124 A 
ATOM     16  C   UNL     1      -3.819  -1.519  24.343  0.00  0.00    +0.020 A 
ATOM     17  C   UNL     1      -4.446  -1.727  23.849  0.00  0.00    +0.001 A 
ATOM     18  C   UNL     1      -4.565  -2.518  23.646  0.00  0.00    +0.000 A 
ATOM     19  C   UNL     1      -4.058  -3.100  23.936  0.00  0.00    +0.001 A 
ATOM     20  C   UNL     1      -3.431  -2.892  24.430  0.00  0.00    +0.020 A 
ENDBRANCH  12  15
ENDBRANCH  11  12
ENDBRANCH  10  11
ENDBRANCH   7   8
TORSDOF 6
ENDMDL
MODEL 4
REMARK VINA RESULT:     -11.6      1.815      2.950
REMARK  Name = 
REMARK  6 active torsions:
REMARK  status: ('A' for Active; 'I' for Inactive)
REMARK    1  A    between atoms: N_4  and  C_23
REMARK    2  A    between atoms: C_7  and  C_8
REMARK    3  A    between atoms: C_10  and  N_11
REMARK    4  A    between atoms: N_11  and  S_12
REMARK    5  A    between atoms: S_12  and  C_15
REMARK    6  A    between atoms: C_26  and  C_29
REMARK                            x       y       z     vdW  Elec       q    Type
REMARK                         _______ _______ _______ _____ _____    ______ ____
ROOT
ATOM      1  C   UNL     1       0.247   0.579  23.880  0.00  0.00    +0.054 C 
ATOM      2  C   UNL     1      -0.440   0.276  24.224  0.00  0.00    +0.077 A 
ATOM      3  N   UNL     1      -0.771  -0.464  24.073  0.00  0.00    -0.170 NA
ATOM      4  N   UNL     1      -1.451  -0.537  24.535  0.00  0.00    -0.234 N 
ATOM      5  C   UNL     1      -1.539   0.158  24.971  0.00  0.00    +0.058 A 
ATOM      6  C   UNL     1      -2.147   0.321  25.505  0.00  0.00    +0.052 C 
ATOM      7  C   UNL     1      -0.914   0.661  24.778  0.00  0.00    +0.010 A 
ENDROOT
BRANCH   4  23
ATOM     23  C   UNL     1      -1.955  -1.191  24.557  0.00  0.00    +0.082 A 
ATOM     24  C   UNL     1      -2.730  -1.122  24.286  0.00  0.00    +0.019 A 
ATOM     25  C   UNL     1      -3.234  -1.776  24.309  0.00  0.00    +0.005 A 
ATOM     26  C   UNL     1      -2.962  -2.496  24.601  0.00  0.00    +0.072 A 
ATOM     27  C   UNL     1      -2.185  -2.565  24.873  0.00  0.00    +0.005 A 
ATOM     28  C   UNL     1      -1.682  -1.911  24.851  0.00  0.00    +0.019 A 
BRANCH  26  29
ATOM     29  C   UNL     1      -3.466  -3.150  24.624  0.00  0.00    +0.419 C 
ATOM     30  F   UNL     1      -3.969  -3.803  24.646  0.00  0.00    -0.166 F 
ATOM     31  F   UNL     1      -3.336  -3.277  23.818  0.00  0.00    -0.166 F 
ATOM     32  F   UNL     1      -3.595  -3.022  25.428  0.00  0.00    -0.166 F 
ENDBRANCH  26  29
ENDBRANCH   4  23
BRANCH   7   8
ATOM      8  C   UNL     1      -0.787   1.415  25.087  0.00  0.00    +0.048 C 
ATOM      9  C   UNL     1      -1.201   2.098  24.886  0.00  0.00    +0.033 C 
ATOM     10  C   UNL     1      -0.893   2.723  25.326  0.00  0.00    +0.120 C 
ATOM     21  C   UNL     1      -0.286   2.426  25.800  0.00  0.00    -0.011 C 
ATOM     22  C   UNL     1      -0.220   1.618  25.652  0.00  0.00    -0.025 C 
BRANCH  10  11
ATOM     11  N   UNL     1      -1.145   3.508  25.299  0.00  0.00    -0.075 NA
BRANCH  11  12
ATOM     12  S   UNL     1      -1.950   3.685  25.332  0.00  0.00    +0.077 S 
ATOM     13  O   UNL     1      -1.975   3.723  24.507  0.00  0.00    -0.152 OA
ATOM     14  O   UNL     1      -1.925   3.647  26.155  0.00  0.00    -0.152 OA
BRANCH  12  15
ATOM     15  C   UNL     1      -2.755   3.862  25.365  0.00  0.00    +0.124 A 
ATOM     16  C   UNL     1      -3.208   3.858  24.675  0.00  0.00    +0.020 A 
ATOM     17  C   UNL     1      -4.013   4.035  24.708  0.00  0.00    +0.001 A 
ATOM     18  C   UNL     1      -4.366   4.215  25.432  0.00  0.00    +0.000 A 
ATOM     19  C   UNL     1      -3.914   4.219  26.121  0.00  0.00    +0.001 A 
ATOM     20  C   UNL     1      -3.109   4.043  26.088  0.00  0.00    +0.020 A 
ENDBRANCH  12  15
ENDBRANCH  11  12
ENDBRANCH  10  11
ENDBRANCH   7   8
TORSDOF 6
ENDMDL
MODEL 5
REMARK VINA RESULT:     -11.1      3.333      5.734
REMARK  Name = 
REMARK  6 active torsions:
REMARK  status: ('A' for Active; 'I' for Inactive)
REMARK    1  A    between atoms: N_4  and  C_23
REMARK    2  A    between atoms: C_7  and  C_8
REMARK    3  A    between atoms: C_10  and  N_11
REMARK    4  A    between atoms: N_11  and  S_12
REMARK    5  A    between atoms: S_12  and  C_15
REMARK    6  A    between atoms: C_26  and  C_29
REMARK                            x       y       z     vdW  Elec       q    Type
REMARK                         _______ _______ _______ _____ _____    ______ ____
ROOT
ATOM      1  C   UNL     1      -0.547   2.679  25.563  0.00  0.00    +0.054 C 
ATOM      2  C   UNL     1      -1.350   2.588  25.393  0.00  0.00    +0.077 A 
ATOM      3  N   UNL     1      -1.941   3.145  25.533  0.00  0.00    -0.170 NA
ATOM      4  N   UNL     1      -2.658   2.825  25.279  0.00  0.00    -0.234 N 
ATOM      5  C   UNL     1      -2.509   2.070  24.982  0.00  0.00    +0.058 A 
ATOM      6  C   UNL     1      -3.071   1.552  24.669  0.00  0.00    +0.052 C 
ATOM      7  C   UNL     1      -1.700   1.923  25.052  0.00  0.00    +0.010 A 
ENDROOT
BRANCH   4  23
ATOM     23  C   UNL     1      -3.395   3.195  25.316  0.00  0.00    +0.082 A 
ATOM     24  C   UNL     1      -3.800   3.234  26.033  0.00  0.00    +0.019 A 
ATOM     25  C   UNL     1      -4.537   3.604  26.070  0.00  0.00    +0.005 A 
ATOM     26  C   UNL     1      -4.867   3.934  25.391  0.00  0.00    +0.072 A 
ATOM     27  C   UNL     1      -4.462   3.894  24.673  0.00  0.00    +0.005 A 
ATOM     28  C   UNL     1      -3.725   3.525  24.636  0.00  0.00    +0.019 A 
BRANCH  26  29
ATOM     29  C   UNL     1      -5.605   4.304  25.428  0.00  0.00    +0.419 C 
ATOM     30  F   UNL     1      -6.341   4.674  25.465  0.00  0.00    -0.166 F 
ATOM     31  F   UNL     1      -5.973   3.566  25.471  0.00  0.00    -0.166 F 
ATOM     32  F   UNL     1      -5.236   5.040  25.385  0.00  0.00    -0.166 F 
ENDBRANCH  26  29
ENDBRANCH   4  23
BRANCH   7   8
ATOM      8  C   UNL     1      -1.311   1.233  24.821  0.00  0.00    +0.048 C 
ATOM      9  C   UNL     1      -1.354   0.502  25.199  0.00  0.00    +0.033 C 
ATOM     10  C   UNL     1      -0.881  -0.029  24.783  0.00  0.00    +0.120 C 
ATOM     21  C   UNL     1      -0.544   0.374  24.146  0.00  0.00    -0.011 C 
ATOM     22  C   UNL     1      -0.810   1.154  24.170  0.00  0.00    -0.025 C 
BRANCH  10  11
ATOM     11  N   UNL     1      -0.763  -0.824  24.969  0.00  0.00    -0.075 NA
BRANCH  11  12
ATOM     12  S   UNL     1      -1.384  -1.362  24.894  0.00  0.00    +0.077 S 
ATOM     13  O   UNL     1      -1.225  -1.432  24.087  0.00  0.00    -0.152 OA
ATOM     14  O   UNL     1      -1.541  -1.293  25.701  0.00  0.00    -0.152 OA
BRANCH  12  15
ATOM     15  C   UNL     1      -2.004  -1.901  24.819  0.00  0.00    +0.124 A 
ATOM     16  C   UNL     1      -1.955  -2.513  24.268  0.00  0.00    +0.020 A 
ATOM     17  C   UNL     1      -2.575  -3.052  24.193  0.00  0.00    +0.001 A 
ATOM     18  C   UNL     1      -3.245  -2.977  24.669  0.00  0.00    +0.000 A 
ATOM     19  C   UNL     1      -3.295  -2.365  25.219  0.00  0.00    +0.001 A 
ATOM     20  C   UNL     1      -2.674  -1.827  25.294  0.00  0.00    +0.020 A 
ENDBRANCH  12  15
ENDBRANCH  11  12
ENDBRANCH  10  11
ENDBRANCH   7   8
TORSDOF 6
ENDMDL
