REMARK  Name = 
REMARK  8 active torsions:
REMARK  status: ('A' for Active; 'I' for Inactive)
REMARK    1  A    between atoms: C_2  and  C_4
REMARK    2  A    between atoms: C_6  and  C_7
REMARK    3  A    between atoms: C_7  and  C_8
REMARK    4  A    between atoms: C_18  and  C_19
REMARK    5  A    between atoms: C_19  and  N_20
REMARK    6  A    between atoms: N_20  and  S_21
REMARK    7  A    between atoms: S_21  and  C_24
REMARK    8  A    between atoms: C_27  and  N_28
REMARK                            x       y       z     vdW  Elec       q    Type
REMARK                         _______ _______ _______ _____ _____    ______ ____
ROOT
ATOM      4  C   UNL     1       2.143  -3.712   0.000  0.00  0.00    +0.006 C 
ATOM      5  C   UNL     1       2.143  -4.537   0.000  0.00  0.00    +0.005 C 
ATOM      6  C   UNL     1       1.429  -4.950   0.000  0.00  0.00    +0.027 C 
ATOM     15  C   UNL     1       0.715  -4.537   0.000  0.00  0.00    -0.048 C 
ATOM     16  C   UNL     1       0.000  -4.950   0.000  0.00  0.00    +0.026 C 
ATOM     17  C   UNL     1       0.715  -3.712   0.000  0.00  0.00    -0.033 C 
ATOM     18  C   UNL     1       1.429  -3.300   0.000  0.00  0.00    +0.041 C 
ENDROOT
BRANCH   4   2
ATOM      1  C   UNL     1       2.858  -2.475   0.000  0.00  0.00    +0.000 C 
ATOM      2  C   UNL     1       2.858  -3.300   0.000  0.00  0.00    +0.000 C 
ATOM      3  C   UNL     1       3.572  -3.712   0.000  0.00  0.00    +0.000 C 
ENDBRANCH   4   2
BRANCH   6   7
ATOM      7  C   UNL     1       1.429  -5.775   0.000  0.00  0.00    +0.089 C 
BRANCH   7   8
ATOM      8  C   UNL     1       0.715  -6.188   0.000  0.00  0.00    +0.226 C 
ATOM      9  O   UNL     1       0.000  -5.775   0.000  0.00  0.00    -0.275 OA
ATOM     10  N   UNL     1       0.715  -7.013   0.000  0.00  0.00    -0.280 N 
ATOM     11  C   UNL     1       1.382  -7.497   0.000  0.00  0.00    +0.093 C 
ATOM     12  C   UNL     1       1.127  -8.282   0.000  0.00  0.00    +0.023 C 
ATOM     13  C   UNL     1       0.302  -8.282   0.000  0.00  0.00    +0.023 C 
ATOM     14  C   UNL     1       0.047  -7.497   0.000  0.00  0.00    +0.093 C 
ENDBRANCH   7   8
ENDBRANCH   6   7
BRANCH  18  19
ATOM     19  C   UNL     1       1.429  -2.475   0.000  0.00  0.00    +0.120 C 
BRANCH  19  20
ATOM     20  N   UNL     1       0.715  -2.062   0.000  0.00  0.00    -0.077 NA
BRANCH  20  21
ATOM     21  S   UNL     1       0.715  -1.238   0.000  0.00  0.00    +0.077 S 
ATOM     22  O   UNL     1       1.540  -1.238   0.000  0.00  0.00    -0.152 OA
ATOM     23  O   UNL     1      -0.111  -1.238   0.000  0.00  0.00    -0.152 OA
BRANCH  21  24
ATOM     24  C   UNL     1       0.715  -0.412   0.000  0.00  0.00    +0.124 A 
ATOM     25  C   UNL     1       0.000   0.000   0.000  0.00  0.00    +0.021 A 
ATOM     26  C   UNL     1       0.000   0.825   0.000  0.00  0.00    +0.018 A 
ATOM     27  C   UNL     1       0.715   1.238   0.000  0.00  0.00    +0.073 A 
ATOM     32  C   UNL     1       1.429   0.825   0.000  0.00  0.00    +0.018 A 
ATOM     33  C   UNL     1       1.429   0.000   0.000  0.00  0.00    +0.021 A 
BRANCH  27  28
ATOM     28  N   UNL     1       0.715   2.062   0.000  0.00  0.00    -0.179 NA
ATOM     29  C   UNL     1       1.429   2.475   0.000  0.00  0.00    +0.246 C 
ATOM     30  C   UNL     1       1.429   3.300   0.000  0.00  0.00    +0.097 C 
ATOM     31  O   UNL     1       2.143   2.062   0.000  0.00  0.00    -0.273 OA
ENDBRANCH  27  28
ENDBRANCH  21  24
ENDBRANCH  20  21
ENDBRANCH  19  20
ENDBRANCH  18  19
TORSDOF 8
