MODEL 1
REMARK VINA RESULT:      -8.9      0.000      0.000
REMARK  Name = 
REMARK  2 active torsions:
REMARK  status: ('A' for Active; 'I' for Inactive)
REMARK    1  A    between atoms: N_6  and  C_7
REMARK    2  A    between atoms: C_7  and  C_8
REMARK                            x       y       z     vdW  Elec       q    Type
REMARK                         _______ _______ _______ _____ _____    ______ ____
ROOT
ATOM      1  C   UNL     1      -3.901   3.440  23.880  0.00  0.00    +0.117 C 
ATOM      2  N   UNL     1      -3.744   2.678  24.156  0.00  0.00    -0.261 N 
ATOM      3  C   UNL     1      -4.307   2.124  24.396  0.00  0.00    +0.116 C 
ATOM      4  C   UNL     1      -3.909   1.441  24.629  0.00  0.00    +0.113 C 
ATOM      5  C   UNL     1      -4.177   0.715  24.916  0.00  0.00    +0.094 C 
ATOM      6  N   UNL     1      -3.638   0.122  25.108  0.00  0.00    -0.266 NA
ATOM     14  C   UNL     1      -2.829   0.254  25.013  0.00  0.00    +0.094 C 
ATOM     15  C   UNL     1      -2.559   0.979  24.726  0.00  0.00    +0.112 C 
ATOM     16  N   UNL     1      -3.100   1.573  24.534  0.00  0.00    -0.261 N 
ATOM     17  C   UNL     1      -2.998   2.337  24.242  0.00  0.00    +0.307 C 
ATOM     18  O   UNL     1      -2.277   2.698  24.066  0.00  0.00    -0.252 OA
ENDROOT
BRANCH   6   7
ATOM      7  C   UNL     1      -3.906  -0.603  25.395  0.00  0.00    +0.101 C 
BRANCH   7   8
ATOM      8  C   UNL     1      -3.856  -1.278  24.924  0.00  0.00    +0.013 A 
ATOM      9  C   UNL     1      -3.336  -1.886  25.127  0.00  0.00    +0.000 A 
ATOM     10  C   UNL     1      -3.286  -2.561  24.656  0.00  0.00    +0.020 A 
ATOM     11  C   UNL     1      -3.755  -2.628  23.981  0.00  0.00    +0.099 A 
ATOM     12  N   UNL     1      -4.275  -2.021  23.777  0.00  0.00    -0.243 NA
ATOM     13  C   UNL     1      -4.325  -1.345  24.249  0.00  0.00    +0.096 A 
ENDBRANCH   7   8
ENDBRANCH   6   7
TORSDOF 2
ENDMDL
MODEL 2
REMARK VINA RESULT:      -8.8      1.147      1.835
REMARK  Name = 
REMARK  2 active torsions:
REMARK  status: ('A' for Active; 'I' for Inactive)
REMARK    1  A    between atoms: N_6  and  C_7
REMARK    2  A    between atoms: C_7  and  C_8
REMARK                            x       y       z     vdW  Elec       q    Type
REMARK                         _______ _______ _______ _____ _____    ______ ____
ROOT
ATOM      1  C   UNL     1       0.054   1.654  24.402  0.00  0.00    +0.117 C 
ATOM      2  N   UNL     1      -0.714   1.359  24.465  0.00  0.00    -0.261 N 
ATOM      3  C   UNL     1      -0.947   0.704  24.910  0.00  0.00    +0.116 C 
ATOM      4  C   UNL     1      -1.760   0.608  24.814  0.00  0.00    +0.113 C 
ATOM      5  C   UNL     1      -2.291   0.055  25.120  0.00  0.00    +0.094 C 
ATOM      6  N   UNL     1      -3.090   0.097  24.922  0.00  0.00    -0.266 NA
ATOM     14  C   UNL     1      -3.360   0.691  24.417  0.00  0.00    +0.094 C 
ATOM     15  C   UNL     1      -2.830   1.244  24.110  0.00  0.00    +0.112 C 
ATOM     16  N   UNL     1      -2.030   1.202  24.309  0.00  0.00    -0.261 N 
ATOM     17  C   UNL     1      -1.383   1.666  24.093  0.00  0.00    +0.307 C 
ATOM     18  O   UNL     1      -1.402   2.323  23.594  0.00  0.00    -0.252 OA
ENDROOT
BRANCH   6   7
ATOM      7  C   UNL     1      -3.621  -0.456  25.228  0.00  0.00    +0.101 C 
BRANCH   7   8
ATOM      8  C   UNL     1      -3.723  -1.183  24.852  0.00  0.00    +0.013 A 
ATOM      9  C   UNL     1      -3.382  -1.864  25.170  0.00  0.00    +0.000 A 
ATOM     10  C   UNL     1      -3.484  -2.590  24.795  0.00  0.00    +0.020 A 
ATOM     11  C   UNL     1      -3.927  -2.637  24.101  0.00  0.00    +0.099 A 
ATOM     12  N   UNL     1      -4.269  -1.958  23.782  0.00  0.00    -0.243 NA
ATOM     13  C   UNL     1      -4.167  -1.230  24.159  0.00  0.00    +0.096 A 
ENDBRANCH   7   8
ENDBRANCH   6   7
TORSDOF 2
ENDMDL
MODEL 3
REMARK VINA RESULT:      -8.6      1.435      3.843
REMARK  Name = 
REMARK  2 active torsions:
REMARK  status: ('A' for Active; 'I' for Inactive)
REMARK    1  A    between atoms: N_6  and  C_7
REMARK    2  A    between atoms: C_7  and  C_8
REMARK                            x       y       z     vdW  Elec       q    Type
REMARK                         _______ _______ _______ _____ _____    ______ ____
ROOT
ATOM      1  C   UNL     1      -3.411  -2.488  24.896  0.00  0.00    +0.117 C 
ATOM      2  N   UNL     1      -3.384  -1.668  24.809  0.00  0.00    -0.261 N 
ATOM      3  C   UNL     1      -3.982  -1.193  24.495  0.00  0.00    +0.116 C 
ATOM      4  C   UNL     1      -3.722  -0.411  24.512  0.00  0.00    +0.113 C 
ATOM      5  C   UNL     1      -4.077   0.295  24.274  0.00  0.00    +0.094 C 
ATOM      6  N   UNL     1      -3.675   1.009  24.361  0.00  0.00    -0.266 NA
ATOM     14  C   UNL     1      -2.917   1.018  24.686  0.00  0.00    +0.094 C 
ATOM     15  C   UNL     1      -2.561   0.313  24.924  0.00  0.00    +0.112 C 
ATOM     16  N   UNL     1      -2.964  -0.402  24.837  0.00  0.00    -0.261 N 
ATOM     17  C   UNL     1      -2.755  -1.178  25.020  0.00  0.00    +0.307 C 
ATOM     18  O   UNL     1      -2.042  -1.423  25.356  0.00  0.00    -0.252 OA
ENDROOT
BRANCH   6   7
ATOM      7  C   UNL     1      -4.030   1.715  24.123  0.00  0.00    +0.101 C 
BRANCH   7   8
ATOM      8  C   UNL     1      -4.456   2.166  24.666  0.00  0.00    +0.013 A 
ATOM      9  C   UNL     1      -5.263   2.032  24.773  0.00  0.00    +0.000 A 
ATOM     10  C   UNL     1      -5.689   2.483  25.316  0.00  0.00    +0.020 A 
ATOM     11  C   UNL     1      -5.307   3.070  25.753  0.00  0.00    +0.099 A 
ATOM     12  N   UNL     1      -4.500   3.205  25.648  0.00  0.00    -0.243 NA
ATOM     13  C   UNL     1      -4.074   2.753  25.104  0.00  0.00    +0.096 A 
ENDBRANCH   7   8
ENDBRANCH   6   7
TORSDOF 2
ENDMDL
MODEL 4
REMARK VINA RESULT:      -8.6      3.132      3.887
REMARK  Name = 
REMARK  2 active torsions:
REMARK  status: ('A' for Active; 'I' for Inactive)
REMARK    1  A    between atoms: N_6  and  C_7
REMARK    2  A    between atoms: C_7  and  C_8
REMARK                            x       y       z     vdW  Elec       q    Type
REMARK                         _______ _______ _______ _____ _____    ______ ____
ROOT
ATOM      1  C   UNL     1       0.096   1.970  24.564  0.00  0.00    +0.117 C 
ATOM      2  N   UNL     1      -0.624   2.347  24.708  0.00  0.00    -0.261 N 
ATOM      3  C   UNL     1      -1.305   2.285  24.245  0.00  0.00    +0.116 C 
ATOM      4  C   UNL     1      -1.890   2.752  24.591  0.00  0.00    +0.113 C 
ATOM      5  C   UNL     1      -2.673   2.904  24.379  0.00  0.00    +0.094 C 
ATOM      6  N   UNL     1      -3.136   3.406  24.840  0.00  0.00    -0.266 NA
ATOM     14  C   UNL     1      -2.817   3.756  25.516  0.00  0.00    +0.094 C 
ATOM     15  C   UNL     1      -2.035   3.605  25.729  0.00  0.00    +0.112 C 
ATOM     16  N   UNL     1      -1.571   3.103  25.266  0.00  0.00    -0.261 N 
ATOM     17  C   UNL     1      -0.789   2.853  25.338  0.00  0.00    +0.307 C 
ATOM     18  O   UNL     1      -0.263   3.070  25.936  0.00  0.00    -0.252 OA
ENDROOT
BRANCH   6   7
ATOM      7  C   UNL     1      -3.919   3.557  24.628  0.00  0.00    +0.101 C 
BRANCH   7   8
ATOM      8  C   UNL     1      -4.531   3.118  24.964  0.00  0.00    +0.013 A 
ATOM      9  C   UNL     1      -4.805   2.437  24.588  0.00  0.00    +0.000 A 
ATOM     10  C   UNL     1      -5.417   1.998  24.923  0.00  0.00    +0.020 A 
ATOM     11  C   UNL     1      -5.755   2.240  25.636  0.00  0.00    +0.099 A 
ATOM     12  N   UNL     1      -5.481   2.921  26.013  0.00  0.00    -0.243 NA
ATOM     13  C   UNL     1      -4.869   3.360  25.676  0.00  0.00    +0.096 A 
ENDBRANCH   7   8
ENDBRANCH   6   7
TORSDOF 2
ENDMDL
MODEL 5
REMARK VINA RESULT:      -8.5      3.000      3.994
REMARK  Name = 
REMARK  2 active torsions:
REMARK  status: ('A' for Active; 'I' for Inactive)
REMARK    1  A    between atoms: N_6  and  C_7
REMARK    2  A    between atoms: C_7  and  C_8
REMARK                            x       y       z     vdW  Elec       q    Type
REMARK                         _______ _______ _______ _____ _____    ______ ____
ROOT
ATOM      1  C   UNL     1      -6.001   1.892  25.015  0.00  0.00    +0.117 C 
ATOM      2  N   UNL     1      -5.272   2.276  25.057  0.00  0.00    -0.261 N 
ATOM      3  C   UNL     1      -4.610   2.113  24.591  0.00  0.00    +0.116 C 
ATOM      4  C   UNL     1      -4.007   2.627  24.818  0.00  0.00    +0.113 C 
ATOM      5  C   UNL     1      -3.231   2.721  24.551  0.00  0.00    +0.094 C 
ATOM      6  N   UNL     1      -2.745   3.293  24.890  0.00  0.00    -0.266 NA
ATOM     14  C   UNL     1      -3.033   3.774  25.496  0.00  0.00    +0.094 C 
ATOM     15  C   UNL     1      -3.808   3.681  25.763  0.00  0.00    +0.112 C 
ATOM     16  N   UNL     1      -4.295   3.107  25.424  0.00  0.00    -0.261 N 
ATOM     17  C   UNL     1      -5.077   2.890  25.571  0.00  0.00    +0.307 C 
ATOM     18  O   UNL     1      -5.576   3.228  26.135  0.00  0.00    -0.252 OA
ENDROOT
BRANCH   6   7
ATOM      7  C   UNL     1      -1.969   3.387  24.624  0.00  0.00    +0.101 C 
BRANCH   7   8
ATOM      8  C   UNL     1      -1.356   2.967  24.981  0.00  0.00    +0.013 A 
ATOM      9  C   UNL     1      -0.977   3.275  25.646  0.00  0.00    +0.000 A 
ATOM     10  C   UNL     1      -0.364   2.856  26.003  0.00  0.00    +0.020 A 
ATOM     11  C   UNL     1      -0.130   2.126  25.696  0.00  0.00    +0.099 A 
ATOM     12  N   UNL     1      -0.509   1.817  25.032  0.00  0.00    -0.243 NA
ATOM     13  C   UNL     1      -1.123   2.238  24.674  0.00  0.00    +0.096 A 
ENDBRANCH   7   8
ENDBRANCH   6   7
TORSDOF 2
ENDMDL
MODEL 6
REMARK VINA RESULT:      -7.2     18.679     19.918
REMARK  Name = 
REMARK  2 active torsions:
REMARK  status: ('A' for Active; 'I' for Inactive)
REMARK    1  A    between atoms: N_6  and  C_7
REMARK    2  A    between atoms: C_7  and  C_8
REMARK                            x       y       z     vdW  Elec       q    Type
REMARK                         _______ _______ _______ _____ _____    ______ ____
ROOT
ATOM      1  C   UNL     1      11.792   6.709  21.564  0.00  0.00    +0.117 C 
ATOM      2  N   UNL     1      12.408   6.852  21.034  0.00  0.00    -0.261 N 
ATOM      3  C   UNL     1      13.181   7.060  21.235  0.00  0.00    +0.116 C 
ATOM      4  C   UNL     1      13.610   7.147  20.536  0.00  0.00    +0.113 C 
ATOM      5  C   UNL     1      14.398   7.347  20.393  0.00  0.00    +0.094 C 
ATOM      6  N   UNL     1      14.678   7.394  19.619  0.00  0.00    -0.266 NA
ATOM     14  C   UNL     1      14.170   7.240  18.987  0.00  0.00    +0.094 C 
ATOM     15  C   UNL     1      13.383   7.040  19.129  0.00  0.00    +0.112 C 
ATOM     16  N   UNL     1      13.103   6.994  19.904  0.00  0.00    -0.261 N 
ATOM     17  C   UNL     1      12.360   6.811  20.212  0.00  0.00    +0.307 C 
ATOM     18  O   UNL     1      11.686   6.621  19.774  0.00  0.00    -0.252 OA
ENDROOT
BRANCH   6   7
ATOM      7  C   UNL     1      15.465   7.594  19.475  0.00  0.00    +0.101 C 
BRANCH   7   8
ATOM      8  C   UNL     1      16.044   7.007  19.459  0.00  0.00    +0.013 A 
ATOM      9  C   UNL     1      16.605   6.962  20.063  0.00  0.00    +0.000 A 
ATOM     10  C   UNL     1      17.183   6.375  20.046  0.00  0.00    +0.020 A 
ATOM     11  C   UNL     1      17.202   5.832  19.425  0.00  0.00    +0.099 A 
ATOM     12  N   UNL     1      16.642   5.876  18.821  0.00  0.00    -0.243 NA
ATOM     13  C   UNL     1      16.063   6.464  18.838  0.00  0.00    +0.096 A 
ENDBRANCH   7   8
ENDBRANCH   6   7
TORSDOF 2
ENDMDL
MODEL 7
REMARK VINA RESULT:      -7.0     17.354     18.722
REMARK  Name = 
REMARK  2 active torsions:
REMARK  status: ('A' for Active; 'I' for Inactive)
REMARK    1  A    between atoms: N_6  and  C_7
REMARK    2  A    between atoms: C_7  and  C_8
REMARK                            x       y       z     vdW  Elec       q    Type
REMARK                         _______ _______ _______ _____ _____    ______ ____
ROOT
ATOM      1  C   UNL     1      15.997   6.945  19.585  0.00  0.00    +0.117 C 
ATOM      2  N   UNL     1      15.175   6.953  19.660  0.00  0.00    -0.261 N 
ATOM      3  C   UNL     1      14.749   6.800  20.350  0.00  0.00    +0.116 C 
ATOM      4  C   UNL     1      13.947   6.868  20.175  0.00  0.00    +0.113 C 
ATOM      5  C   UNL     1      13.270   6.777  20.638  0.00  0.00    +0.094 C 
ATOM      6  N   UNL     1      12.524   6.882  20.304  0.00  0.00    -0.266 NA
ATOM     14  C   UNL     1      12.453   7.077  19.506  0.00  0.00    +0.094 C 
ATOM     15  C   UNL     1      13.129   7.168  19.042  0.00  0.00    +0.112 C 
ATOM     16  N   UNL     1      13.876   7.063  19.376  0.00  0.00    -0.261 N 
ATOM     17  C   UNL     1      14.635   7.116  19.059  0.00  0.00    +0.307 C 
ATOM     18  O   UNL     1      14.822   7.300  18.276  0.00  0.00    -0.252 OA
ENDROOT
BRANCH   6   7
ATOM      7  C   UNL     1      11.847   6.791  20.768  0.00  0.00    +0.101 C 
BRANCH   7   8
ATOM      8  C   UNL     1      11.524   7.441  21.159  0.00  0.00    +0.013 A 
ATOM      9  C   UNL     1      11.004   7.944  20.764  0.00  0.00    +0.000 A 
ATOM     10  C   UNL     1      10.681   8.594  21.156  0.00  0.00    +0.020 A 
ATOM     11  C   UNL     1      10.879   8.741  21.943  0.00  0.00    +0.099 A 
ATOM     12  N   UNL     1      11.399   8.239  22.339  0.00  0.00    -0.243 NA
ATOM     13  C   UNL     1      11.722   7.588  21.947  0.00  0.00    +0.096 A 
ENDBRANCH   7   8
ENDBRANCH   6   7
TORSDOF 2
ENDMDL
MODEL 8
REMARK VINA RESULT:      -6.9     16.799     18.071
REMARK  Name = 
REMARK  2 active torsions:
REMARK  status: ('A' for Active; 'I' for Inactive)
REMARK    1  A    between atoms: N_6  and  C_7
REMARK    2  A    between atoms: C_7  and  C_8
REMARK                            x       y       z     vdW  Elec       q    Type
REMARK                         _______ _______ _______ _____ _____    ______ ____
ROOT
ATOM      1  C   UNL     1      12.170   9.083  16.847  0.00  0.00    +0.117 C 
ATOM      2  N   UNL     1      12.302   8.660  17.543  0.00  0.00    -0.261 N 
ATOM      3  C   UNL     1      12.101   8.905  18.305  0.00  0.00    +0.116 C 
ATOM      4  C   UNL     1      12.333   8.314  18.832  0.00  0.00    +0.113 C 
ATOM      5  C   UNL     1      12.275   8.252  19.652  0.00  0.00    +0.094 C 
ATOM      6  N   UNL     1      12.561   7.581  20.037  0.00  0.00    -0.266 NA
ATOM     14  C   UNL     1      12.905   6.971  19.601  0.00  0.00    +0.094 C 
ATOM     15  C   UNL     1      12.964   7.032  18.780  0.00  0.00    +0.112 C 
ATOM     16  N   UNL     1      12.677   7.704  18.395  0.00  0.00    -0.261 N 
ATOM     17  C   UNL     1      12.658   7.918  17.599  0.00  0.00    +0.307 C 
ATOM     18  O   UNL     1      12.945   7.469  16.969  0.00  0.00    -0.252 OA
ENDROOT
BRANCH   6   7
ATOM      7  C   UNL     1      12.503   7.519  20.858  0.00  0.00    +0.101 C 
BRANCH   7   8
ATOM      8  C   UNL     1      11.829   7.191  21.200  0.00  0.00    +0.013 A 
ATOM      9  C   UNL     1      11.767   6.372  21.288  0.00  0.00    +0.000 A 
ATOM     10  C   UNL     1      11.093   6.044  21.631  0.00  0.00    +0.020 A 
ATOM     11  C   UNL     1      10.480   6.534  21.887  0.00  0.00    +0.099 A 
ATOM     12  N   UNL     1      10.541   7.352  21.799  0.00  0.00    -0.243 NA
ATOM     13  C   UNL     1      11.217   7.680  21.456  0.00  0.00    +0.096 A 
ENDBRANCH   7   8
ENDBRANCH   6   7
TORSDOF 2
ENDMDL
MODEL 9
REMARK VINA RESULT:      -6.7     18.550     19.781
REMARK  Name = 
REMARK  2 active torsions:
REMARK  status: ('A' for Active; 'I' for Inactive)
REMARK    1  A    between atoms: N_6  and  C_7
REMARK    2  A    between atoms: C_7  and  C_8
REMARK                            x       y       z     vdW  Elec       q    Type
REMARK                         _______ _______ _______ _____ _____    ______ ____
ROOT
ATOM      1  C   UNL     1      17.149   5.912  19.059  0.00  0.00    +0.117 C 
ATOM      2  N   UNL     1      16.520   6.263  19.462  0.00  0.00    -0.261 N 
ATOM      3  C   UNL     1      15.800   6.493  19.132  0.00  0.00    +0.116 C 
ATOM      4  C   UNL     1      15.336   6.817  19.731  0.00  0.00    +0.113 C 
ATOM      5  C   UNL     1      14.575   7.136  19.730  0.00  0.00    +0.094 C 
ATOM      6  N   UNL     1      14.248   7.425  20.429  0.00  0.00    -0.266 NA
ATOM     14  C   UNL     1      14.682   7.397  21.131  0.00  0.00    +0.094 C 
ATOM     15  C   UNL     1      15.443   7.079  21.133  0.00  0.00    +0.112 C 
ATOM     16  N   UNL     1      15.770   6.789  20.433  0.00  0.00    -0.261 N 
ATOM     17  C   UNL     1      16.502   6.446  20.266  0.00  0.00    +0.307 C 
ATOM     18  O   UNL     1      17.109   6.311  20.809  0.00  0.00    -0.252 OA
ENDROOT
BRANCH   6   7
ATOM      7  C   UNL     1      13.487   7.744  20.429  0.00  0.00    +0.101 C 
BRANCH   7   8
ATOM      8  C   UNL     1      12.843   7.277  20.647  0.00  0.00    +0.013 A 
ATOM      9  C   UNL     1      12.604   7.246  21.436  0.00  0.00    +0.000 A 
ATOM     10  C   UNL     1      11.961   6.779  21.655  0.00  0.00    +0.020 A 
ATOM     11  C   UNL     1      11.556   6.342  21.085  0.00  0.00    +0.099 A 
ATOM     12  N   UNL     1      11.794   6.372  20.295  0.00  0.00    -0.243 NA
ATOM     13  C   UNL     1      12.438   6.840  20.077  0.00  0.00    +0.096 A 
ENDBRANCH   7   8
ENDBRANCH   6   7
TORSDOF 2
ENDMDL
MODEL 10
REMARK VINA RESULT:      -6.6     16.979     18.411
REMARK  Name = 
REMARK  2 active torsions:
REMARK  status: ('A' for Active; 'I' for Inactive)
REMARK    1  A    between atoms: N_6  and  C_7
REMARK    2  A    between atoms: C_7  and  C_8
REMARK                            x       y       z     vdW  Elec       q    Type
REMARK                         _______ _______ _______ _____ _____    ______ ____
ROOT
ATOM      1  C   UNL     1      10.280   7.222  22.027  0.00  0.00    +0.117 C 
ATOM      2  N   UNL     1      10.909   7.245  21.494  0.00  0.00    -0.261 N 
ATOM      3  C   UNL     1      11.205   7.920  21.122  0.00  0.00    +0.116 C 
ATOM      4  C   UNL     1      11.830   7.690  20.637  0.00  0.00    +0.113 C 
ATOM      5  C   UNL     1      12.330   8.117  20.139  0.00  0.00    +0.094 C 
ATOM      6  N   UNL     1      12.920   7.729  19.713  0.00  0.00    -0.266 NA
ATOM     14  C   UNL     1      13.011   6.913  19.785  0.00  0.00    +0.094 C 
ATOM     15  C   UNL     1      12.512   6.484  20.283  0.00  0.00    +0.112 C 
ATOM     16  N   UNL     1      11.921   6.873  20.709  0.00  0.00    -0.261 N 
ATOM     17  C   UNL     1      11.352   6.598  21.238  0.00  0.00    +0.307 C 
ATOM     18  O   UNL     1      11.244   5.814  21.472  0.00  0.00    -0.252 OA
ENDROOT
BRANCH   6   7
ATOM      7  C   UNL     1      13.419   8.157  19.214  0.00  0.00    +0.101 C 
BRANCH   7   8
ATOM      8  C   UNL     1      13.213   8.274  18.425  0.00  0.00    +0.013 A 
ATOM      9  C   UNL     1      12.849   8.977  18.192  0.00  0.00    +0.000 A 
ATOM     10  C   UNL     1      12.643   9.094  17.403  0.00  0.00    +0.020 A 
ATOM     11  C   UNL     1      12.802   8.508  16.844  0.00  0.00    +0.099 A 
ATOM     12  N   UNL     1      13.166   7.805  17.075  0.00  0.00    -0.243 NA
ATOM     13  C   UNL     1      13.372   7.688  17.866  0.00  0.00    +0.096 A 
ENDBRANCH   7   8
ENDBRANCH   6   7
TORSDOF 2
ENDMDL
