REMARK  Name = 
REMARK  7 active torsions:
REMARK  status: ('A' for Active; 'I' for Inactive)
REMARK    1  A    between atoms: C_6  and  N_26
REMARK    2  A    between atoms: C_8  and  C_9
REMARK    3  A    between atoms: N_11  and  C_12
REMARK    4  A    between atoms: C_12  and  C_13
REMARK    5  A    between atoms: C_12  and  C_23
REMARK    6  A    between atoms: C_13  and  C_14
REMARK    7  A    between atoms: N_29  and  C_30
REMARK                            x       y       z     vdW  Elec       q    Type
REMARK                         _______ _______ _______ _____ _____    ______ ____
ROOT
ATOM      1  C   UNL     1      -2.529   2.058   0.000  0.00  0.00    +0.095 C 
ATOM      2  C   UNL     1      -2.615   2.878   0.000  0.00  0.00    +0.226 C 
ATOM      3  O   UNL     1      -3.369   3.214   0.000  0.00  0.00    -0.275 OA
ATOM      4  N   UNL     1      -1.948   3.363   0.000  0.00  0.00    -0.271 N 
ATOM      5  C   UNL     1      -1.948   4.188   0.000  0.00  0.00    +0.115 C 
ATOM      6  C   UNL     1      -1.163   4.443   0.000  0.00  0.00    +0.119 C 
ATOM      7  C   UNL     1      -0.678   3.775   0.000  0.00  0.00    +0.053 C 
ATOM      8  C   UNL     1      -1.163   3.108   0.000  0.00  0.00    +0.155 C 
ENDROOT
BRANCH   6  26
ATOM     26  N   UNL     1      -0.908   5.228   0.000  0.00  0.00    -0.187 NA
ATOM     27  C   UNL     1      -0.101   5.399   0.000  0.00  0.00    +0.344 C 
ATOM     28  O   UNL     1       0.451   4.786   0.000  0.00  0.00    -0.249 OA
ATOM     29  N   UNL     1       0.154   6.184   0.000  0.00  0.00    -0.159 NA
BRANCH  29  30
ATOM     30  C   UNL     1      -0.398   6.797   0.000  0.00  0.00    +0.102 A 
ATOM     31  C   UNL     1      -1.205   6.625   0.000  0.00  0.00    +0.158 A 
ATOM     32  F   UNL     1      -1.460   5.841   0.000  0.00  0.00    -0.203 F 
ATOM     33  C   UNL     1      -1.758   7.238   0.000  0.00  0.00    +0.061 A 
ATOM     34  C   UNL     1      -1.502   8.023   0.000  0.00  0.00    +0.142 A 
ATOM     35  F   UNL     1      -2.054   8.636   0.000  0.00  0.00    -0.204 F 
ATOM     36  C   UNL     1      -0.696   8.194   0.000  0.00  0.00    +0.031 A 
ATOM     37  C   UNL     1      -0.143   7.581   0.000  0.00  0.00    +0.021 A 
ENDBRANCH  29  30
ENDBRANCH   6  26
BRANCH   8   9
ATOM      9  C   UNL     1      -0.908   2.323   0.000  0.00  0.00    +0.260 C 
ATOM     10  O   UNL     1      -0.101   2.152   0.000  0.00  0.00    -0.272 OA
ATOM     11  N   UNL     1      -1.460   1.710   0.000  0.00  0.00    -0.196 NA
BRANCH  11  12
ATOM     12  C   UNL     1      -1.205   0.926   0.000  0.00  0.00    +0.179 C 
BRANCH  12  23
ATOM     23  C   UNL     1      -1.758   0.313   0.000  0.00  0.00    +0.281 C 
ATOM     24  N   UNL     1      -2.564   0.484   0.000  0.00  0.00    -0.086 NA
ATOM     25  O   UNL     1      -1.502  -0.472   0.000  0.00  0.00    -0.270 OA
ENDBRANCH  12  23
BRANCH  12  13
ATOM     13  C   UNL     1      -0.398   0.754   0.000  0.00  0.00    +0.059 C 
BRANCH  13  14
ATOM     14  C   UNL     1      -0.143  -0.030   0.000  0.00  0.00    +0.001 A 
ATOM     15  C   UNL     1      -0.628  -0.698   0.000  0.00  0.00    +0.095 A 
ATOM     16  N   UNL     1      -0.143  -1.365   0.000  0.00  0.00    -0.244 NA
ATOM     17  C   UNL     1       0.641  -1.110   0.000  0.00  0.00    +0.081 A 
ATOM     18  C   UNL     1       0.641  -0.285   0.000  0.00  0.00    +0.015 A 
ATOM     19  C   UNL     1       1.356   0.127   0.000  0.00  0.00    +0.001 A 
ATOM     20  C   UNL     1       2.070  -0.285   0.000  0.00  0.00    +0.000 A 
ATOM     21  C   UNL     1       2.070  -1.110   0.000  0.00  0.00    +0.002 A 
ATOM     22  C   UNL     1       1.356  -1.523   0.000  0.00  0.00    +0.019 A 
ENDBRANCH  13  14
ENDBRANCH  12  13
ENDBRANCH  11  12
ENDBRANCH   8   9
TORSDOF 7
