MODEL 1
REMARK VINA RESULT:     -11.5      0.000      0.000
REMARK  Name = 
REMARK  4 active torsions:
REMARK  status: ('A' for Active; 'I' for Inactive)
REMARK    1  A    between atoms: O_2  and  C_3
REMARK    2  A    between atoms: C_6  and  C_7
REMARK    3  A    between atoms: C_7  and  N_8
REMARK    4  A    between atoms: N_20  and  C_21
REMARK                            x       y       z     vdW  Elec       q    Type
REMARK                         _______ _______ _______ _____ _____    ______ ____
ROOT
ATOM      8  N   UNL     1      -3.804   3.423  25.587  0.00  0.00    -0.258 N 
ATOM      9  C   UNL     1      -3.433   2.692  25.490  0.00  0.00    +0.117 C 
ATOM     10  C   UNL     1      -4.009   2.140  25.284  0.00  0.00    +0.117 C 
ATOM     11  C   UNL     1      -3.967   1.332  25.121  0.00  0.00    +0.117 C 
ATOM     12  N   UNL     1      -4.650   0.914  24.926  0.00  0.00    -0.259 N 
ATOM     13  C   UNL     1      -5.377   1.303  24.896  0.00  0.00    +0.117 C 
ATOM     14  C   UNL     1      -5.421   2.110  25.059  0.00  0.00    +0.117 C 
ATOM     15  N   UNL     1      -4.736   2.529  25.254  0.00  0.00    -0.261 N 
ATOM     16  C   UNL     1      -4.609   3.322  25.441  0.00  0.00    +0.308 C 
ATOM     17  O   UNL     1      -5.186   3.911  25.475  0.00  0.00    -0.252 OA
ATOM     18  C   UNL     1      -4.608   0.106  24.763  0.00  0.00    +0.328 C 
ATOM     19  O   UNL     1      -5.291  -0.312  24.569  0.00  0.00    -0.250 OA
ATOM     20  N   UNL     1      -3.881  -0.283  24.793  0.00  0.00    -0.162 NA
ENDROOT
BRANCH  20  21
ATOM     21  C   UNL     1      -3.838  -1.090  24.630  0.00  0.00    +0.075 A 
ATOM     22  C   UNL     1      -4.083  -1.377  23.896  0.00  0.00    +0.019 A 
ATOM     23  C   UNL     1      -4.039  -2.185  23.734  0.00  0.00    +0.031 A 
ATOM     24  C   UNL     1      -3.750  -2.705  24.304  0.00  0.00    +0.140 A 
ATOM     25  F   UNL     1      -3.706  -3.513  24.141  0.00  0.00    -0.204 F 
ATOM     26  C   UNL     1      -3.505  -2.419  25.038  0.00  0.00    +0.031 A 
ATOM     27  C   UNL     1      -3.549  -1.611  25.201  0.00  0.00    +0.019 A 
ENDBRANCH  20  21
BRANCH   8   7
ATOM      7  C   UNL     1      -3.434   4.131  25.794  0.00  0.00    +0.122 C 
BRANCH   7   6
ATOM      3  C   UNL     1      -1.114   4.577  25.057  0.00  0.00    +0.139 A 
ATOM      4  C   UNL     1      -1.253   4.088  25.706  0.00  0.00    +0.037 A 
ATOM      5  C   UNL     1      -2.027   3.939  25.952  0.00  0.00    +0.001 A 
ATOM      6  C   UNL     1      -2.660   4.280  25.549  0.00  0.00    -0.002 A 
ATOM     28  C   UNL     1      -2.521   4.770  24.899  0.00  0.00    +0.001 A 
ATOM     29  C   UNL     1      -1.747   4.918  24.654  0.00  0.00    +0.037 A 
BRANCH   3   2
ATOM      1  C   UNL     1       0.002   4.263  24.222  0.00  0.00    +0.252 C 
ATOM      2  O   UNL     1      -0.340   4.727  24.811  0.00  0.00    -0.471 OA
ENDBRANCH   3   2
ENDBRANCH   7   6
ENDBRANCH   8   7
TORSDOF 4
ENDMDL
MODEL 2
REMARK VINA RESULT:     -11.5      2.227      5.538
REMARK  Name = 
REMARK  4 active torsions:
REMARK  status: ('A' for Active; 'I' for Inactive)
REMARK    1  A    between atoms: O_2  and  C_3
REMARK    2  A    between atoms: C_6  and  C_7
REMARK    3  A    between atoms: C_7  and  N_8
REMARK    4  A    between atoms: N_20  and  C_21
REMARK                            x       y       z     vdW  Elec       q    Type
REMARK                         _______ _______ _______ _____ _____    ______ ____
ROOT
ATOM      8  N   UNL     1      -4.427   0.231  25.029  0.00  0.00    -0.258 N 
ATOM      9  C   UNL     1      -3.700   0.613  25.112  0.00  0.00    +0.117 C 
ATOM     10  C   UNL     1      -3.808   1.409  24.929  0.00  0.00    +0.117 C 
ATOM     11  C   UNL     1      -3.287   2.049  24.915  0.00  0.00    +0.117 C 
ATOM     12  N   UNL     1      -3.559   2.799  24.705  0.00  0.00    -0.259 N 
ATOM     13  C   UNL     1      -4.352   2.910  24.509  0.00  0.00    +0.117 C 
ATOM     14  C   UNL     1      -4.874   2.271  24.522  0.00  0.00    +0.117 C 
ATOM     15  N   UNL     1      -4.602   1.520  24.732  0.00  0.00    -0.261 N 
ATOM     16  C   UNL     1      -4.984   0.793  24.794  0.00  0.00    +0.308 C 
ATOM     17  O   UNL     1      -5.784   0.650  24.647  0.00  0.00    -0.252 OA
ATOM     18  C   UNL     1      -3.037   3.438  24.691  0.00  0.00    +0.328 C 
ATOM     19  O   UNL     1      -3.309   4.188  24.482  0.00  0.00    -0.250 OA
ATOM     20  N   UNL     1      -2.244   3.327  24.888  0.00  0.00    -0.162 NA
ENDROOT
BRANCH  20  21
ATOM     21  C   UNL     1      -1.722   3.966  24.874  0.00  0.00    +0.075 A 
ATOM     22  C   UNL     1      -1.923   4.672  25.252  0.00  0.00    +0.019 A 
ATOM     23  C   UNL     1      -1.400   5.310  25.237  0.00  0.00    +0.031 A 
ATOM     24  C   UNL     1      -0.677   5.242  24.847  0.00  0.00    +0.140 A 
ATOM     25  F   UNL     1      -0.154   5.880  24.833  0.00  0.00    -0.204 F 
ATOM     26  C   UNL     1      -0.476   4.537  24.470  0.00  0.00    +0.031 A 
ATOM     27  C   UNL     1      -0.998   3.898  24.483  0.00  0.00    +0.019 A 
ENDBRANCH  20  21
BRANCH   8   7
ATOM      7  C   UNL     1      -4.571  -0.571  25.158  0.00  0.00    +0.122 C 
BRANCH   7   6
ATOM      3  C   UNL     1      -2.828  -2.244  24.626  0.00  0.00    +0.139 A 
ATOM      4  C   UNL     1      -3.374  -2.021  24.050  0.00  0.00    +0.037 A 
ATOM      5  C   UNL     1      -3.956  -1.463  24.227  0.00  0.00    +0.001 A 
ATOM      6  C   UNL     1      -3.991  -1.128  24.980  0.00  0.00    -0.002 A 
ATOM     28  C   UNL     1      -3.444  -1.352  25.557  0.00  0.00    +0.001 A 
ATOM     29  C   UNL     1      -2.863  -1.910  25.379  0.00  0.00    +0.037 A 
BRANCH   3   2
ATOM      1  C   UNL     1      -1.476  -2.558  24.285  0.00  0.00    +0.252 C 
ATOM      2  O   UNL     1      -2.246  -2.802  24.449  0.00  0.00    -0.471 OA
ENDBRANCH   3   2
ENDBRANCH   7   6
ENDBRANCH   8   7
TORSDOF 4
ENDMDL
MODEL 3
REMARK VINA RESULT:     -11.1      3.029      6.422
REMARK  Name = 
REMARK  4 active torsions:
REMARK  status: ('A' for Active; 'I' for Inactive)
REMARK    1  A    between atoms: O_2  and  C_3
REMARK    2  A    between atoms: C_6  and  C_7
REMARK    3  A    between atoms: C_7  and  N_8
REMARK    4  A    between atoms: N_20  and  C_21
REMARK                            x       y       z     vdW  Elec       q    Type
REMARK                         _______ _______ _______ _____ _____    ______ ____
ROOT
ATOM      8  N   UNL     1      -0.878  -0.858  24.940  0.00  0.00    -0.258 N 
ATOM      9  C   UNL     1      -1.247  -0.165  25.196  0.00  0.00    +0.117 C 
ATOM     10  C   UNL     1      -0.858   0.474  24.850  0.00  0.00    +0.117 C 
ATOM     11  C   UNL     1      -0.979   1.288  24.902  0.00  0.00    +0.117 C 
ATOM     12  N   UNL     1      -0.492   1.805  24.483  0.00  0.00    -0.259 N 
ATOM     13  C   UNL     1       0.117   1.509  24.013  0.00  0.00    +0.117 C 
ATOM     14  C   UNL     1       0.239   0.694  23.960  0.00  0.00    +0.117 C 
ATOM     15  N   UNL     1      -0.249   0.177  24.379  0.00  0.00    -0.261 N 
ATOM     16  C   UNL     1      -0.262  -0.646  24.435  0.00  0.00    +0.308 C 
ATOM     17  O   UNL     1       0.253  -1.166  24.052  0.00  0.00    -0.252 OA
ATOM     18  C   UNL     1      -0.613   2.620  24.535  0.00  0.00    +0.328 C 
ATOM     19  O   UNL     1      -0.126   3.137  24.117  0.00  0.00    -0.250 OA
ATOM     20  N   UNL     1      -1.222   2.917  25.006  0.00  0.00    -0.162 NA
ENDROOT
BRANCH  20  21
ATOM     21  C   UNL     1      -1.344   3.731  25.058  0.00  0.00    +0.075 A 
ATOM     22  C   UNL     1      -0.709   4.250  24.971  0.00  0.00    +0.019 A 
ATOM     23  C   UNL     1      -0.833   5.065  25.024  0.00  0.00    +0.031 A 
ATOM     24  C   UNL     1      -1.590   5.359  25.164  0.00  0.00    +0.140 A 
ATOM     25  F   UNL     1      -1.713   6.174  25.216  0.00  0.00    -0.204 F 
ATOM     26  C   UNL     1      -2.225   4.840  25.250  0.00  0.00    +0.031 A 
ATOM     27  C   UNL     1      -2.103   4.026  25.198  0.00  0.00    +0.019 A 
ENDBRANCH  20  21
BRANCH   8   7
ATOM      7  C   UNL     1      -1.090  -1.627  25.151  0.00  0.00    +0.122 C 
BRANCH   7   6
ATOM      3  C   UNL     1      -3.334  -2.497  24.578  0.00  0.00    +0.139 A 
ATOM      4  C   UNL     1      -3.240  -1.995  25.225  0.00  0.00    +0.037 A 
ATOM      5  C   UNL     1      -2.492  -1.705  25.417  0.00  0.00    +0.001 A 
ATOM      6  C   UNL     1      -1.838  -1.917  24.961  0.00  0.00    -0.002 A 
ATOM     28  C   UNL     1      -1.932  -2.419  24.313  0.00  0.00    +0.001 A 
ATOM     29  C   UNL     1      -2.681  -2.709  24.122  0.00  0.00    +0.037 A 
BRANCH   3   2
ATOM      1  C   UNL     1      -4.497  -2.473  23.748  0.00  0.00    +0.252 C 
ATOM      2  O   UNL     1      -4.082  -2.788  24.387  0.00  0.00    -0.471 OA
ENDBRANCH   3   2
ENDBRANCH   7   6
ENDBRANCH   8   7
TORSDOF 4
ENDMDL
MODEL 4
REMARK VINA RESULT:     -10.9      2.242      3.203
REMARK  Name = 
REMARK  4 active torsions:
REMARK  status: ('A' for Active; 'I' for Inactive)
REMARK    1  A    between atoms: O_2  and  C_3
REMARK    2  A    between atoms: C_6  and  C_7
REMARK    3  A    between atoms: C_7  and  N_8
REMARK    4  A    between atoms: N_20  and  C_21
REMARK                            x       y       z     vdW  Elec       q    Type
REMARK                         _______ _______ _______ _____ _____    ______ ____
ROOT
ATOM      8  N   UNL     1      -0.341   2.188  25.047  0.00  0.00    -0.258 N 
ATOM      9  C   UNL     1      -1.029   1.744  25.153  0.00  0.00    +0.117 C 
ATOM     10  C   UNL     1      -0.912   1.006  24.805  0.00  0.00    +0.117 C 
ATOM     11  C   UNL     1      -1.399   0.343  24.739  0.00  0.00    +0.117 C 
ATOM     12  N   UNL     1      -1.126  -0.332  24.352  0.00  0.00    -0.259 N 
ATOM     13  C   UNL     1      -0.366  -0.346  24.032  0.00  0.00    +0.117 C 
ATOM     14  C   UNL     1       0.121   0.317  24.098  0.00  0.00    +0.117 C 
ATOM     15  N   UNL     1      -0.152   0.993  24.485  0.00  0.00    -0.261 N 
ATOM     16  C   UNL     1       0.201   1.723  24.634  0.00  0.00    +0.308 C 
ATOM     17  O   UNL     1       0.962   1.949  24.410  0.00  0.00    -0.252 OA
ATOM     18  C   UNL     1      -1.613  -0.995  24.286  0.00  0.00    +0.328 C 
ATOM     19  O   UNL     1      -1.341  -1.670  23.899  0.00  0.00    -0.250 OA
ATOM     20  N   UNL     1      -2.373  -0.982  24.606  0.00  0.00    -0.162 NA
ENDROOT
BRANCH  20  21
ATOM     21  C   UNL     1      -2.861  -1.644  24.540  0.00  0.00    +0.075 A 
ATOM     22  C   UNL     1      -2.729  -2.303  25.019  0.00  0.00    +0.019 A 
ATOM     23  C   UNL     1      -3.218  -2.965  24.952  0.00  0.00    +0.031 A 
ATOM     24  C   UNL     1      -3.837  -2.968  24.408  0.00  0.00    +0.140 A 
ATOM     25  F   UNL     1      -4.326  -3.629  24.341  0.00  0.00    -0.204 F 
ATOM     26  C   UNL     1      -3.969  -2.309  23.929  0.00  0.00    +0.031 A 
ATOM     27  C   UNL     1      -3.481  -1.646  23.995  0.00  0.00    +0.019 A 
ENDBRANCH  20  21
BRANCH   8   7
ATOM      7  C   UNL     1      -0.217   2.960  25.308  0.00  0.00    +0.122 C 
BRANCH   7   6
ATOM      3  C   UNL     1      -2.146   4.462  25.697  0.00  0.00    +0.139 A 
ATOM      4  C   UNL     1      -1.984   3.853  26.229  0.00  0.00    +0.037 A 
ATOM      5  C   UNL     1      -1.341   3.352  26.100  0.00  0.00    +0.001 A 
ATOM      6  C   UNL     1      -0.860   3.460  25.438  0.00  0.00    -0.002 A 
ATOM     28  C   UNL     1      -1.023   4.070  24.905  0.00  0.00    +0.001 A 
ATOM     29  C   UNL     1      -1.666   4.570  25.035  0.00  0.00    +0.037 A 
BRANCH   3   2
ATOM      1  C   UNL     1      -3.545   4.648  25.924  0.00  0.00    +0.252 C 
ATOM      2  O   UNL     1      -2.789   4.963  25.825  0.00  0.00    -0.471 OA
ENDBRANCH   3   2
ENDBRANCH   7   6
ENDBRANCH   8   7
TORSDOF 4
ENDMDL
MODEL 5
REMARK VINA RESULT:      -9.8      3.037      4.707
REMARK  Name = 
REMARK  4 active torsions:
REMARK  status: ('A' for Active; 'I' for Inactive)
REMARK    1  A    between atoms: O_2  and  C_3
REMARK    2  A    between atoms: C_6  and  C_7
REMARK    3  A    between atoms: C_7  and  N_8
REMARK    4  A    between atoms: N_20  and  C_21
REMARK                            x       y       z     vdW  Elec       q    Type
REMARK                         _______ _______ _______ _____ _____    ______ ____
ROOT
ATOM      8  N   UNL     1      -3.890   0.160  24.748  0.00  0.00    -0.258 N 
ATOM      9  C   UNL     1      -3.270   0.459  24.292  0.00  0.00    +0.117 C 
ATOM     10  C   UNL     1      -2.586   0.041  24.486  0.00  0.00    +0.117 C 
ATOM     11  C   UNL     1      -1.809   0.095  24.214  0.00  0.00    +0.117 C 
ATOM     12  N   UNL     1      -1.230  -0.407  24.517  0.00  0.00    -0.259 N 
ATOM     13  C   UNL     1      -1.427  -0.964  25.093  0.00  0.00    +0.117 C 
ATOM     14  C   UNL     1      -2.203  -1.019  25.366  0.00  0.00    +0.117 C 
ATOM     15  N   UNL     1      -2.783  -0.516  25.062  0.00  0.00    -0.261 N 
ATOM     16  C   UNL     1      -3.588  -0.442  25.224  0.00  0.00    +0.308 C 
ATOM     17  O   UNL     1      -4.018  -0.893  25.766  0.00  0.00    -0.252 OA
ATOM     18  C   UNL     1      -0.453  -0.353  24.244  0.00  0.00    +0.328 C 
ATOM     19  O   UNL     1       0.127  -0.854  24.547  0.00  0.00    -0.250 OA
ATOM     20  N   UNL     1      -0.256   0.204  23.668  0.00  0.00    -0.162 NA
ENDROOT
BRANCH  20  21
ATOM     21  C   UNL     1       0.520   0.260  23.395  0.00  0.00    +0.075 A 
ATOM     22  C   UNL     1       1.022   0.843  23.693  0.00  0.00    +0.019 A 
ATOM     23  C   UNL     1       1.799   0.897  23.419  0.00  0.00    +0.031 A 
ATOM     24  C   UNL     1       2.073   0.369  22.848  0.00  0.00    +0.140 A 
ATOM     25  F   UNL     1       2.850   0.423  22.574  0.00  0.00    -0.204 F 
ATOM     26  C   UNL     1       1.571  -0.214  22.551  0.00  0.00    +0.031 A 
ATOM     27  C   UNL     1       0.795  -0.270  22.824  0.00  0.00    +0.019 A 
ENDBRANCH  20  21
BRANCH   8   7
ATOM      7  C   UNL     1      -4.673   0.418  24.730  0.00  0.00    +0.122 C 
BRANCH   7   6
ATOM      3  C   UNL     1      -5.209   2.785  25.219  0.00  0.00    +0.139 A 
ATOM      4  C   UNL     1      -4.816   2.587  24.522  0.00  0.00    +0.037 A 
ATOM      5  C   UNL     1      -4.637   1.798  24.358  0.00  0.00    +0.001 A 
ATOM      6  C   UNL     1      -4.851   1.207  24.893  0.00  0.00    -0.002 A 
ATOM     28  C   UNL     1      -5.244   1.405  25.591  0.00  0.00    +0.001 A 
ATOM     29  C   UNL     1      -5.423   2.194  25.754  0.00  0.00    +0.037 A 
BRANCH   3   2
ATOM      1  C   UNL     1      -4.781   4.126  25.467  0.00  0.00    +0.252 C 
ATOM      2  O   UNL     1      -5.388   3.573  25.383  0.00  0.00    -0.471 OA
ENDBRANCH   3   2
ENDBRANCH   7   6
ENDBRANCH   8   7
TORSDOF 4
ENDMDL
MODEL 6
REMARK VINA RESULT:      -9.2      2.287      3.569
REMARK  Name = 
REMARK  4 active torsions:
REMARK  status: ('A' for Active; 'I' for Inactive)
REMARK    1  A    between atoms: O_2  and  C_3
REMARK    2  A    between atoms: C_6  and  C_7
REMARK    3  A    between atoms: C_7  and  N_8
REMARK    4  A    between atoms: N_20  and  C_21
REMARK                            x       y       z     vdW  Elec       q    Type
REMARK                         _______ _______ _______ _____ _____    ______ ____
ROOT
ATOM      8  N   UNL     1      -1.817   3.467  24.956  0.00  0.00    -0.258 N 
ATOM      9  C   UNL     1      -2.054   2.688  25.090  0.00  0.00    +0.117 C 
ATOM     10  C   UNL     1      -1.436   2.192  24.863  0.00  0.00    +0.117 C 
ATOM     11  C   UNL     1      -1.355   1.371  24.869  0.00  0.00    +0.117 C 
ATOM     12  N   UNL     1      -0.657   1.022  24.603  0.00  0.00    -0.259 N 
ATOM     13  C   UNL     1      -0.039   1.495  24.329  0.00  0.00    +0.117 C 
ATOM     14  C   UNL     1      -0.118   2.316  24.322  0.00  0.00    +0.117 C 
ATOM     15  N   UNL     1      -0.817   2.664  24.589  0.00  0.00    -0.261 N 
ATOM     16  C   UNL     1      -1.053   3.452  24.647  0.00  0.00    +0.308 C 
ATOM     17  O   UNL     1      -0.603   4.111  24.433  0.00  0.00    -0.252 OA
ATOM     18  C   UNL     1      -0.577   0.201  24.609  0.00  0.00    +0.328 C 
ATOM     19  O   UNL     1       0.121  -0.148  24.343  0.00  0.00    -0.250 OA
ATOM     20  N   UNL     1      -1.195  -0.271  24.883  0.00  0.00    -0.162 NA
ENDROOT
BRANCH  20  21
ATOM     21  C   UNL     1      -1.116  -1.092  24.890  0.00  0.00    +0.075 A 
ATOM     22  C   UNL     1      -0.580  -1.451  25.405  0.00  0.00    +0.019 A 
ATOM     23  C   UNL     1      -0.502  -2.273  25.412  0.00  0.00    +0.031 A 
ATOM     24  C   UNL     1      -0.958  -2.735  24.904  0.00  0.00    +0.140 A 
ATOM     25  F   UNL     1      -0.880  -3.556  24.910  0.00  0.00    -0.204 F 
ATOM     26  C   UNL     1      -1.493  -2.376  24.389  0.00  0.00    +0.031 A 
ATOM     27  C   UNL     1      -1.573  -1.555  24.382  0.00  0.00    +0.019 A 
ENDBRANCH  20  21
BRANCH   8   7
ATOM      7  C   UNL     1      -2.267   4.143  25.107  0.00  0.00    +0.122 C 
BRANCH   7   6
ATOM      3  C   UNL     1      -4.704   3.950  25.488  0.00  0.00    +0.139 A 
ATOM      4  C   UNL     1      -4.408   3.972  24.719  0.00  0.00    +0.037 A 
ATOM      5  C   UNL     1      -3.595   4.036  24.591  0.00  0.00    +0.001 A 
ATOM      6  C   UNL     1      -3.079   4.078  25.233  0.00  0.00    -0.002 A 
ATOM     28  C   UNL     1      -3.376   4.056  26.003  0.00  0.00    +0.001 A 
ATOM     29  C   UNL     1      -4.188   3.992  26.130  0.00  0.00    +0.037 A 
BRANCH   3   2
ATOM      1  C   UNL     1      -5.869   3.142  25.668  0.00  0.00    +0.252 C 
ATOM      2  O   UNL     1      -5.517   3.886  25.616  0.00  0.00    -0.471 OA
ENDBRANCH   3   2
ENDBRANCH   7   6
ENDBRANCH   8   7
TORSDOF 4
ENDMDL
MODEL 7
REMARK VINA RESULT:      -8.1     14.791     17.158
REMARK  Name = 
REMARK  4 active torsions:
REMARK  status: ('A' for Active; 'I' for Inactive)
REMARK    1  A    between atoms: O_2  and  C_3
REMARK    2  A    between atoms: C_6  and  C_7
REMARK    3  A    between atoms: C_7  and  N_8
REMARK    4  A    between atoms: N_20  and  C_21
REMARK                            x       y       z     vdW  Elec       q    Type
REMARK                         _______ _______ _______ _____ _____    ______ ____
ROOT
ATOM      8  N   UNL     1      -2.771 -10.611  11.823  0.00  0.00    -0.258 N 
ATOM      9  C   UNL     1      -3.390 -10.601  12.369  0.00  0.00    +0.117 C 
ATOM     10  C   UNL     1      -3.062 -10.553  13.124  0.00  0.00    +0.117 C 
ATOM     11  C   UNL     1      -3.405 -10.524  13.874  0.00  0.00    +0.117 C 
ATOM     12  N   UNL     1      -2.928 -10.476  14.544  0.00  0.00    -0.259 N 
ATOM     13  C   UNL     1      -2.107 -10.457  14.465  0.00  0.00    +0.117 C 
ATOM     14  C   UNL     1      -1.763 -10.486  13.716  0.00  0.00    +0.117 C 
ATOM     15  N   UNL     1      -2.241 -10.534  13.045  0.00  0.00    -0.261 N 
ATOM     16  C   UNL     1      -2.062 -10.570  12.241  0.00  0.00    +0.308 C 
ATOM     17  O   UNL     1      -1.304 -10.565  11.913  0.00  0.00    -0.252 OA
ATOM     18  C   UNL     1      -3.270 -10.448  15.295  0.00  0.00    +0.328 C 
ATOM     19  O   UNL     1      -2.793 -10.400  15.965  0.00  0.00    -0.250 OA
ATOM     20  N   UNL     1      -4.091 -10.467  15.373  0.00  0.00    -0.162 NA
ENDROOT
BRANCH  20  21
ATOM     21  C   UNL     1      -4.435 -10.438  16.123  0.00  0.00    +0.075 A 
ATOM     22  C   UNL     1      -5.164 -10.067  16.229  0.00  0.00    +0.019 A 
ATOM     23  C   UNL     1      -5.507 -10.039  16.979  0.00  0.00    +0.031 A 
ATOM     24  C   UNL     1      -5.122 -10.381  17.622  0.00  0.00    +0.140 A 
ATOM     25  F   UNL     1      -5.464 -10.353  18.372  0.00  0.00    -0.204 F 
ATOM     26  C   UNL     1      -4.392 -10.752  17.516  0.00  0.00    +0.031 A 
ATOM     27  C   UNL     1      -4.048 -10.781  16.767  0.00  0.00    +0.019 A 
ENDBRANCH  20  21
BRANCH   8   7
ATOM      7  C   UNL     1      -2.849 -10.656  11.003  0.00  0.00    +0.122 C 
BRANCH   7   6
ATOM      3  C   UNL     1      -4.395  -9.127   9.820  0.00  0.00    +0.139 A 
ATOM      4  C   UNL     1      -4.658  -9.866  10.071  0.00  0.00    +0.037 A 
ATOM      5  C   UNL     1      -4.143 -10.377  10.465  0.00  0.00    +0.001 A 
ATOM      6  C   UNL     1      -3.364 -10.146  10.609  0.00  0.00    -0.002 A 
ATOM     28  C   UNL     1      -3.100  -9.405  10.358  0.00  0.00    +0.001 A 
ATOM     29  C   UNL     1      -3.616  -8.896   9.964  0.00  0.00    +0.037 A 
BRANCH   3   2
ATOM      1  C   UNL     1      -5.668  -8.487   9.720  0.00  0.00    +0.252 C 
ATOM      2  O   UNL     1      -4.909  -8.616   9.426  0.00  0.00    -0.471 OA
ENDBRANCH   3   2
ENDBRANCH   7   6
ENDBRANCH   8   7
TORSDOF 4
ENDMDL
