MODEL 1
REMARK VINA RESULT:     -11.7      0.000      0.000
REMARK  Name = 
REMARK  8 active torsions:
REMARK  status: ('A' for Active; 'I' for Inactive)
REMARK    1  A    between atoms: C_2  and  C_3
REMARK    2  A    between atoms: C_3  and  C_4
REMARK    3  A    between atoms: C_9  and  C_10
REMARK    4  A    between atoms: C_10  and  C_11
REMARK    5  A    between atoms: C_14  and  C_15
REMARK    6  A    between atoms: C_15  and  O_16
REMARK    7  A    between atoms: O_16  and  C_17
REMARK    8  A    between atoms: N_24  and  C_25
REMARK                            x       y       z     vdW  Elec       q    Type
REMARK                         _______ _______ _______ _____ _____    ______ ____
ROOT
ATOM      4  C   UNL     1      -1.168   2.763  25.078  0.00  0.00    +0.012 C 
ATOM      5  C   UNL     1      -1.018   3.201  25.762  0.00  0.00    +0.019 C 
ATOM      6  C   UNL     1      -0.367   3.019  26.234  0.00  0.00    +0.089 C 
ATOM      7  N   UNL     1       0.134   2.400  26.024  0.00  0.00    -0.218 NA
ATOM      8  C   UNL     1      -0.014   1.961  25.341  0.00  0.00    +0.089 C 
ATOM      9  C   UNL     1      -0.666   2.143  24.868  0.00  0.00    +0.024 C 
ENDROOT
BRANCH   4   3
ATOM      3  C   UNL     1      -1.819   2.945  24.606  0.00  0.00    +0.087 C 
BRANCH   3   2
ATOM      1  O   UNL     1      -2.624   3.317  25.726  0.00  0.00    -0.273 OA
ATOM      2  C   UNL     1      -2.562   3.047  24.949  0.00  0.00    +0.241 C 
ATOM     24  N   UNL     1      -3.243   2.879  24.516  0.00  0.00    -0.207 NA
BRANCH  24  25
ATOM     25  C   UNL     1      -3.987   2.981  24.859  0.00  0.00    +0.095 C 
ATOM     26  C   UNL     1      -4.440   2.323  25.065  0.00  0.00    +0.022 C 
ATOM     27  C   UNL     1      -5.183   2.425  25.408  0.00  0.00    +0.002 C 
ATOM     28  C   UNL     1      -5.474   3.185  25.546  0.00  0.00    +0.000 C 
ATOM     29  C   UNL     1      -5.020   3.843  25.340  0.00  0.00    +0.002 C 
ATOM     30  C   UNL     1      -4.277   3.741  24.996  0.00  0.00    +0.022 C 
ENDBRANCH  24  25
ENDBRANCH   3   2
ENDBRANCH   4   3
BRANCH   9  10
ATOM     10  C   UNL     1      -0.815   1.705  24.185  0.00  0.00    +0.051 C 
BRANCH  10  11
ATOM     11  C   UNL     1      -0.790   0.881  24.210  0.00  0.00    +0.100 A 
ATOM     12  N   UNL     1      -0.110   0.415  24.193  0.00  0.00    -0.082 NA
ATOM     13  O   UNL     1      -0.341  -0.376  24.229  0.00  0.00    -0.354 OA
ATOM     14  C   UNL     1      -1.165  -0.400  24.269  0.00  0.00    +0.198 A 
ATOM     23  C   UNL     1      -1.443   0.377  24.257  0.00  0.00    +0.057 A 
BRANCH  14  15
ATOM     15  C   UNL     1      -1.629  -1.080  24.312  0.00  0.00    +0.272 C 
BRANCH  15  16
ATOM     16  O   UNL     1      -2.365  -1.054  24.684  0.00  0.00    -0.467 OA
BRANCH  16  17
ATOM     17  C   UNL     1      -2.934  -1.627  24.514  0.00  0.00    +0.139 A 
ATOM     18  C   UNL     1      -3.640  -1.410  24.146  0.00  0.00    +0.037 A 
ATOM     19  C   UNL     1      -4.208  -1.983  23.976  0.00  0.00    +0.003 A 
ATOM     20  C   UNL     1      -4.071  -2.772  24.173  0.00  0.00    +0.000 A 
ATOM     21  C   UNL     1      -3.365  -2.988  24.541  0.00  0.00    +0.003 A 
ATOM     22  C   UNL     1      -2.797  -2.415  24.712  0.00  0.00    +0.037 A 
ENDBRANCH  16  17
ENDBRANCH  15  16
ENDBRANCH  14  15
ENDBRANCH  10  11
ENDBRANCH   9  10
TORSDOF 8
ENDMDL
MODEL 2
REMARK VINA RESULT:     -11.7      0.938      4.383
REMARK  Name = 
REMARK  8 active torsions:
REMARK  status: ('A' for Active; 'I' for Inactive)
REMARK    1  A    between atoms: C_2  and  C_3
REMARK    2  A    between atoms: C_3  and  C_4
REMARK    3  A    between atoms: C_9  and  C_10
REMARK    4  A    between atoms: C_10  and  C_11
REMARK    5  A    between atoms: C_14  and  C_15
REMARK    6  A    between atoms: C_15  and  O_16
REMARK    7  A    between atoms: O_16  and  C_17
REMARK    8  A    between atoms: N_24  and  C_25
REMARK                            x       y       z     vdW  Elec       q    Type
REMARK                         _______ _______ _______ _____ _____    ______ ____
ROOT
ATOM      4  C   UNL     1      -0.585  -0.003  24.649  0.00  0.00    +0.012 C 
ATOM      5  C   UNL     1      -0.284  -0.367  23.972  0.00  0.00    +0.019 C 
ATOM      6  C   UNL     1       0.198   0.058  23.455  0.00  0.00    +0.089 C 
ATOM      7  N   UNL     1       0.380   0.846  23.614  0.00  0.00    -0.218 NA
ATOM      8  C   UNL     1       0.079   1.211  24.290  0.00  0.00    +0.089 C 
ATOM      9  C   UNL     1      -0.404   0.785  24.808  0.00  0.00    +0.024 C 
ENDROOT
BRANCH   4   3
ATOM      3  C   UNL     1      -1.067  -0.428  25.165  0.00  0.00    +0.087 C 
BRANCH   3   2
ATOM      1  O   UNL     1      -1.356  -1.557  24.340  0.00  0.00    -0.273 OA
ATOM      2  C   UNL     1      -1.607  -0.977  24.869  0.00  0.00    +0.241 C 
ATOM     24  N   UNL     1      -2.397  -0.944  25.102  0.00  0.00    -0.207 NA
BRANCH  24  25
ATOM     25  C   UNL     1      -2.938  -1.494  24.805  0.00  0.00    +0.095 C 
ATOM     26  C   UNL     1      -3.507  -1.257  24.256  0.00  0.00    +0.022 C 
ATOM     27  C   UNL     1      -4.047  -1.805  23.960  0.00  0.00    +0.002 C 
ATOM     28  C   UNL     1      -4.018  -2.591  24.213  0.00  0.00    +0.000 C 
ATOM     29  C   UNL     1      -3.449  -2.827  24.761  0.00  0.00    +0.002 C 
ATOM     30  C   UNL     1      -2.909  -2.278  25.057  0.00  0.00    +0.022 C 
ENDBRANCH  24  25
ENDBRANCH   3   2
ENDBRANCH   4   3
BRANCH   9  10
ATOM     10  C   UNL     1      -0.705   1.150  25.484  0.00  0.00    +0.051 C 
BRANCH  10  11
ATOM     11  C   UNL     1      -1.084   1.880  25.425  0.00  0.00    +0.100 A 
ATOM     12  N   UNL     1      -0.716   2.612  25.330  0.00  0.00    -0.082 NA
ATOM     13  O   UNL     1      -1.303   3.191  25.297  0.00  0.00    -0.354 OA
ATOM     14  C   UNL     1      -2.034   2.817  25.373  0.00  0.00    +0.198 A 
ATOM     23  C   UNL     1      -1.899   2.007  25.452  0.00  0.00    +0.057 A 
BRANCH  14  15
ATOM     15  C   UNL     1      -2.771   3.187  25.370  0.00  0.00    +0.272 C 
BRANCH  15  16
ATOM     16  O   UNL     1      -3.353   2.943  24.837  0.00  0.00    -0.467 OA
BRANCH  16  17
ATOM     17  C   UNL     1      -4.150   3.004  25.042  0.00  0.00    +0.139 A 
ATOM     18  C   UNL     1      -4.660   2.369  24.907  0.00  0.00    +0.037 A 
ATOM     19  C   UNL     1      -5.456   2.430  25.112  0.00  0.00    +0.003 A 
ATOM     20  C   UNL     1      -5.744   3.126  25.450  0.00  0.00    +0.000 A 
ATOM     21  C   UNL     1      -5.234   3.760  25.584  0.00  0.00    +0.003 A 
ATOM     22  C   UNL     1      -4.437   3.699  25.380  0.00  0.00    +0.037 A 
ENDBRANCH  16  17
ENDBRANCH  15  16
ENDBRANCH  14  15
ENDBRANCH  10  11
ENDBRANCH   9  10
TORSDOF 8
ENDMDL
MODEL 3
REMARK VINA RESULT:     -11.3      1.461      3.520
REMARK  Name = 
REMARK  8 active torsions:
REMARK  status: ('A' for Active; 'I' for Inactive)
REMARK    1  A    between atoms: C_2  and  C_3
REMARK    2  A    between atoms: C_3  and  C_4
REMARK    3  A    between atoms: C_9  and  C_10
REMARK    4  A    between atoms: C_10  and  C_11
REMARK    5  A    between atoms: C_14  and  C_15
REMARK    6  A    between atoms: C_15  and  O_16
REMARK    7  A    between atoms: O_16  and  C_17
REMARK    8  A    between atoms: N_24  and  C_25
REMARK                            x       y       z     vdW  Elec       q    Type
REMARK                         _______ _______ _______ _____ _____    ______ ____
ROOT
ATOM      4  C   UNL     1      -3.583   3.601  25.180  0.00  0.00    +0.012 C 
ATOM      5  C   UNL     1      -3.459   4.111  25.818  0.00  0.00    +0.019 C 
ATOM      6  C   UNL     1      -4.068   4.256  26.354  0.00  0.00    +0.089 C 
ATOM      7  N   UNL     1      -4.801   3.892  26.254  0.00  0.00    -0.218 NA
ATOM      8  C   UNL     1      -4.926   3.382  25.617  0.00  0.00    +0.089 C 
ATOM      9  C   UNL     1      -4.315   3.237  25.080  0.00  0.00    +0.024 C 
ENDROOT
BRANCH   4   3
ATOM      3  C   UNL     1      -2.973   3.457  24.644  0.00  0.00    +0.087 C 
BRANCH   3   2
ATOM      1  O   UNL     1      -1.795   4.064  25.175  0.00  0.00    -0.273 OA
ATOM      2  C   UNL     1      -2.195   3.394  24.910  0.00  0.00    +0.241 C 
ATOM     24  N   UNL     1      -1.818   2.661  24.911  0.00  0.00    -0.207 NA
BRANCH  24  25
ATOM     25  C   UNL     1      -1.039   2.598  25.178  0.00  0.00    +0.095 C 
ATOM     26  C   UNL     1      -0.885   2.505  25.983  0.00  0.00    +0.022 C 
ATOM     27  C   UNL     1      -0.107   2.442  26.250  0.00  0.00    +0.002 C 
ATOM     28  C   UNL     1       0.518   2.472  25.711  0.00  0.00    +0.000 C 
ATOM     29  C   UNL     1       0.363   2.564  24.906  0.00  0.00    +0.002 C 
ATOM     30  C   UNL     1      -0.415   2.627  24.639  0.00  0.00    +0.022 C 
ENDBRANCH  24  25
ENDBRANCH   3   2
ENDBRANCH   4   3
BRANCH   9  10
ATOM     10  C   UNL     1      -4.440   2.728  24.443  0.00  0.00    +0.051 C 
BRANCH  10  11
ATOM     11  C   UNL     1      -4.774   1.984  24.569  0.00  0.00    +0.100 A 
ATOM     12  N   UNL     1      -5.573   1.826  24.698  0.00  0.00    -0.082 NA
ATOM     13  O   UNL     1      -5.659   1.011  24.796  0.00  0.00    -0.354 OA
ATOM     14  C   UNL     1      -4.913   0.665  24.727  0.00  0.00    +0.198 A 
ATOM     23  C   UNL     1      -4.366   1.267  24.586  0.00  0.00    +0.057 A 
BRANCH  14  15
ATOM     15  C   UNL     1      -4.745  -0.139  24.787  0.00  0.00    +0.272 C 
BRANCH  15  16
ATOM     16  O   UNL     1      -4.096  -0.456  24.386  0.00  0.00    -0.467 OA
BRANCH  16  17
ATOM     17  C   UNL     1      -3.931  -1.262  24.442  0.00  0.00    +0.139 A 
ATOM     18  C   UNL     1      -4.207  -1.781  23.862  0.00  0.00    +0.037 A 
ATOM     19  C   UNL     1      -4.042  -2.587  23.918  0.00  0.00    +0.003 A 
ATOM     20  C   UNL     1      -3.600  -2.875  24.554  0.00  0.00    +0.000 A 
ATOM     21  C   UNL     1      -3.325  -2.356  25.133  0.00  0.00    +0.003 A 
ATOM     22  C   UNL     1      -3.490  -1.550  25.077  0.00  0.00    +0.037 A 
ENDBRANCH  16  17
ENDBRANCH  15  16
ENDBRANCH  14  15
ENDBRANCH  10  11
ENDBRANCH   9  10
TORSDOF 8
ENDMDL
MODEL 4
REMARK VINA RESULT:     -11.2      1.636      3.453
REMARK  Name = 
REMARK  8 active torsions:
REMARK  status: ('A' for Active; 'I' for Inactive)
REMARK    1  A    between atoms: C_2  and  C_3
REMARK    2  A    between atoms: C_3  and  C_4
REMARK    3  A    between atoms: C_9  and  C_10
REMARK    4  A    between atoms: C_10  and  C_11
REMARK    5  A    between atoms: C_14  and  C_15
REMARK    6  A    between atoms: C_15  and  O_16
REMARK    7  A    between atoms: O_16  and  C_17
REMARK    8  A    between atoms: N_24  and  C_25
REMARK                            x       y       z     vdW  Elec       q    Type
REMARK                         _______ _______ _______ _____ _____    ______ ____
ROOT
ATOM      4  C   UNL     1      -4.691   2.917  25.028  0.00  0.00    +0.012 C 
ATOM      5  C   UNL     1      -4.985   3.362  25.658  0.00  0.00    +0.019 C 
ATOM      6  C   UNL     1      -5.549   3.036  26.164  0.00  0.00    +0.089 C 
ATOM      7  N   UNL     1      -5.819   2.267  26.041  0.00  0.00    -0.218 NA
ATOM      8  C   UNL     1      -5.525   1.822  25.411  0.00  0.00    +0.089 C 
ATOM      9  C   UNL     1      -4.960   2.148  24.904  0.00  0.00    +0.024 C 
ENDROOT
BRANCH   4   3
ATOM      3  C   UNL     1      -4.127   3.243  24.522  0.00  0.00    +0.087 C 
BRANCH   3   2
ATOM      1  O   UNL     1      -3.486   3.965  25.574  0.00  0.00    -0.273 OA
ATOM      2  C   UNL     1      -3.455   3.607  24.832  0.00  0.00    +0.241 C 
ATOM     24  N   UNL     1      -2.753   3.613  24.401  0.00  0.00    -0.207 NA
BRANCH  24  25
ATOM     25  C   UNL     1      -2.080   3.978  24.711  0.00  0.00    +0.095 C 
ATOM     26  C   UNL     1      -1.453   3.518  24.989  0.00  0.00    +0.022 C 
ATOM     27  C   UNL     1      -0.781   3.882  25.299  0.00  0.00    +0.002 C 
ATOM     28  C   UNL     1      -0.736   4.706  25.332  0.00  0.00    +0.000 C 
ATOM     29  C   UNL     1      -1.363   5.164  25.055  0.00  0.00    +0.002 C 
ATOM     30  C   UNL     1      -2.035   4.800  24.744  0.00  0.00    +0.022 C 
ENDBRANCH  24  25
ENDBRANCH   3   2
ENDBRANCH   4   3
BRANCH   9  10
ATOM     10  C   UNL     1      -4.667   1.704  24.275  0.00  0.00    +0.051 C 
BRANCH  10  11
ATOM     11  C   UNL     1      -4.483   0.907  24.382  0.00  0.00    +0.100 A 
ATOM     12  N   UNL     1      -5.010   0.313  24.606  0.00  0.00    -0.082 NA
ATOM     13  O   UNL     1      -4.592  -0.398  24.647  0.00  0.00    -0.354 OA
ATOM     14  C   UNL     1      -3.807  -0.243  24.449  0.00  0.00    +0.198 A 
ATOM     23  C   UNL     1      -3.739   0.563  24.285  0.00  0.00    +0.057 A 
BRANCH  14  15
ATOM     15  C   UNL     1      -3.196  -0.797  24.419  0.00  0.00    +0.272 C 
BRANCH  15  16
ATOM     16  O   UNL     1      -2.783  -0.992  25.107  0.00  0.00    -0.467 OA
BRANCH  16  17
ATOM     17  C   UNL     1      -2.057  -1.379  25.055  0.00  0.00    +0.139 A 
ATOM     18  C   UNL     1      -1.379  -1.025  25.365  0.00  0.00    +0.037 A 
ATOM     19  C   UNL     1      -0.652  -1.412  25.313  0.00  0.00    +0.003 A 
ATOM     20  C   UNL     1      -0.603  -2.152  24.952  0.00  0.00    +0.000 A 
ATOM     21  C   UNL     1      -1.281  -2.505  24.642  0.00  0.00    +0.003 A 
ATOM     22  C   UNL     1      -2.008  -2.119  24.694  0.00  0.00    +0.037 A 
ENDBRANCH  16  17
ENDBRANCH  15  16
ENDBRANCH  14  15
ENDBRANCH  10  11
ENDBRANCH   9  10
TORSDOF 8
ENDMDL
MODEL 5
REMARK VINA RESULT:     -11.1      1.782      4.978
REMARK  Name = 
REMARK  8 active torsions:
REMARK  status: ('A' for Active; 'I' for Inactive)
REMARK    1  A    between atoms: C_2  and  C_3
REMARK    2  A    between atoms: C_3  and  C_4
REMARK    3  A    between atoms: C_9  and  C_10
REMARK    4  A    between atoms: C_10  and  C_11
REMARK    5  A    between atoms: C_14  and  C_15
REMARK    6  A    between atoms: C_15  and  O_16
REMARK    7  A    between atoms: O_16  and  C_17
REMARK    8  A    between atoms: N_24  and  C_25
REMARK                            x       y       z     vdW  Elec       q    Type
REMARK                         _______ _______ _______ _____ _____    ______ ____
ROOT
ATOM      4  C   UNL     1      -5.200   1.758  24.975  0.00  0.00    +0.012 C 
ATOM      5  C   UNL     1      -5.695   1.478  25.573  0.00  0.00    +0.019 C 
ATOM      6  C   UNL     1      -6.007   2.002  26.129  0.00  0.00    +0.089 C 
ATOM      7  N   UNL     1      -5.825   2.805  26.086  0.00  0.00    -0.218 NA
ATOM      8  C   UNL     1      -5.331   3.085  25.488  0.00  0.00    +0.089 C 
ATOM      9  C   UNL     1      -5.018   2.560  24.932  0.00  0.00    +0.024 C 
ENDROOT
BRANCH   4   3
ATOM      3  C   UNL     1      -4.889   1.233  24.420  0.00  0.00    +0.087 C 
BRANCH   3   2
ATOM      1  O   UNL     1      -5.036   0.119  25.301  0.00  0.00    -0.273 OA
ATOM      2  C   UNL     1      -4.677   0.469  24.647  0.00  0.00    +0.241 C 
ATOM     24  N   UNL     1      -4.105   0.056  24.220  0.00  0.00    -0.207 NA
BRANCH  24  25
ATOM     25  C   UNL     1      -3.893  -0.709  24.447  0.00  0.00    +0.095 C 
ATOM     26  C   UNL     1      -3.357  -0.822  25.065  0.00  0.00    +0.022 C 
ATOM     27  C   UNL     1      -3.145  -1.586  25.292  0.00  0.00    +0.002 C 
ATOM     28  C   UNL     1      -3.468  -2.238  24.902  0.00  0.00    +0.000 C 
ATOM     29  C   UNL     1      -4.004  -2.124  24.285  0.00  0.00    +0.002 C 
ATOM     30  C   UNL     1      -4.216  -1.360  24.057  0.00  0.00    +0.022 C 
ENDBRANCH  24  25
ENDBRANCH   3   2
ENDBRANCH   4   3
BRANCH   9  10
ATOM     10  C   UNL     1      -4.524   2.840  24.334  0.00  0.00    +0.051 C 
BRANCH  10  11
ATOM     11  C   UNL     1      -3.893   3.339  24.519  0.00  0.00    +0.100 A 
ATOM     12  N   UNL     1      -3.883   4.159  24.438  0.00  0.00    -0.082 NA
ATOM     13  O   UNL     1      -3.145   4.432  24.686  0.00  0.00    -0.354 OA
ATOM     14  C   UNL     1      -2.699   3.779  24.922  0.00  0.00    +0.198 A 
ATOM     23  C   UNL     1      -3.161   3.103  24.818  0.00  0.00    +0.057 A 
BRANCH  14  15
ATOM     15  C   UNL     1      -1.926   3.799  25.210  0.00  0.00    +0.272 C 
BRANCH  15  16
ATOM     16  O   UNL     1      -1.299   3.572  24.723  0.00  0.00    -0.467 OA
BRANCH  16  17
ATOM     17  C   UNL     1      -0.697   3.094  25.022  0.00  0.00    +0.139 A 
ATOM     18  C   UNL     1      -0.306   2.564  24.524  0.00  0.00    +0.037 A 
ATOM     19  C   UNL     1       0.295   2.086  24.823  0.00  0.00    +0.003 A 
ATOM     20  C   UNL     1       0.507   2.137  25.620  0.00  0.00    +0.000 A 
ATOM     21  C   UNL     1       0.116   2.667  26.116  0.00  0.00    +0.003 A 
ATOM     22  C   UNL     1      -0.486   3.146  25.817  0.00  0.00    +0.037 A 
ENDBRANCH  16  17
ENDBRANCH  15  16
ENDBRANCH  14  15
ENDBRANCH  10  11
ENDBRANCH   9  10
TORSDOF 8
ENDMDL
MODEL 6
REMARK VINA RESULT:     -11.0      1.462      4.164
REMARK  Name = 
REMARK  8 active torsions:
REMARK  status: ('A' for Active; 'I' for Inactive)
REMARK    1  A    between atoms: C_2  and  C_3
REMARK    2  A    between atoms: C_3  and  C_4
REMARK    3  A    between atoms: C_9  and  C_10
REMARK    4  A    between atoms: C_10  and  C_11
REMARK    5  A    between atoms: C_14  and  C_15
REMARK    6  A    between atoms: C_15  and  O_16
REMARK    7  A    between atoms: O_16  and  C_17
REMARK    8  A    between atoms: N_24  and  C_25
REMARK                            x       y       z     vdW  Elec       q    Type
REMARK                         _______ _______ _______ _____ _____    ______ ____
ROOT
ATOM      4  C   UNL     1      -3.178  -0.427  24.866  0.00  0.00    +0.012 C 
ATOM      5  C   UNL     1      -3.468  -0.889  25.486  0.00  0.00    +0.019 C 
ATOM      6  C   UNL     1      -2.950  -1.348  25.934  0.00  0.00    +0.089 C 
ATOM      7  N   UNL     1      -2.144  -1.347  25.763  0.00  0.00    -0.218 NA
ATOM      8  C   UNL     1      -1.854  -0.885  25.144  0.00  0.00    +0.089 C 
ATOM      9  C   UNL     1      -2.372  -0.425  24.695  0.00  0.00    +0.024 C 
ENDROOT
BRANCH   4   3
ATOM      3  C   UNL     1      -3.696   0.033  24.418  0.00  0.00    +0.087 C 
BRANCH   3   2
ATOM      1  O   UNL     1      -4.671   0.200  25.448  0.00  0.00    -0.273 OA
ATOM      2  C   UNL     1      -4.268   0.495  24.792  0.00  0.00    +0.241 C 
ATOM     24  N   UNL     1      -4.435   1.252  24.511  0.00  0.00    -0.207 NA
BRANCH  24  25
ATOM     25  C   UNL     1      -5.008   1.715  24.886  0.00  0.00    +0.095 C 
ATOM     26  C   UNL     1      -4.778   2.351  25.358  0.00  0.00    +0.022 C 
ATOM     27  C   UNL     1      -5.350   2.813  25.733  0.00  0.00    +0.002 C 
ATOM     28  C   UNL     1      -6.151   2.639  25.635  0.00  0.00    +0.000 C 
ATOM     29  C   UNL     1      -6.379   2.002  25.163  0.00  0.00    +0.002 C 
ATOM     30  C   UNL     1      -5.807   1.540  24.788  0.00  0.00    +0.022 C 
ENDBRANCH  24  25
ENDBRANCH   3   2
ENDBRANCH   4   3
BRANCH   9  10
ATOM     10  C   UNL     1      -2.082   0.037  24.076  0.00  0.00    +0.051 C 
BRANCH  10  11
ATOM     11  C   UNL     1      -1.457   0.558  24.208  0.00  0.00    +0.100 A 
ATOM     12  N   UNL     1      -0.663   0.352  24.297  0.00  0.00    -0.082 NA
ATOM     13  O   UNL     1      -0.231   1.044  24.417  0.00  0.00    -0.354 OA
ATOM     14  C   UNL     1      -0.757   1.679  24.403  0.00  0.00    +0.198 A 
ATOM     23  C   UNL     1      -1.515   1.379  24.273  0.00  0.00    +0.057 A 
BRANCH  14  15
ATOM     15  C   UNL     1      -0.561   2.474  24.501  0.00  0.00    +0.272 C 
BRANCH  15  16
ATOM     16  O   UNL     1      -0.824   2.885  25.167  0.00  0.00    -0.467 OA
BRANCH  16  17
ATOM     17  C   UNL     1      -0.975   3.694  25.119  0.00  0.00    +0.139 A 
ATOM     18  C   UNL     1      -1.649   4.009  25.475  0.00  0.00    +0.037 A 
ATOM     19  C   UNL     1      -1.800   4.819  25.428  0.00  0.00    +0.003 A 
ATOM     20  C   UNL     1      -1.277   5.313  25.024  0.00  0.00    +0.000 A 
ATOM     21  C   UNL     1      -0.603   4.997  24.668  0.00  0.00    +0.003 A 
ATOM     22  C   UNL     1      -0.452   4.188  24.716  0.00  0.00    +0.037 A 
ENDBRANCH  16  17
ENDBRANCH  15  16
ENDBRANCH  14  15
ENDBRANCH  10  11
ENDBRANCH   9  10
TORSDOF 8
ENDMDL
MODEL 7
REMARK VINA RESULT:     -10.7      2.914      4.566
REMARK  Name = 
REMARK  8 active torsions:
REMARK  status: ('A' for Active; 'I' for Inactive)
REMARK    1  A    between atoms: C_2  and  C_3
REMARK    2  A    between atoms: C_3  and  C_4
REMARK    3  A    between atoms: C_9  and  C_10
REMARK    4  A    between atoms: C_10  and  C_11
REMARK    5  A    between atoms: C_14  and  C_15
REMARK    6  A    between atoms: C_15  and  O_16
REMARK    7  A    between atoms: O_16  and  C_17
REMARK    8  A    between atoms: N_24  and  C_25
REMARK                            x       y       z     vdW  Elec       q    Type
REMARK                         _______ _______ _______ _____ _____    ______ ____
ROOT
ATOM      4  C   UNL     1      -1.440   0.162  24.389  0.00  0.00    +0.012 C 
ATOM      5  C   UNL     1      -1.817  -0.343  24.923  0.00  0.00    +0.019 C 
ATOM      6  C   UNL     1      -1.396  -0.962  25.271  0.00  0.00    +0.089 C 
ATOM      7  N   UNL     1      -0.601  -1.075  25.087  0.00  0.00    -0.218 NA
ATOM      8  C   UNL     1      -0.225  -0.571  24.554  0.00  0.00    +0.089 C 
ATOM      9  C   UNL     1      -0.645   0.048  24.205  0.00  0.00    +0.024 C 
ENDROOT
BRANCH   4   3
ATOM      3  C   UNL     1      -1.860   0.780  24.040  0.00  0.00    +0.087 C 
BRANCH   3   2
ATOM      1  O   UNL     1      -2.535   1.237  25.213  0.00  0.00    -0.273 OA
ATOM      2  C   UNL     1      -2.539   1.075  24.405  0.00  0.00    +0.241 C 
ATOM     24  N   UNL     1      -3.221   1.208  23.961  0.00  0.00    -0.207 NA
BRANCH  24  25
ATOM     25  C   UNL     1      -3.900   1.504  24.326  0.00  0.00    +0.095 C 
ATOM     26  C   UNL     1      -4.456   0.983  24.644  0.00  0.00    +0.022 C 
ATOM     27  C   UNL     1      -5.135   1.279  25.009  0.00  0.00    +0.002 C 
ATOM     28  C   UNL     1      -5.257   2.094  25.055  0.00  0.00    +0.000 C 
ATOM     29  C   UNL     1      -4.701   2.613  24.736  0.00  0.00    +0.002 C 
ATOM     30  C   UNL     1      -4.022   2.317  24.372  0.00  0.00    +0.022 C 
ENDBRANCH  24  25
ENDBRANCH   3   2
ENDBRANCH   4   3
BRANCH   9  10
ATOM     10  C   UNL     1      -0.268   0.552  23.671  0.00  0.00    +0.051 C 
BRANCH  10  11
ATOM     11  C   UNL     1       0.443   0.325  23.320  0.00  0.00    +0.100 A 
ATOM     12  N   UNL     1       0.536  -0.262  22.749  0.00  0.00    -0.082 NA
ATOM     13  O   UNL     1       1.337  -0.305  22.554  0.00  0.00    -0.354 OA
ATOM     14  C   UNL     1       1.739   0.257  23.005  0.00  0.00    +0.198 A 
ATOM     23  C   UNL     1       1.186   0.646  23.479  0.00  0.00    +0.057 A 
BRANCH  14  15
ATOM     15  C   UNL     1       2.550   0.404  22.986  0.00  0.00    +0.272 C 
BRANCH  15  16
ATOM     16  O   UNL     1       3.080  -0.222  22.893  0.00  0.00    -0.467 OA
BRANCH  16  17
ATOM     17  C   UNL     1       3.863  -0.138  23.137  0.00  0.00    +0.139 A 
ATOM     18  C   UNL     1       4.232  -0.745  23.558  0.00  0.00    +0.037 A 
ATOM     19  C   UNL     1       5.015  -0.661  23.801  0.00  0.00    +0.003 A 
ATOM     20  C   UNL     1       5.431   0.029  23.624  0.00  0.00    +0.000 A 
ATOM     21  C   UNL     1       5.062   0.636  23.203  0.00  0.00    +0.003 A 
ATOM     22  C   UNL     1       4.279   0.552  22.960  0.00  0.00    +0.037 A 
ENDBRANCH  16  17
ENDBRANCH  15  16
ENDBRANCH  14  15
ENDBRANCH  10  11
ENDBRANCH   9  10
TORSDOF 8
ENDMDL
MODEL 8
REMARK VINA RESULT:      -8.5     15.733     17.997
REMARK  Name = 
REMARK  8 active torsions:
REMARK  status: ('A' for Active; 'I' for Inactive)
REMARK    1  A    between atoms: C_2  and  C_3
REMARK    2  A    between atoms: C_3  and  C_4
REMARK    3  A    between atoms: C_9  and  C_10
REMARK    4  A    between atoms: C_10  and  C_11
REMARK    5  A    between atoms: C_14  and  C_15
REMARK    6  A    between atoms: C_15  and  O_16
REMARK    7  A    between atoms: O_16  and  C_17
REMARK    8  A    between atoms: N_24  and  C_25
REMARK                            x       y       z     vdW  Elec       q    Type
REMARK                         _______ _______ _______ _____ _____    ______ ____
ROOT
ATOM      4  C   UNL     1      11.386   8.439  20.819  0.00  0.00    +0.012 C 
ATOM      5  C   UNL     1      10.727   7.946  20.883  0.00  0.00    +0.019 C 
ATOM      6  C   UNL     1      10.674   7.407  21.506  0.00  0.00    +0.089 C 
ATOM      7  N   UNL     1      11.280   7.361  22.063  0.00  0.00    -0.218 NA
ATOM      8  C   UNL     1      11.939   7.853  21.999  0.00  0.00    +0.089 C 
ATOM      9  C   UNL     1      11.991   8.392  21.376  0.00  0.00    +0.024 C 
ENDROOT
BRANCH   4   3
ATOM      3  C   UNL     1      11.438   8.978  20.196  0.00  0.00    +0.087 C 
BRANCH   3   2
ATOM      1  O   UNL     1      10.509   8.336  19.322  0.00  0.00    -0.273 OA
ATOM      2  C   UNL     1      11.211   8.753  19.436  0.00  0.00    +0.241 C 
ATOM     24  N   UNL     1      11.685   8.947  18.790  0.00  0.00    -0.207 NA
BRANCH  24  25
ATOM     25  C   UNL     1      11.457   8.723  18.028  0.00  0.00    +0.095 C 
ATOM     26  C   UNL     1      10.797   9.072  17.676  0.00  0.00    +0.022 C 
ATOM     27  C   UNL     1      10.570   8.848  16.915  0.00  0.00    +0.002 C 
ATOM     28  C   UNL     1      11.002   8.275  16.507  0.00  0.00    +0.000 C 
ATOM     29  C   UNL     1      11.661   7.927  16.860  0.00  0.00    +0.002 C 
ATOM     30  C   UNL     1      11.889   8.151  17.621  0.00  0.00    +0.022 C 
ENDBRANCH  24  25
ENDBRANCH   3   2
ENDBRANCH   4   3
BRANCH   9  10
ATOM     10  C   UNL     1      12.650   8.884  21.312  0.00  0.00    +0.051 C 
BRANCH  10  11
ATOM     11  C   UNL     1      13.398   8.601  21.516  0.00  0.00    +0.100 A 
ATOM     12  N   UNL     1      13.706   8.551  22.279  0.00  0.00    -0.082 NA
ATOM     13  O   UNL     1      14.468   8.237  22.227  0.00  0.00    -0.354 OA
ATOM     14  C   UNL     1      14.631   8.094  21.431  0.00  0.00    +0.198 A 
ATOM     23  C   UNL     1      13.970   8.319  20.991  0.00  0.00    +0.057 A 
BRANCH  14  15
ATOM     15  C   UNL     1      15.331   7.782  21.128  0.00  0.00    +0.272 C 
BRANCH  15  16
ATOM     16  O   UNL     1      15.369   6.985  20.914  0.00  0.00    -0.467 OA
BRANCH  16  17
ATOM     17  C   UNL     1      16.027   6.698  20.508  0.00  0.00    +0.139 A 
ATOM     18  C   UNL     1      16.746   6.607  20.902  0.00  0.00    +0.037 A 
ATOM     19  C   UNL     1      17.404   6.320  20.495  0.00  0.00    +0.003 A 
ATOM     20  C   UNL     1      17.343   6.124  19.696  0.00  0.00    +0.000 A 
ATOM     21  C   UNL     1      16.623   6.216  19.303  0.00  0.00    +0.003 A 
ATOM     22  C   UNL     1      15.966   6.503  19.709  0.00  0.00    +0.037 A 
ENDBRANCH  16  17
ENDBRANCH  15  16
ENDBRANCH  14  15
ENDBRANCH  10  11
ENDBRANCH   9  10
TORSDOF 8
ENDMDL
