REMARK  Name = 
REMARK  8 active torsions:
REMARK  status: ('A' for Active; 'I' for Inactive)
REMARK    1  A    between atoms: O_2  and  C_3
REMARK    2  A    between atoms: C_3  and  C_4
REMARK    3  A    between atoms: C_6  and  C_7
REMARK    4  A    between atoms: C_7  and  C_8
REMARK    5  A    between atoms: C_13  and  C_14
REMARK    6  A    between atoms: C_14  and  N_15
REMARK    7  A    between atoms: N_15  and  C_16
REMARK    8  A    between atoms: C_16  and  C_17
REMARK                            x       y       z     vdW  Elec       q    Type
REMARK                         _______ _______ _______ _____ _____    ______ ____
ROOT
ATOM      8  C   UNL     1       7.327  -4.387   0.000  0.00  0.00    +0.121 C 
ATOM      9  C   UNL     1       7.662  -3.634   0.000  0.00  0.00    +0.033 C 
ATOM     10  C   UNL     1       8.483  -3.547   0.000  0.00  0.00    +0.038 C 
ATOM     11  C   UNL     1       8.968  -4.215   0.000  0.00  0.00    +0.180 C 
ATOM     12  O   UNL     1       9.788  -4.129   0.000  0.00  0.00    -0.220 OA
ATOM     13  C   UNL     1       8.632  -4.969   0.000  0.00  0.00    +0.163 C 
ATOM     24  O   UNL     1       7.812  -5.055   0.000  0.00  0.00    -0.354 OA
ENDROOT
BRANCH   8   7
ATOM      7  C   UNL     1       6.506  -4.474   0.000  0.00  0.00    +0.079 C 
BRANCH   7   6
ATOM      4  C   UNL     1       5.609  -2.537   0.000  0.00  0.00    +0.184 A 
ATOM      5  C   UNL     1       6.277  -3.022   0.000  0.00  0.00    +0.056 A 
ATOM      6  C   UNL     1       6.022  -3.806   0.000  0.00  0.00    +0.103 A 
ATOM     25  N   UNL     1       5.197  -3.806   0.000  0.00  0.00    -0.082 NA
ATOM     26  O   UNL     1       4.942  -3.022   0.000  0.00  0.00    -0.356 OA
BRANCH   4   3
ATOM      3  C   UNL     1       5.609  -1.712   0.000  0.00  0.00    +0.209 C 
BRANCH   3   2
ATOM      1  C   UNL     1       4.895  -0.474   0.000  0.00  0.00    +0.175 C 
ATOM      2  O   UNL     1       4.895  -1.299   0.000  0.00  0.00    -0.343 OA
ENDBRANCH   3   2
ENDBRANCH   4   3
ENDBRANCH   7   6
ENDBRANCH   8   7
BRANCH  13  14
ATOM     14  C   UNL     1       9.117  -5.636   0.000  0.00  0.00    +0.121 C 
BRANCH  14  15
ATOM     15  N   UNL     1       8.782  -6.390   0.000  0.00  0.00    -0.211 NA
BRANCH  15  16
ATOM     16  C   UNL     1       9.267  -7.057   0.000  0.00  0.00    +0.115 C 
BRANCH  16  17
ATOM     17  C   UNL     1       8.931  -7.811   0.000  0.00  0.00    -0.003 A 
ATOM     18  C   UNL     1       9.416  -8.478   0.000  0.00  0.00    -0.003 A 
ATOM     19  C   UNL     1       9.081  -9.232   0.000  0.00  0.00    +0.002 A 
ATOM     20  C   UNL     1       8.260  -9.318   0.000  0.00  0.00    +0.030 A 
ATOM     21  C   UNL     1       7.775  -8.651   0.000  0.00  0.00    +0.140 A 
ATOM     22  F   UNL     1       6.955  -8.737   0.000  0.00  0.00    -0.204 F 
ATOM     23  C   UNL     1       8.111  -7.897   0.000  0.00  0.00    +0.027 A 
ENDBRANCH  16  17
ENDBRANCH  15  16
ENDBRANCH  14  15
ENDBRANCH  13  14
TORSDOF 8
