REMARK  Name = 
REMARK  4 active torsions:
REMARK  status: ('A' for Active; 'I' for Inactive)
REMARK    1  A    between atoms: C_2  and  C_5
REMARK    2  A    between atoms: C_8  and  C_11
REMARK    3  A    between atoms: C_18  and  O_20
REMARK    4  A    between atoms: O_20  and  C_21
REMARK                            x       y       z     vdW  Elec       q    Type
REMARK                         _______ _______ _______ _____ _____    ______ ____
ROOT
ATOM     11  C   UNL     1      -1.115  -3.455   0.000  0.00  0.00    +0.249 C 
ATOM     12  O   UNL     1      -1.830  -3.868   0.000  0.00  0.00    -0.270 OA
ATOM     13  N   UNL     1      -0.401  -3.868   0.000  0.00  0.00    -0.270 N 
ATOM     14  C   UNL     1       0.281  -3.403   0.000  0.00  0.00    +0.126 C 
ATOM     15  C   UNL     1       1.069  -3.646   0.000  0.00  0.00    +0.164 C 
ATOM     16  O   UNL     1       1.371  -4.414   0.000  0.00  0.00    -0.348 OA
ATOM     17  C   UNL     1       0.958  -5.128   0.000  0.00  0.00    +0.187 C 
ATOM     18  C   UNL     1       0.142  -5.251   0.000  0.00  0.00    +0.217 C 
ATOM     19  C   UNL     1      -0.462  -4.690   0.000  0.00  0.00    +0.140 C 
ENDROOT
BRANCH  11   8
ATOM      5  C   UNL     1      -1.115  -0.980   0.000  0.00  0.00    +0.071 A 
ATOM      6  C   UNL     1      -0.401  -1.393   0.000  0.00  0.00    +0.004 A 
ATOM      7  C   UNL     1      -0.401  -2.217   0.000  0.00  0.00    +0.004 A 
ATOM      8  C   UNL     1      -1.115  -2.630   0.000  0.00  0.00    +0.054 A 
ATOM      9  C   UNL     1      -1.830  -2.217   0.000  0.00  0.00    +0.004 A 
ATOM     10  C   UNL     1      -1.830  -1.393   0.000  0.00  0.00    +0.004 A 
BRANCH   5   2
ATOM      1  F   UNL     1      -1.115   0.670   0.000  0.00  0.00    -0.166 F 
ATOM      2  C   UNL     1      -1.115  -0.155   0.000  0.00  0.00    +0.419 C 
ATOM      3  F   UNL     1      -1.940  -0.155   0.000  0.00  0.00    -0.166 F 
ATOM      4  F   UNL     1      -0.290  -0.155   0.000  0.00  0.00    -0.166 F 
ENDBRANCH   5   2
ENDBRANCH  11   8
BRANCH  18  20
ATOM     20  O   UNL     1      -0.101  -6.040   0.000  0.00  0.00    -0.459 OA
BRANCH  20  21
ATOM     21  C   UNL     1      -0.905  -6.223   0.000  0.00  0.00    +0.245 A 
ATOM     22  C   UNL     1      -1.148  -7.012   0.000  0.00  0.00    +0.156 A 
ATOM     23  N   UNL     1      -1.953  -7.195   0.000  0.00  0.00    -0.236 NA
ATOM     24  C   UNL     1      -2.514  -6.590   0.000  0.00  0.00    +0.120 A 
ATOM     25  C   UNL     1      -2.271  -5.802   0.000  0.00  0.00    +0.123 A 
ATOM     26  N   UNL     1      -1.466  -5.619   0.000  0.00  0.00    -0.207 NA
ENDBRANCH  20  21
ENDBRANCH  18  20
TORSDOF 4
