MODEL 1
REMARK VINA RESULT:     -10.6      0.000      0.000
REMARK  Name = 
REMARK  6 active torsions:
REMARK  status: ('A' for Active; 'I' for Inactive)
REMARK    1  A    between atoms: O_2  and  C_3
REMARK    2  A    between atoms: C_6  and  C_7
REMARK    3  A    between atoms: C_7  and  N_8
REMARK    4  A    between atoms: C_13  and  O_15
REMARK    5  A    between atoms: O_15  and  C_16
REMARK    6  A    between atoms: C_19  and  S_22
REMARK                            x       y       z     vdW  Elec       q    Type
REMARK                         _______ _______ _______ _____ _____    ______ ____
ROOT
ATOM      8  N   UNL     1      -3.766   3.178  24.844  0.00  0.00    -0.264 NA
ATOM      9  C   UNL     1      -4.309   3.390  25.429  0.00  0.00    +0.105 C 
ATOM     10  C   UNL     1      -4.967   2.971  25.695  0.00  0.00    +0.160 C 
ATOM     11  O   UNL     1      -5.246   2.236  25.443  0.00  0.00    -0.348 OA
ATOM     12  C   UNL     1      -4.934   1.740  24.863  0.00  0.00    +0.187 C 
ATOM     13  C   UNL     1      -4.267   1.855  24.391  0.00  0.00    +0.211 C 
ATOM     14  C   UNL     1      -3.748   2.495  24.383  0.00  0.00    +0.119 C 
ENDROOT
BRANCH   8   7
ATOM      7  C   UNL     1      -3.161   3.722  24.704  0.00  0.00    +0.099 C 
BRANCH   7   6
ATOM      3  C   UNL     1      -0.895   3.317  25.612  0.00  0.00    +0.139 A 
ATOM      4  C   UNL     1      -1.518   3.495  26.122  0.00  0.00    +0.037 A 
ATOM      5  C   UNL     1      -2.273   3.630  25.819  0.00  0.00    +0.000 A 
ATOM      6  C   UNL     1      -2.406   3.587  25.007  0.00  0.00    -0.006 A 
ATOM     26  C   UNL     1      -1.782   3.408  24.496  0.00  0.00    +0.000 A 
ATOM     27  C   UNL     1      -1.028   3.273  24.798  0.00  0.00    +0.037 A 
BRANCH   3   2
ATOM      1  C   UNL     1       0.102   2.413  26.096  0.00  0.00    +0.252 C 
ATOM      2  O   UNL     1      -0.139   3.182  25.914  0.00  0.00    -0.471 OA
ENDBRANCH   3   2
ENDBRANCH   7   6
ENDBRANCH   8   7
BRANCH  13  15
ATOM     15  O   UNL     1      -4.099   1.249  23.856  0.00  0.00    -0.475 OA
BRANCH  15  16
ATOM     16  C   UNL     1      -3.925   0.492  24.132  0.00  0.00    +0.139 A 
ATOM     17  C   UNL     1      -4.533  -0.056  24.242  0.00  0.00    +0.038 A 
ATOM     18  C   UNL     1      -4.359  -0.813  24.519  0.00  0.00    +0.021 A 
ATOM     19  C   UNL     1      -3.579  -1.023  24.687  0.00  0.00    +0.106 A 
ATOM     20  C   UNL     1      -2.972  -0.476  24.577  0.00  0.00    +0.021 A 
ATOM     21  C   UNL     1      -3.146   0.282  24.300  0.00  0.00    +0.038 A 
BRANCH  19  22
ATOM     22  S   UNL     1      -3.407  -1.781  24.964  0.00  0.00    +0.010 S 
ATOM     23  C   UNL     1      -3.234  -2.538  25.240  0.00  0.00    +0.182 C 
ATOM     24  O   UNL     1      -3.542  -1.529  25.737  0.00  0.00    -0.169 OA
ATOM     25  O   UNL     1      -3.271  -2.034  24.190  0.00  0.00    -0.169 OA
ENDBRANCH  19  22
ENDBRANCH  15  16
ENDBRANCH  13  15
TORSDOF 6
ENDMDL
MODEL 2
REMARK VINA RESULT:     -10.3      1.172      2.836
REMARK  Name = 
REMARK  6 active torsions:
REMARK  status: ('A' for Active; 'I' for Inactive)
REMARK    1  A    between atoms: O_2  and  C_3
REMARK    2  A    between atoms: C_6  and  C_7
REMARK    3  A    between atoms: C_7  and  N_8
REMARK    4  A    between atoms: C_13  and  O_15
REMARK    5  A    between atoms: O_15  and  C_16
REMARK    6  A    between atoms: C_19  and  S_22
REMARK                            x       y       z     vdW  Elec       q    Type
REMARK                         _______ _______ _______ _____ _____    ______ ____
ROOT
ATOM      8  N   UNL     1      -1.495   2.865  25.020  0.00  0.00    -0.264 NA
ATOM      9  C   UNL     1      -1.078   3.020  25.716  0.00  0.00    +0.105 C 
ATOM     10  C   UNL     1      -0.579   2.518  26.138  0.00  0.00    +0.160 C 
ATOM     11  O   UNL     1      -0.371   1.737  25.970  0.00  0.00    -0.348 OA
ATOM     12  C   UNL     1      -0.613   1.266  25.337  0.00  0.00    +0.187 C 
ATOM     13  C   UNL     1      -1.122   1.459  24.717  0.00  0.00    +0.211 C 
ATOM     14  C   UNL     1      -1.514   2.171  24.576  0.00  0.00    +0.119 C 
ENDROOT
BRANCH   8   7
ATOM      7  C   UNL     1      -1.953   3.488  24.732  0.00  0.00    +0.099 C 
BRANCH   7   6
ATOM      3  C   UNL     1      -4.347   3.649  25.336  0.00  0.00    +0.139 A 
ATOM      4  C   UNL     1      -3.768   3.791  25.905  0.00  0.00    +0.037 A 
ATOM      5  C   UNL     1      -2.970   3.738  25.704  0.00  0.00    +0.000 A 
ATOM      6  C   UNL     1      -2.751   3.542  24.933  0.00  0.00    -0.006 A 
ATOM     26  C   UNL     1      -3.331   3.399  24.363  0.00  0.00    +0.000 A 
ATOM     27  C   UNL     1      -4.128   3.453  24.564  0.00  0.00    +0.037 A 
BRANCH   3   2
ATOM      1  C   UNL     1      -5.575   3.019  25.709  0.00  0.00    +0.252 C 
ATOM      2  O   UNL     1      -5.146   3.703  25.537  0.00  0.00    -0.471 OA
ENDBRANCH   3   2
ENDBRANCH   7   6
ENDBRANCH   8   7
BRANCH  13  15
ATOM     15  O   UNL     1      -1.255   0.861  24.164  0.00  0.00    -0.475 OA
BRANCH  15  16
ATOM     16  C   UNL     1      -1.698   0.198  24.374  0.00  0.00    +0.139 A 
ATOM     17  C   UNL     1      -1.322  -0.464  24.693  0.00  0.00    +0.038 A 
ATOM     18  C   UNL     1      -1.766  -1.128  24.904  0.00  0.00    +0.021 A 
ATOM     19  C   UNL     1      -2.584  -1.129  24.796  0.00  0.00    +0.106 A 
ATOM     20  C   UNL     1      -2.959  -0.468  24.477  0.00  0.00    +0.021 A 
ATOM     21  C   UNL     1      -2.515   0.196  24.267  0.00  0.00    +0.038 A 
BRANCH  19  22
ATOM     22  S   UNL     1      -3.026  -1.793  25.006  0.00  0.00    +0.010 S 
ATOM     23  C   UNL     1      -3.468  -2.457  25.217  0.00  0.00    +0.182 C 
ATOM     24  O   UNL     1      -3.267  -1.413  25.698  0.00  0.00    -0.169 OA
ATOM     25  O   UNL     1      -2.786  -2.174  24.315  0.00  0.00    -0.169 OA
ENDBRANCH  19  22
ENDBRANCH  15  16
ENDBRANCH  13  15
TORSDOF 6
ENDMDL
MODEL 3
REMARK VINA RESULT:     -10.3      1.365      4.050
REMARK  Name = 
REMARK  6 active torsions:
REMARK  status: ('A' for Active; 'I' for Inactive)
REMARK    1  A    between atoms: O_2  and  C_3
REMARK    2  A    between atoms: C_6  and  C_7
REMARK    3  A    between atoms: C_7  and  N_8
REMARK    4  A    between atoms: C_13  and  O_15
REMARK    5  A    between atoms: O_15  and  C_16
REMARK    6  A    between atoms: C_19  and  S_22
REMARK                            x       y       z     vdW  Elec       q    Type
REMARK                         _______ _______ _______ _____ _____    ______ ____
ROOT
ATOM      8  N   UNL     1      -4.875   1.717  24.742  0.00  0.00    -0.264 NA
ATOM      9  C   UNL     1      -5.467   1.830  25.306  0.00  0.00    +0.105 C 
ATOM     10  C   UNL     1      -5.585   2.475  25.805  0.00  0.00    +0.160 C 
ATOM     11  O   UNL     1      -5.142   3.168  25.865  0.00  0.00    -0.348 OA
ATOM     12  C   UNL     1      -4.470   3.386  25.438  0.00  0.00    +0.187 C 
ATOM     13  C   UNL     1      -4.076   2.966  24.848  0.00  0.00    +0.211 C 
ATOM     14  C   UNL     1      -4.257   2.223  24.538  0.00  0.00    +0.119 C 
ENDROOT
BRANCH   8   7
ATOM      7  C   UNL     1      -4.907   1.005  24.327  0.00  0.00    +0.099 C 
BRANCH   7   6
ATOM      3  C   UNL     1      -3.511  -0.910  25.041  0.00  0.00    +0.139 A 
ATOM      4  C   UNL     1      -4.028  -0.553  25.576  0.00  0.00    +0.037 A 
ATOM      5  C   UNL     1      -4.493   0.084  25.338  0.00  0.00    +0.000 A 
ATOM      6  C   UNL     1      -4.442   0.367  24.565  0.00  0.00    -0.006 A 
ATOM     26  C   UNL     1      -3.925   0.011  24.029  0.00  0.00    +0.000 A 
ATOM     27  C   UNL     1      -3.460  -0.627  24.267  0.00  0.00    +0.037 A 
BRANCH   3   2
ATOM      1  C   UNL     1      -3.225  -2.310  25.017  0.00  0.00    +0.252 C 
ATOM      2  O   UNL     1      -3.046  -1.548  25.279  0.00  0.00    -0.471 OA
ENDBRANCH   3   2
ENDBRANCH   7   6
ENDBRANCH   8   7
BRANCH  13  15
ATOM     15  O   UNL     1      -3.413   3.337  24.525  0.00  0.00    -0.475 OA
BRANCH  15  16
ATOM     16  C   UNL     1      -2.665   3.191  24.839  0.00  0.00    +0.139 A 
ATOM     17  C   UNL     1      -2.102   2.786  24.390  0.00  0.00    +0.038 A 
ATOM     18  C   UNL     1      -1.353   2.640  24.705  0.00  0.00    +0.021 A 
ATOM     19  C   UNL     1      -1.167   2.897  25.466  0.00  0.00    +0.106 A 
ATOM     20  C   UNL     1      -1.730   3.301  25.914  0.00  0.00    +0.021 A 
ATOM     21  C   UNL     1      -2.479   3.448  25.600  0.00  0.00    +0.038 A 
BRANCH  19  22
ATOM     22  S   UNL     1      -0.419   2.750  25.779  0.00  0.00    +0.010 S 
ATOM     23  C   UNL     1       0.330   2.603  26.092  0.00  0.00    +0.182 C 
ATOM     24  O   UNL     1      -0.156   3.478  25.495  0.00  0.00    -0.169 OA
ATOM     25  O   UNL     1      -0.680   2.021  26.064  0.00  0.00    -0.169 OA
ENDBRANCH  19  22
ENDBRANCH  15  16
ENDBRANCH  13  15
TORSDOF 6
ENDMDL
MODEL 4
REMARK VINA RESULT:     -10.2      1.808      3.087
REMARK  Name = 
REMARK  6 active torsions:
REMARK  status: ('A' for Active; 'I' for Inactive)
REMARK    1  A    between atoms: O_2  and  C_3
REMARK    2  A    between atoms: C_6  and  C_7
REMARK    3  A    between atoms: C_7  and  N_8
REMARK    4  A    between atoms: C_13  and  O_15
REMARK    5  A    between atoms: O_15  and  C_16
REMARK    6  A    between atoms: C_19  and  S_22
REMARK                            x       y       z     vdW  Elec       q    Type
REMARK                         _______ _______ _______ _____ _____    ______ ____
ROOT
ATOM      8  N   UNL     1      -0.471   1.431  25.263  0.00  0.00    -0.264 NA
ATOM      9  C   UNL     1      -0.063   1.593  24.564  0.00  0.00    +0.105 C 
ATOM     10  C   UNL     1       0.151   1.072  23.962  0.00  0.00    +0.160 C 
ATOM     11  O   UNL     1       0.011   0.260  23.909  0.00  0.00    -0.348 OA
ATOM     12  C   UNL     1      -0.378  -0.230  24.446  0.00  0.00    +0.187 C 
ATOM     13  C   UNL     1      -0.723  -0.030  25.169  0.00  0.00    +0.211 C 
ATOM     14  C   UNL     1      -0.764   0.709  25.532  0.00  0.00    +0.119 C 
ENDROOT
BRANCH   8   7
ATOM      7  C   UNL     1      -0.601   2.078  25.759  0.00  0.00    +0.099 C 
BRANCH   7   6
ATOM      3  C   UNL     1      -2.245   3.814  25.121  0.00  0.00    +0.139 A 
ATOM      4  C   UNL     1      -2.504   3.091  25.420  0.00  0.00    +0.037 A 
ATOM      5  C   UNL     1      -1.957   2.512  25.632  0.00  0.00    +0.000 A 
ATOM      6  C   UNL     1      -1.149   2.656  25.546  0.00  0.00    -0.006 A 
ATOM     26  C   UNL     1      -0.890   3.381  25.247  0.00  0.00    +0.000 A 
ATOM     27  C   UNL     1      -1.437   3.959  25.034  0.00  0.00    +0.037 A 
BRANCH   3   2
ATOM      1  C   UNL     1      -3.559   4.176  24.690  0.00  0.00    +0.252 C 
ATOM      2  O   UNL     1      -2.793   4.393  24.908  0.00  0.00    -0.471 OA
ENDBRANCH   3   2
ENDBRANCH   7   6
ENDBRANCH   8   7
BRANCH  13  15
ATOM     15  O   UNL     1      -1.073  -0.653  25.582  0.00  0.00    -0.475 OA
BRANCH  15  16
ATOM     16  C   UNL     1      -1.728  -1.041  25.265  0.00  0.00    +0.139 A 
ATOM     17  C   UNL     1      -2.488  -0.759  25.418  0.00  0.00    +0.038 A 
ATOM     18  C   UNL     1      -3.144  -1.148  25.101  0.00  0.00    +0.021 A 
ATOM     19  C   UNL     1      -3.038  -1.818  24.630  0.00  0.00    +0.106 A 
ATOM     20  C   UNL     1      -2.279  -2.099  24.477  0.00  0.00    +0.021 A 
ATOM     21  C   UNL     1      -1.623  -1.710  24.795  0.00  0.00    +0.038 A 
BRANCH  19  22
ATOM     22  S   UNL     1      -3.694  -2.205  24.313  0.00  0.00    +0.010 S 
ATOM     23  C   UNL     1      -4.349  -2.593  23.997  0.00  0.00    +0.182 C 
ATOM     24  O   UNL     1      -3.846  -1.554  23.831  0.00  0.00    -0.169 OA
ATOM     25  O   UNL     1      -3.543  -2.857  24.796  0.00  0.00    -0.169 OA
ENDBRANCH  19  22
ENDBRANCH  15  16
ENDBRANCH  13  15
TORSDOF 6
ENDMDL
MODEL 5
REMARK VINA RESULT:     -10.1      2.242      5.091
REMARK  Name = 
REMARK  6 active torsions:
REMARK  status: ('A' for Active; 'I' for Inactive)
REMARK    1  A    between atoms: O_2  and  C_3
REMARK    2  A    between atoms: C_6  and  C_7
REMARK    3  A    between atoms: C_7  and  N_8
REMARK    4  A    between atoms: C_13  and  O_15
REMARK    5  A    between atoms: O_15  and  C_16
REMARK    6  A    between atoms: C_19  and  S_22
REMARK                            x       y       z     vdW  Elec       q    Type
REMARK                         _______ _______ _______ _____ _____    ______ ____
ROOT
ATOM      8  N   UNL     1      -0.663  -0.460  24.888  0.00  0.00    -0.264 NA
ATOM      9  C   UNL     1      -0.276  -0.791  24.238  0.00  0.00    +0.105 C 
ATOM     10  C   UNL     1       0.139  -0.408  23.637  0.00  0.00    +0.160 C 
ATOM     11  O   UNL     1       0.270   0.400  23.536  0.00  0.00    -0.348 OA
ATOM     12  C   UNL     1       0.017   1.025  24.012  0.00  0.00    +0.187 C 
ATOM     13  C   UNL     1      -0.428   0.995  24.707  0.00  0.00    +0.211 C 
ATOM     14  C   UNL     1      -0.730   0.334  25.095  0.00  0.00    +0.119 C 
ENDROOT
BRANCH   8   7
ATOM      7  C   UNL     1      -1.031  -0.997  25.395  0.00  0.00    +0.099 C 
BRANCH   7   6
ATOM      3  C   UNL     1      -3.135  -2.107  24.711  0.00  0.00    +0.139 A 
ATOM      4  C   UNL     1      -3.159  -1.424  25.173  0.00  0.00    +0.037 A 
ATOM      5  C   UNL     1      -2.459  -1.054  25.400  0.00  0.00    +0.000 A 
ATOM      6  C   UNL     1      -1.732  -1.367  25.167  0.00  0.00    -0.006 A 
ATOM     26  C   UNL     1      -1.707  -2.051  24.705  0.00  0.00    +0.000 A 
ATOM     27  C   UNL     1      -2.407  -2.420  24.477  0.00  0.00    +0.037 A 
BRANCH   3   2
ATOM      1  C   UNL     1      -4.304  -2.145  23.890  0.00  0.00    +0.252 C 
ATOM      2  O   UNL     1      -3.836  -2.477  24.483  0.00  0.00    -0.471 OA
ENDBRANCH   3   2
ENDBRANCH   7   6
ENDBRANCH   8   7
BRANCH  13  15
ATOM     15  O   UNL     1      -0.592   1.724  25.058  0.00  0.00    -0.475 OA
BRANCH  15  16
ATOM     16  C   UNL     1      -1.296   2.117  24.882  0.00  0.00    +0.139 A 
ATOM     17  C   UNL     1      -1.840   2.276  25.482  0.00  0.00    +0.038 A 
ATOM     18  C   UNL     1      -2.544   2.669  25.305  0.00  0.00    +0.021 A 
ATOM     19  C   UNL     1      -2.704   2.902  24.530  0.00  0.00    +0.106 A 
ATOM     20  C   UNL     1      -2.160   2.743  23.931  0.00  0.00    +0.021 A 
ATOM     21  C   UNL     1      -1.456   2.350  24.107  0.00  0.00    +0.038 A 
BRANCH  19  22
ATOM     22  S   UNL     1      -3.408   3.295  24.355  0.00  0.00    +0.010 S 
ATOM     23  C   UNL     1      -4.112   3.687  24.180  0.00  0.00    +0.182 C 
ATOM     24  O   UNL     1      -3.726   2.593  24.061  0.00  0.00    -0.169 OA
ATOM     25  O   UNL     1      -3.091   3.997  24.649  0.00  0.00    -0.169 OA
ENDBRANCH  19  22
ENDBRANCH  15  16
ENDBRANCH  13  15
TORSDOF 6
ENDMDL
MODEL 6
REMARK VINA RESULT:     -10.1      1.668      3.223
REMARK  Name = 
REMARK  6 active torsions:
REMARK  status: ('A' for Active; 'I' for Inactive)
REMARK    1  A    between atoms: O_2  and  C_3
REMARK    2  A    between atoms: C_6  and  C_7
REMARK    3  A    between atoms: C_7  and  N_8
REMARK    4  A    between atoms: C_13  and  O_15
REMARK    5  A    between atoms: O_15  and  C_16
REMARK    6  A    between atoms: C_19  and  S_22
REMARK                            x       y       z     vdW  Elec       q    Type
REMARK                         _______ _______ _______ _____ _____    ______ ____
ROOT
ATOM      8  N   UNL     1      -1.086   0.415  24.733  0.00  0.00    -0.264 NA
ATOM      9  C   UNL     1      -0.836  -0.084  25.342  0.00  0.00    +0.105 C 
ATOM     10  C   UNL     1      -1.265  -0.665  25.740  0.00  0.00    +0.160 C 
ATOM     11  O   UNL     1      -2.051  -0.891  25.629  0.00  0.00    -0.348 OA
ATOM     12  C   UNL     1      -2.601  -0.591  25.092  0.00  0.00    +0.187 C 
ATOM     13  C   UNL     1      -2.501   0.009  24.533  0.00  0.00    +0.211 C 
ATOM     14  C   UNL     1      -1.826   0.455  24.374  0.00  0.00    +0.119 C 
ENDROOT
BRANCH   8   7
ATOM      7  C   UNL     1      -0.519   0.942  24.448  0.00  0.00    +0.099 C 
BRANCH   7   6
ATOM      3  C   UNL     1      -0.549   3.307  25.174  0.00  0.00    +0.139 A 
ATOM      4  C   UNL     1      -0.418   2.708  25.725  0.00  0.00    +0.037 A 
ATOM      5  C   UNL     1      -0.408   1.920  25.484  0.00  0.00    +0.000 A 
ATOM      6  C   UNL     1      -0.529   1.730  24.690  0.00  0.00    -0.006 A 
ATOM     26  C   UNL     1      -0.660   2.330  24.138  0.00  0.00    +0.000 A 
ATOM     27  C   UNL     1      -0.670   3.118  24.380  0.00  0.00    +0.037 A 
BRANCH   3   2
ATOM      1  C   UNL     1      -1.124   4.615  25.110  0.00  0.00    +0.252 C 
ATOM      2  O   UNL     1      -0.559   4.096  25.416  0.00  0.00    -0.471 OA
ENDBRANCH   3   2
ENDBRANCH   7   6
ENDBRANCH   8   7
BRANCH  13  15
ATOM     15  O   UNL     1      -3.164   0.183  24.073  0.00  0.00    -0.475 OA
BRANCH  15  16
ATOM     16  C   UNL     1      -3.749   0.683  24.368  0.00  0.00    +0.139 A 
ATOM     17  C   UNL     1      -3.812   1.456  24.085  0.00  0.00    +0.038 A 
ATOM     18  C   UNL     1      -4.398   1.957  24.381  0.00  0.00    +0.021 A 
ATOM     19  C   UNL     1      -4.921   1.684  24.958  0.00  0.00    +0.106 A 
ATOM     20  C   UNL     1      -4.858   0.912  25.240  0.00  0.00    +0.021 A 
ATOM     21  C   UNL     1      -4.272   0.412  24.945  0.00  0.00    +0.038 A 
BRANCH  19  22
ATOM     22  S   UNL     1      -5.506   2.185  25.252  0.00  0.00    +0.010 S 
ATOM     23  C   UNL     1      -6.092   2.686  25.547  0.00  0.00    +0.182 C 
ATOM     24  O   UNL     1      -4.938   2.590  25.692  0.00  0.00    -0.169 OA
ATOM     25  O   UNL     1      -6.075   1.781  24.813  0.00  0.00    -0.169 OA
ENDBRANCH  19  22
ENDBRANCH  15  16
ENDBRANCH  13  15
TORSDOF 6
ENDMDL
MODEL 7
REMARK VINA RESULT:     -10.0      1.677      4.270
REMARK  Name = 
REMARK  6 active torsions:
REMARK  status: ('A' for Active; 'I' for Inactive)
REMARK    1  A    between atoms: O_2  and  C_3
REMARK    2  A    between atoms: C_6  and  C_7
REMARK    3  A    between atoms: C_7  and  N_8
REMARK    4  A    between atoms: C_13  and  O_15
REMARK    5  A    between atoms: O_15  and  C_16
REMARK    6  A    between atoms: C_19  and  S_22
REMARK                            x       y       z     vdW  Elec       q    Type
REMARK                         _______ _______ _______ _____ _____    ______ ____
ROOT
ATOM      8  N   UNL     1      -0.707   1.748  24.849  0.00  0.00    -0.264 NA
ATOM      9  C   UNL     1      -0.141   1.856  25.440  0.00  0.00    +0.105 C 
ATOM     10  C   UNL     1       0.001   2.526  25.900  0.00  0.00    +0.160 C 
ATOM     11  O   UNL     1      -0.387   3.254  25.883  0.00  0.00    -0.348 OA
ATOM     12  C   UNL     1      -1.014   3.490  25.402  0.00  0.00    +0.187 C 
ATOM     13  C   UNL     1      -1.407   3.058  24.819  0.00  0.00    +0.211 C 
ATOM     14  C   UNL     1      -1.270   2.283  24.573  0.00  0.00    +0.119 C 
ENDROOT
BRANCH   8   7
ATOM      7  C   UNL     1      -0.709   1.007  24.487  0.00  0.00    +0.099 C 
BRANCH   7   6
ATOM      3  C   UNL     1      -2.173  -0.791  25.354  0.00  0.00    +0.139 A 
ATOM      4  C   UNL     1      -2.321  -0.458  24.613  0.00  0.00    +0.037 A 
ATOM      5  C   UNL     1      -1.833   0.140  24.325  0.00  0.00    +0.000 A 
ATOM      6  C   UNL     1      -1.197   0.408  24.776  0.00  0.00    -0.006 A 
ATOM     26  C   UNL     1      -1.049   0.075  25.517  0.00  0.00    +0.000 A 
ATOM     27  C   UNL     1      -1.536  -0.523  25.806  0.00  0.00    +0.037 A 
BRANCH   3   2
ATOM      1  C   UNL     1      -3.473  -1.259  25.721  0.00  0.00    +0.252 C 
ATOM      2  O   UNL     1      -2.661  -1.390  25.642  0.00  0.00    -0.471 OA
ENDBRANCH   3   2
ENDBRANCH   7   6
ENDBRANCH   8   7
BRANCH  13  15
ATOM     15  O   UNL     1      -2.018   3.455  24.430  0.00  0.00    -0.475 OA
BRANCH  15  16
ATOM     16  C   UNL     1      -2.795   3.373  24.693  0.00  0.00    +0.139 A 
ATOM     17  C   UNL     1      -3.367   3.047  24.195  0.00  0.00    +0.038 A 
ATOM     18  C   UNL     1      -4.145   2.965  24.458  0.00  0.00    +0.021 A 
ATOM     19  C   UNL     1      -4.350   3.207  25.220  0.00  0.00    +0.106 A 
ATOM     20  C   UNL     1      -3.779   3.532  25.718  0.00  0.00    +0.021 A 
ATOM     21  C   UNL     1      -3.001   3.615  25.454  0.00  0.00    +0.038 A 
BRANCH  19  22
ATOM     22  S   UNL     1      -5.128   3.125  25.482  0.00  0.00    +0.010 S 
ATOM     23  C   UNL     1      -5.905   3.042  25.745  0.00  0.00    +0.182 C 
ATOM     24  O   UNL     1      -5.017   2.311  25.555  0.00  0.00    -0.169 OA
ATOM     25  O   UNL     1      -5.240   3.938  25.410  0.00  0.00    -0.169 OA
ENDBRANCH  19  22
ENDBRANCH  15  16
ENDBRANCH  13  15
TORSDOF 6
ENDMDL
MODEL 8
REMARK VINA RESULT:      -9.9      1.685      3.415
REMARK  Name = 
REMARK  6 active torsions:
REMARK  status: ('A' for Active; 'I' for Inactive)
REMARK    1  A    between atoms: O_2  and  C_3
REMARK    2  A    between atoms: C_6  and  C_7
REMARK    3  A    between atoms: C_7  and  N_8
REMARK    4  A    between atoms: C_13  and  O_15
REMARK    5  A    between atoms: O_15  and  C_16
REMARK    6  A    between atoms: C_19  and  S_22
REMARK                            x       y       z     vdW  Elec       q    Type
REMARK                         _______ _______ _______ _____ _____    ______ ____
ROOT
ATOM      8  N   UNL     1      -2.913   3.562  24.647  0.00  0.00    -0.264 NA
ATOM      9  C   UNL     1      -2.859   4.056  25.306  0.00  0.00    +0.105 C 
ATOM     10  C   UNL     1      -2.210   4.190  25.797  0.00  0.00    +0.160 C 
ATOM     11  O   UNL     1      -1.454   3.864  25.750  0.00  0.00    -0.348 OA
ATOM     12  C   UNL     1      -1.161   3.323  25.201  0.00  0.00    +0.187 C 
ATOM     13  C   UNL     1      -1.551   2.974  24.563  0.00  0.00    +0.211 C 
ATOM     14  C   UNL     1      -2.330   3.081  24.317  0.00  0.00    +0.119 C 
ENDROOT
BRANCH   8   7
ATOM      7  C   UNL     1      -3.646   3.547  24.270  0.00  0.00    +0.099 C 
BRANCH   7   6
ATOM      3  C   UNL     1      -5.531   2.294  25.270  0.00  0.00    +0.139 A 
ATOM      4  C   UNL     1      -5.060   1.940  24.693  0.00  0.00    +0.037 A 
ATOM      5  C   UNL     1      -4.432   2.357  24.360  0.00  0.00    +0.000 A 
ATOM      6  C   UNL     1      -4.274   3.130  24.603  0.00  0.00    -0.006 A 
ATOM     26  C   UNL     1      -4.746   3.484  25.181  0.00  0.00    +0.000 A 
ATOM     27  C   UNL     1      -5.374   3.067  25.514  0.00  0.00    +0.037 A 
BRANCH   3   2
ATOM      1  C   UNL     1      -6.283   1.898  26.419  0.00  0.00    +0.252 C 
ATOM      2  O   UNL     1      -6.159   1.876  25.603  0.00  0.00    -0.471 OA
ENDBRANCH   3   2
ENDBRANCH   7   6
ENDBRANCH   8   7
BRANCH  13  15
ATOM     15  O   UNL     1      -1.101   2.449  24.112  0.00  0.00    -0.475 OA
BRANCH  15  16
ATOM     16  C   UNL     1      -1.036   1.660  24.342  0.00  0.00    +0.139 A 
ATOM     17  C   UNL     1      -1.400   1.070  23.894  0.00  0.00    +0.038 A 
ATOM     18  C   UNL     1      -1.335   0.279  24.124  0.00  0.00    +0.021 A 
ATOM     19  C   UNL     1      -0.907   0.080  24.801  0.00  0.00    +0.106 A 
ATOM     20  C   UNL     1      -0.544   0.670  25.248  0.00  0.00    +0.021 A 
ATOM     21  C   UNL     1      -0.608   1.460  25.018  0.00  0.00    +0.038 A 
BRANCH  19  22
ATOM     22  S   UNL     1      -0.843  -0.710  25.030  0.00  0.00    +0.010 S 
ATOM     23  C   UNL     1      -0.778  -1.499  25.259  0.00  0.00    +0.182 C 
ATOM     24  O   UNL     1      -1.410  -0.586  25.615  0.00  0.00    -0.169 OA
ATOM     25  O   UNL     1      -0.275  -0.834  24.445  0.00  0.00    -0.169 OA
ENDBRANCH  19  22
ENDBRANCH  15  16
ENDBRANCH  13  15
TORSDOF 6
ENDMDL
