MODEL 1
REMARK VINA RESULT:      -5.9      0.000      0.000
REMARK  Name = 
REMARK  2 active torsions:
REMARK  status: ('A' for Active; 'I' for Inactive)
REMARK    1  A    between atoms: N_4  and  C_5
REMARK    2  A    between atoms: C_8  and  C_9
REMARK                            x       y       z     vdW  Elec       q    Type
REMARK                         _______ _______ _______ _____ _____    ______ ____
ROOT
ATOM      5  C   UNL     1      -3.664   3.452  25.039  0.00  0.00    +0.158 C 
ATOM      6  C   UNL     1      -4.141   3.623  25.690  0.00  0.00    +0.166 C 
ATOM      7  O   UNL     1      -4.812   3.146  25.645  0.00  0.00    -0.349 OA
ATOM      8  C   UNL     1      -4.750   2.681  24.967  0.00  0.00    +0.180 C 
ATOM     11  C   UNL     1      -4.041   2.870  24.592  0.00  0.00    +0.204 C 
ATOM     12  O   UNL     1      -3.757   2.535  23.894  0.00  0.00    -0.219 OA
ENDROOT
BRANCH   5   4
ATOM      1  C   UNL     1      -1.765   4.500  25.292  0.00  0.00    +0.096 C 
ATOM      2  C   UNL     1      -2.492   4.150  25.466  0.00  0.00    +0.242 C 
ATOM      3  O   UNL     1      -2.774   4.147  26.242  0.00  0.00    -0.273 OA
ATOM      4  N   UNL     1      -2.937   3.802  24.865  0.00  0.00    -0.202 NA
ENDBRANCH   5   4
BRANCH   8   9
ATOM      9  C   UNL     1      -5.302   2.124  24.709  0.00  0.00    +0.214 C 
ATOM     10  O   UNL     1      -6.021   2.043  25.105  0.00  0.00    -0.218 OA
ENDBRANCH   8   9
TORSDOF 2
ENDMDL
MODEL 2
REMARK VINA RESULT:      -5.7      1.583      2.238
REMARK  Name = 
REMARK  2 active torsions:
REMARK  status: ('A' for Active; 'I' for Inactive)
REMARK    1  A    between atoms: N_4  and  C_5
REMARK    2  A    between atoms: C_8  and  C_9
REMARK                            x       y       z     vdW  Elec       q    Type
REMARK                         _______ _______ _______ _____ _____    ______ ____
ROOT
ATOM      5  C   UNL     1      -3.970   2.471  24.180  0.00  0.00    +0.158 C 
ATOM      6  C   UNL     1      -4.317   1.775  24.454  0.00  0.00    +0.166 C 
ATOM      7  O   UNL     1      -4.836   1.972  25.064  0.00  0.00    -0.349 OA
ATOM      8  C   UNL     1      -4.810   2.790  25.167  0.00  0.00    +0.180 C 
ATOM     11  C   UNL     1      -4.274   3.099  24.621  0.00  0.00    +0.204 C 
ATOM     12  O   UNL     1      -4.078   3.895  24.531  0.00  0.00    -0.219 OA
ENDROOT
BRANCH   5   4
ATOM      1  C   UNL     1      -2.506   1.908  22.661  0.00  0.00    +0.096 C 
ATOM      2  C   UNL     1      -3.061   1.849  23.269  0.00  0.00    +0.242 C 
ATOM      3  O   UNL     1      -3.262   1.109  23.575  0.00  0.00    -0.273 OA
ATOM      4  N   UNL     1      -3.415   2.530  23.572  0.00  0.00    -0.202 NA
ENDBRANCH   5   4
BRANCH   8   9
ATOM      9  C   UNL     1      -5.243   3.223  25.720  0.00  0.00    +0.214 C 
ATOM     10  O   UNL     1      -5.694   2.832  26.288  0.00  0.00    -0.218 OA
ENDBRANCH   8   9
TORSDOF 2
ENDMDL
MODEL 3
REMARK VINA RESULT:      -5.7      0.901      2.823
REMARK  Name = 
REMARK  2 active torsions:
REMARK  status: ('A' for Active; 'I' for Inactive)
REMARK    1  A    between atoms: N_4  and  C_5
REMARK    2  A    between atoms: C_8  and  C_9
REMARK                            x       y       z     vdW  Elec       q    Type
REMARK                         _______ _______ _______ _____ _____    ______ ____
ROOT
ATOM      5  C   UNL     1      -3.959   3.116  25.154  0.00  0.00    +0.158 C 
ATOM      6  C   UNL     1      -4.041   3.627  25.797  0.00  0.00    +0.166 C 
ATOM      7  O   UNL     1      -3.346   4.065  25.864  0.00  0.00    -0.349 OA
ATOM      8  C   UNL     1      -2.834   3.826  25.263  0.00  0.00    +0.180 C 
ATOM     11  C   UNL     1      -3.212   3.239  24.825  0.00  0.00    +0.204 C 
ATOM     12  O   UNL     1      -2.900   2.844  24.171  0.00  0.00    -0.219 OA
ENDROOT
BRANCH   5   4
ATOM      1  C   UNL     1      -5.806   1.960  25.021  0.00  0.00    +0.096 C 
ATOM      2  C   UNL     1      -5.241   2.499  25.288  0.00  0.00    +0.242 C 
ATOM      3  O   UNL     1      -5.394   2.962  25.954  0.00  0.00    -0.273 OA
ATOM      4  N   UNL     1      -4.523   2.577  24.888  0.00  0.00    -0.202 NA
ENDBRANCH   5   4
BRANCH   8   9
ATOM      9  C   UNL     1      -2.075   4.121  25.125  0.00  0.00    +0.214 C 
ATOM     10  O   UNL     1      -1.822   4.803  25.514  0.00  0.00    -0.218 OA
ENDBRANCH   8   9
TORSDOF 2
ENDMDL
MODEL 4
REMARK VINA RESULT:      -5.7      1.926      3.219
REMARK  Name = 
REMARK  2 active torsions:
REMARK  status: ('A' for Active; 'I' for Inactive)
REMARK    1  A    between atoms: N_4  and  C_5
REMARK    2  A    between atoms: C_8  and  C_9
REMARK                            x       y       z     vdW  Elec       q    Type
REMARK                         _______ _______ _______ _____ _____    ______ ____
ROOT
ATOM      5  C   UNL     1      -4.415   1.138  24.887  0.00  0.00    +0.158 C 
ATOM      6  C   UNL     1      -3.705   1.536  24.752  0.00  0.00    +0.166 C 
ATOM      7  O   UNL     1      -3.832   2.338  24.892  0.00  0.00    -0.349 OA
ATOM      8  C   UNL     1      -4.621   2.436  25.115  0.00  0.00    +0.180 C 
ATOM     11  C   UNL     1      -4.981   1.695  25.112  0.00  0.00    +0.204 C 
ATOM     12  O   UNL     1      -5.768   1.537  25.300  0.00  0.00    -0.219 OA
ENDROOT
BRANCH   5   4
ATOM      1  C   UNL     1      -4.167  -0.936  24.250  0.00  0.00    +0.096 C 
ATOM      2  C   UNL     1      -4.045  -0.123  24.326  0.00  0.00    +0.242 C 
ATOM      3  O   UNL     1      -3.428   0.241  23.915  0.00  0.00    -0.273 OA
ATOM      4  N   UNL     1      -4.537   0.325  24.812  0.00  0.00    -0.202 NA
ENDBRANCH   5   4
BRANCH   8   9
ATOM      9  C   UNL     1      -4.985   3.152  25.307  0.00  0.00    +0.214 C 
ATOM     10  O   UNL     1      -4.540   3.846  25.334  0.00  0.00    -0.218 OA
ENDBRANCH   8   9
TORSDOF 2
ENDMDL
MODEL 5
REMARK VINA RESULT:      -5.6      2.322      3.411
REMARK  Name = 
REMARK  2 active torsions:
REMARK  status: ('A' for Active; 'I' for Inactive)
REMARK    1  A    between atoms: N_4  and  C_5
REMARK    2  A    between atoms: C_8  and  C_9
REMARK                            x       y       z     vdW  Elec       q    Type
REMARK                         _______ _______ _______ _____ _____    ______ ____
ROOT
ATOM      5  C   UNL     1      -3.971   0.766  24.304  0.00  0.00    +0.158 C 
ATOM      6  C   UNL     1      -4.428   1.055  24.926  0.00  0.00    +0.166 C 
ATOM      7  O   UNL     1      -4.354   1.876  24.937  0.00  0.00    -0.349 OA
ATOM      8  C   UNL     1      -3.850   2.095  24.322  0.00  0.00    +0.180 C 
ATOM     11  C   UNL     1      -3.613   1.409  23.930  0.00  0.00    +0.204 C 
ATOM     12  O   UNL     1      -3.108   1.372  23.280  0.00  0.00    -0.219 OA
ENDROOT
BRANCH   5   4
ATOM      1  C   UNL     1      -3.888  -1.411  24.448  0.00  0.00    +0.096 C 
ATOM      2  C   UNL     1      -3.974  -0.618  24.660  0.00  0.00    +0.242 C 
ATOM      3  O   UNL     1      -4.148  -0.416  25.441  0.00  0.00    -0.273 OA
ATOM      4  N   UNL     1      -3.885  -0.027  24.092  0.00  0.00    -0.202 NA
ENDBRANCH   5   4
BRANCH   8   9
ATOM      9  C   UNL     1      -3.624   2.865  24.132  0.00  0.00    +0.214 C 
ATOM     10  O   UNL     1      -3.941   3.503  24.548  0.00  0.00    -0.218 OA
ENDBRANCH   8   9
TORSDOF 2
ENDMDL
