MODEL 1
REMARK VINA RESULT:     -10.0      0.000      0.000
REMARK  Name = 
REMARK  3 active torsions:
REMARK  status: ('A' for Active; 'I' for Inactive)
REMARK    1  A    between atoms: C_2  and  C_4
REMARK    2  A    between atoms: C_7  and  C_8
REMARK    3  A    between atoms: C_8  and  N_9
REMARK                            x       y       z     vdW  Elec       q    Type
REMARK                         _______ _______ _______ _____ _____    ______ ____
ROOT
ATOM      8  C   UNL     1      -3.619   0.757  23.868  0.00  0.00    +0.099 C 
ENDROOT
BRANCH   8   9
ATOM      9  N   UNL     1      -3.970   1.347  24.327  0.00  0.00    -0.266 NA
ATOM     10  C   UNL     1      -4.772   1.302  24.515  0.00  0.00    +0.094 C 
ATOM     11  C   UNL     1      -5.122   1.891  24.973  0.00  0.00    +0.112 C 
ATOM     12  N   UNL     1      -4.670   2.527  25.244  0.00  0.00    -0.260 N 
ATOM     13  C   UNL     1      -3.868   2.572  25.056  0.00  0.00    +0.115 C 
ATOM     14  C   UNL     1      -3.564   3.257  25.399  0.00  0.00    +0.138 C 
ATOM     15  N   UNL     1      -4.178   3.637  25.798  0.00  0.00    -0.187 NA
ATOM     16  C   UNL     1      -4.861   3.185  25.702  0.00  0.00    +0.323 C 
ATOM     17  O   UNL     1      -5.607   3.360  26.010  0.00  0.00    -0.251 OA
ATOM     18  C   UNL     1      -3.517   1.981  24.598  0.00  0.00    +0.094 C 
ENDBRANCH   8   9
BRANCH   8   7
ATOM      4  C   UNL     1      -3.544  -1.574  24.697  0.00  0.00    +0.080 A 
ATOM      5  C   UNL     1      -4.148  -1.336  24.189  0.00  0.00    +0.006 A 
ATOM      6  C   UNL     1      -4.174  -0.559  23.913  0.00  0.00    -0.003 A 
ATOM      7  C   UNL     1      -3.594  -0.020  24.144  0.00  0.00    -0.006 A 
ATOM     19  C   UNL     1      -2.989  -0.258  24.652  0.00  0.00    -0.003 A 
ATOM     20  C   UNL     1      -2.963  -1.035  24.928  0.00  0.00    +0.006 A 
BRANCH   4   2
ATOM      1  O   UNL     1      -3.550  -2.980  24.438  0.00  0.00    -0.241 OA
ATOM      2  C   UNL     1      -3.519  -2.351  24.973  0.00  0.00    +0.388 C 
ATOM      3  O   UNL     1      -3.463  -2.500  25.782  0.00  0.00    -0.241 OA
ENDBRANCH   4   2
ENDBRANCH   8   7
TORSDOF 3
ENDMDL
MODEL 2
REMARK VINA RESULT:      -9.7      1.413      1.844
REMARK  Name = 
REMARK  3 active torsions:
REMARK  status: ('A' for Active; 'I' for Inactive)
REMARK    1  A    between atoms: C_2  and  C_4
REMARK    2  A    between atoms: C_7  and  C_8
REMARK    3  A    between atoms: C_8  and  N_9
REMARK                            x       y       z     vdW  Elec       q    Type
REMARK                         _______ _______ _______ _____ _____    ______ ____
ROOT
ATOM      8  C   UNL     1      -4.094   1.720  24.122  0.00  0.00    +0.099 C 
ENDROOT
BRANCH   8   9
ATOM      9  N   UNL     1      -3.574   2.286  24.422  0.00  0.00    -0.266 NA
ATOM     10  C   UNL     1      -2.824   2.375  24.089  0.00  0.00    +0.094 C 
ATOM     11  C   UNL     1      -2.304   2.940  24.388  0.00  0.00    +0.112 C 
ATOM     12  N   UNL     1      -2.533   3.418  25.021  0.00  0.00    -0.260 N 
ATOM     13  C   UNL     1      -3.283   3.329  25.355  0.00  0.00    +0.115 C 
ATOM     14  C   UNL     1      -3.355   3.874  25.969  0.00  0.00    +0.138 C 
ATOM     15  N   UNL     1      -2.650   4.299  26.017  0.00  0.00    -0.187 NA
ATOM     16  C   UNL     1      -2.143   4.017  25.431  0.00  0.00    +0.323 C 
ATOM     17  O   UNL     1      -1.378   4.288  25.280  0.00  0.00    -0.251 OA
ATOM     18  C   UNL     1      -3.803   2.763  25.055  0.00  0.00    +0.094 C 
ENDBRANCH   8   9
BRANCH   8   7
ATOM      4  C   UNL     1      -3.848  -0.656  24.771  0.00  0.00    +0.080 A 
ATOM      5  C   UNL     1      -3.484  -0.375  24.086  0.00  0.00    +0.006 A 
ATOM      6  C   UNL     1      -3.567   0.417  23.870  0.00  0.00    -0.003 A 
ATOM      7  C   UNL     1      -4.012   0.928  24.339  0.00  0.00    -0.006 A 
ATOM     19  C   UNL     1      -4.376   0.648  25.024  0.00  0.00    -0.003 A 
ATOM     20  C   UNL     1      -4.294  -0.143  25.241  0.00  0.00    +0.006 A 
BRANCH   4   2
ATOM      1  O   UNL     1      -3.933  -2.043  24.442  0.00  0.00    -0.241 OA
ATOM      2  C   UNL     1      -3.765  -1.448  24.988  0.00  0.00    +0.388 C 
ATOM      3  O   UNL     1      -3.516  -1.643  25.749  0.00  0.00    -0.241 OA
ENDBRANCH   4   2
ENDBRANCH   8   7
TORSDOF 3
ENDMDL
MODEL 3
REMARK VINA RESULT:      -9.5      2.907      4.159
REMARK  Name = 
REMARK  3 active torsions:
REMARK  status: ('A' for Active; 'I' for Inactive)
REMARK    1  A    between atoms: C_2  and  C_4
REMARK    2  A    between atoms: C_7  and  C_8
REMARK    3  A    between atoms: C_8  and  N_9
REMARK                            x       y       z     vdW  Elec       q    Type
REMARK                         _______ _______ _______ _____ _____    ______ ____
ROOT
ATOM      8  C   UNL     1      -2.908   3.574  24.494  0.00  0.00    +0.099 C 
ENDROOT
BRANCH   8   9
ATOM      9  N   UNL     1      -2.194   3.306  24.810  0.00  0.00    -0.266 NA
ATOM     10  C   UNL     1      -1.980   3.515  25.579  0.00  0.00    +0.094 C 
ATOM     11  C   UNL     1      -1.267   3.248  25.895  0.00  0.00    +0.112 C 
ATOM     12  N   UNL     1      -0.767   2.772  25.443  0.00  0.00    -0.260 N 
ATOM     13  C   UNL     1      -0.982   2.562  24.674  0.00  0.00    +0.115 C 
ATOM     14  C   UNL     1      -0.383   2.090  24.362  0.00  0.00    +0.138 C 
ATOM     15  N   UNL     1       0.202   2.006  24.937  0.00  0.00    -0.187 NA
ATOM     16  C   UNL     1      -0.036   2.428  25.605  0.00  0.00    +0.323 C 
ATOM     17  O   UNL     1       0.385   2.494  26.312  0.00  0.00    -0.251 OA
ATOM     18  C   UNL     1      -1.696   2.830  24.358  0.00  0.00    +0.094 C 
ENDBRANCH   8   9
BRANCH   8   7
ATOM      4  C   UNL     1      -5.033   2.472  25.126  0.00  0.00    +0.080 A 
ATOM      5  C   UNL     1      -4.574   2.164  24.513  0.00  0.00    +0.006 A 
ATOM      6  C   UNL     1      -3.866   2.532  24.302  0.00  0.00    -0.003 A 
ATOM      7  C   UNL     1      -3.616   3.206  24.704  0.00  0.00    -0.006 A 
ATOM     19  C   UNL     1      -4.074   3.515  25.318  0.00  0.00    -0.003 A 
ATOM     20  C   UNL     1      -4.782   3.148  25.529  0.00  0.00    +0.006 A 
BRANCH   4   2
ATOM      1  O   UNL     1      -5.896   1.933  26.129  0.00  0.00    -0.241 OA
ATOM      2  C   UNL     1      -5.741   2.105  25.337  0.00  0.00    +0.388 C 
ATOM      3  O   UNL     1      -6.292   1.910  24.756  0.00  0.00    -0.241 OA
ENDBRANCH   4   2
ENDBRANCH   8   7
TORSDOF 3
ENDMDL
MODEL 4
REMARK VINA RESULT:      -9.5      1.207      4.384
REMARK  Name = 
REMARK  3 active torsions:
REMARK  status: ('A' for Active; 'I' for Inactive)
REMARK    1  A    between atoms: C_2  and  C_4
REMARK    2  A    between atoms: C_7  and  C_8
REMARK    3  A    between atoms: C_8  and  N_9
REMARK                            x       y       z     vdW  Elec       q    Type
REMARK                         _______ _______ _______ _____ _____    ______ ____
ROOT
ATOM      8  C   UNL     1      -3.621   0.930  24.037  0.00  0.00    +0.099 C 
ENDROOT
BRANCH   8   9
ATOM      9  N   UNL     1      -3.570   0.145  24.287  0.00  0.00    -0.266 NA
ATOM     10  C   UNL     1      -3.123  -0.049  24.953  0.00  0.00    +0.094 C 
ATOM     11  C   UNL     1      -3.073  -0.833  25.202  0.00  0.00    +0.112 C 
ATOM     12  N   UNL     1      -3.469  -1.425  24.785  0.00  0.00    -0.260 N 
ATOM     13  C   UNL     1      -3.916  -1.232  24.119  0.00  0.00    +0.115 C 
ATOM     14  C   UNL     1      -4.243  -1.927  23.821  0.00  0.00    +0.138 C 
ATOM     15  N   UNL     1      -4.000  -2.551  24.302  0.00  0.00    -0.187 NA
ATOM     16  C   UNL     1      -3.521  -2.240  24.898  0.00  0.00    +0.323 C 
ATOM     17  O   UNL     1      -3.158  -2.670  25.502  0.00  0.00    -0.251 OA
ATOM     18  C   UNL     1      -3.966  -0.446  23.869  0.00  0.00    +0.094 C 
ENDBRANCH   8   9
BRANCH   8   7
ATOM      4  C   UNL     1      -4.970   2.555  25.328  0.00  0.00    +0.080 A 
ATOM      5  C   UNL     1      -5.342   1.949  24.909  0.00  0.00    +0.006 A 
ATOM      6  C   UNL     1      -4.892   1.408  24.479  0.00  0.00    -0.003 A 
ATOM      7  C   UNL     1      -4.070   1.472  24.468  0.00  0.00    -0.006 A 
ATOM     19  C   UNL     1      -3.697   2.077  24.886  0.00  0.00    -0.003 A 
ATOM     20  C   UNL     1      -4.147   2.618  25.317  0.00  0.00    +0.006 A 
BRANCH   4   2
ATOM      1  O   UNL     1      -5.815   2.853  26.441  0.00  0.00    -0.241 OA
ATOM      2  C   UNL     1      -5.420   3.096  25.759  0.00  0.00    +0.388 C 
ATOM      3  O   UNL     1      -5.473   3.879  25.507  0.00  0.00    -0.241 OA
ENDBRANCH   4   2
ENDBRANCH   8   7
TORSDOF 3
ENDMDL
MODEL 5
REMARK VINA RESULT:      -9.5      1.763      4.182
REMARK  Name = 
REMARK  3 active torsions:
REMARK  status: ('A' for Active; 'I' for Inactive)
REMARK    1  A    between atoms: C_2  and  C_4
REMARK    2  A    between atoms: C_7  and  C_8
REMARK    3  A    between atoms: C_8  and  N_9
REMARK                            x       y       z     vdW  Elec       q    Type
REMARK                         _______ _______ _______ _____ _____    ______ ____
ROOT
ATOM      8  C   UNL     1      -3.561   1.098  23.742  0.00  0.00    +0.099 C 
ENDROOT
BRANCH   8   9
ATOM      9  N   UNL     1      -2.909   0.699  24.055  0.00  0.00    -0.266 NA
ATOM     10  C   UNL     1      -3.014  -0.020  24.445  0.00  0.00    +0.094 C 
ATOM     11  C   UNL     1      -2.363  -0.419  24.757  0.00  0.00    +0.112 C 
ATOM     12  N   UNL     1      -1.606  -0.099  24.679  0.00  0.00    -0.260 N 
ATOM     13  C   UNL     1      -1.501   0.620  24.289  0.00  0.00    +0.115 C 
ATOM     14  C   UNL     1      -0.697   0.800  24.297  0.00  0.00    +0.138 C 
ATOM     15  N   UNL     1      -0.304   0.192  24.692  0.00  0.00    -0.187 NA
ATOM     16  C   UNL     1      -0.866  -0.363  24.928  0.00  0.00    +0.323 C 
ATOM     17  O   UNL     1      -0.715  -1.061  25.342  0.00  0.00    -0.251 OA
ATOM     18  C   UNL     1      -2.153   1.020  23.976  0.00  0.00    +0.094 C 
ENDBRANCH   8   9
BRANCH   8   7
ATOM      4  C   UNL     1      -4.932   2.559  25.195  0.00  0.00    +0.080 A 
ATOM      5  C   UNL     1      -4.312   2.879  24.754  0.00  0.00    +0.006 A 
ATOM      6  C   UNL     1      -3.855   2.392  24.270  0.00  0.00    -0.003 A 
ATOM      7  C   UNL     1      -4.018   1.585  24.226  0.00  0.00    -0.006 A 
ATOM     19  C   UNL     1      -4.637   1.263  24.667  0.00  0.00    -0.003 A 
ATOM     20  C   UNL     1      -5.094   1.750  25.151  0.00  0.00    +0.006 A 
BRANCH   4   2
ATOM      1  O   UNL     1      -5.535   3.827  25.458  0.00  0.00    -0.241 OA
ATOM      2  C   UNL     1      -5.389   3.046  25.679  0.00  0.00    +0.388 C 
ATOM      3  O   UNL     1      -5.699   2.752  26.384  0.00  0.00    -0.241 OA
ENDBRANCH   4   2
ENDBRANCH   8   7
TORSDOF 3
ENDMDL
