MODEL 1
REMARK VINA RESULT:     -16.9      0.000      0.000
REMARK  Name = 
REMARK  5 active torsions:
REMARK  status: ('A' for Active; 'I' for Inactive)
REMARK    1  A    between atoms: C_2  and  C_29
REMARK    2  A    between atoms: C_12  and  N_13
REMARK    3  A    between atoms: N_13  and  S_14
REMARK    4  A    between atoms: S_14  and  C_17
REMARK    5  A    between atoms: C_22  and  C_23
REMARK                            x       y       z     vdW  Elec       q    Type
REMARK                         _______ _______ _______ _____ _____    ______ ____
ROOT
ATOM      1  O   UNL     1      -0.824  -1.002  24.893  0.00  0.00    -0.270 OA
ATOM      2  C   UNL     1      -1.666  -0.869  24.738  0.00  0.00    +0.249 C 
ATOM      3  N   UNL     1      -2.105  -1.596  24.652  0.00  0.00    -0.276 N 
ATOM      4  C   UNL     1      -2.122  -2.431  24.644  0.00  0.00    +0.096 C 
ATOM      5  C   UNL     1      -3.083  -2.575  24.465  0.00  0.00    +0.043 C 
ATOM      6  C   UNL     1      -3.833  -2.859  24.324  0.00  0.00    +0.011 C 
ATOM      7  C   UNL     1      -3.518  -2.235  24.386  0.00  0.00    +0.058 C 
ATOM      8  C   UNL     1      -2.587  -2.112  24.560  0.00  0.00    +0.099 C 
ATOM      9  C   UNL     1      -3.692  -1.333  24.358  0.00  0.00    +0.041 A 
ATOM     10  C   UNL     1      -4.314  -0.805  24.246  0.00  0.00    +0.014 A 
ATOM     11  C   UNL     1      -4.176   0.008  24.276  0.00  0.00    +0.024 A 
ATOM     12  C   UNL     1      -3.319   0.226  24.436  0.00  0.00    +0.147 A 
ATOM     25  C   UNL     1      -2.792  -0.237  24.532  0.00  0.00    +0.277 A 
ATOM     26  O   UNL     1      -1.802   0.042  24.717  0.00  0.00    -0.266 OA
ATOM     27  N   UNL     1      -2.930  -1.050  24.502  0.00  0.00    -0.298 N 
ATOM     28  C   UNL     1      -3.255  -1.631  24.438  0.00  0.00    +0.110 C 
ENDROOT
BRANCH   2  29
ATOM     29  C   UNL     1      -2.292  -0.179  24.625  0.00  0.00    +0.054 A 
ATOM     30  C   UNL     1      -2.271   0.192  23.889  0.00  0.00    +0.005 A 
ATOM     31  C   UNL     1      -2.794   0.808  23.722  0.00  0.00    +0.000 A 
ATOM     32  C   UNL     1      -3.338   1.052  24.292  0.00  0.00    +0.000 A 
ATOM     33  C   UNL     1      -3.359   0.681  25.029  0.00  0.00    +0.000 A 
ATOM     34  C   UNL     1      -2.835   0.065  25.195  0.00  0.00    +0.005 A 
ENDBRANCH   2  29
BRANCH  12  13
ATOM     13  N   UNL     1      -2.885   1.018  24.521  0.00  0.00    -0.092 NA
BRANCH  13  14
ATOM     14  S   UNL     1      -3.754   1.657  24.730  0.00  0.00    +0.094 S 
ATOM     15  O   UNL     1      -4.205   1.818  23.975  0.00  0.00    -0.148 OA
ATOM     16  O   UNL     1      -3.954   1.956  25.545  0.00  0.00    -0.148 OA
BRANCH  14  17
ATOM     17  C   UNL     1      -4.453   2.194  25.011  0.00  0.00    +0.137 A 
ATOM     18  C   UNL     1      -5.162   1.772  25.023  0.00  0.00    +0.021 A 
ATOM     19  C   UNL     1      -5.859   2.144  25.257  0.00  0.00    +0.001 A 
ATOM     20  C   UNL     1      -5.848   2.938  25.480  0.00  0.00    +0.001 A 
ATOM     21  C   UNL     1      -5.139   3.360  25.469  0.00  0.00    +0.012 A 
ATOM     22  C   UNL     1      -4.442   2.988  25.235  0.00  0.00    +0.087 A 
BRANCH  22  23
ATOM     23  C   UNL     1      -3.732   3.410  25.223  0.00  0.00    +0.102 C 
ATOM     24  N   UNL     1      -3.024   3.832  25.212  0.00  0.00    -0.191 NA
ENDBRANCH  22  23
ENDBRANCH  14  17
ENDBRANCH  13  14
ENDBRANCH  12  13
TORSDOF 5
ENDMDL
MODEL 2
REMARK VINA RESULT:     -16.7      1.006      4.059
REMARK  Name = 
REMARK  5 active torsions:
REMARK  status: ('A' for Active; 'I' for Inactive)
REMARK    1  A    between atoms: C_2  and  C_29
REMARK    2  A    between atoms: C_12  and  N_13
REMARK    3  A    between atoms: N_13  and  S_14
REMARK    4  A    between atoms: S_14  and  C_17
REMARK    5  A    between atoms: C_22  and  C_23
REMARK                            x       y       z     vdW  Elec       q    Type
REMARK                         _______ _______ _______ _____ _____    ______ ____
ROOT
ATOM      1  O   UNL     1      -2.487   3.648  24.793  0.00  0.00    -0.270 OA
ATOM      2  C   UNL     1      -3.054   2.993  24.795  0.00  0.00    +0.249 C 
ATOM      3  N   UNL     1      -3.818   3.219  25.101  0.00  0.00    -0.276 N 
ATOM      4  C   UNL     1      -4.323   3.802  25.422  0.00  0.00    +0.096 C 
ATOM      5  C   UNL     1      -5.144   3.265  25.537  0.00  0.00    +0.043 C 
ATOM      6  C   UNL     1      -5.886   2.968  25.693  0.00  0.00    +0.011 C 
ATOM      7  C   UNL     1      -5.277   2.734  25.434  0.00  0.00    +0.058 C 
ATOM      8  C   UNL     1      -4.491   3.266  25.329  0.00  0.00    +0.099 C 
ATOM      9  C   UNL     1      -4.880   1.975  25.100  0.00  0.00    +0.041 A 
ATOM     10  C   UNL     1      -5.046   1.184  24.937  0.00  0.00    +0.014 A 
ATOM     11  C   UNL     1      -4.462   0.698  24.617  0.00  0.00    +0.024 A 
ATOM     12  C   UNL     1      -3.677   1.112  24.480  0.00  0.00    +0.147 A 
ATOM     25  C   UNL     1      -3.545   1.794  24.624  0.00  0.00    +0.277 A 
ATOM     26  O   UNL     1      -2.622   2.254  24.455  0.00  0.00    -0.266 OA
ATOM     27  N   UNL     1      -4.129   2.280  24.944  0.00  0.00    -0.298 N 
ATOM     28  C   UNL     1      -4.721   2.478  25.187  0.00  0.00    +0.110 C 
ENDROOT
BRANCH   2  29
ATOM     29  C   UNL     1      -3.127   2.085  24.570  0.00  0.00    +0.054 A 
ATOM     30  C   UNL     1      -3.203   1.932  23.764  0.00  0.00    +0.005 A 
ATOM     31  C   UNL     1      -3.273   1.154  23.496  0.00  0.00    +0.000 A 
ATOM     32  C   UNL     1      -3.266   0.531  24.035  0.00  0.00    +0.000 A 
ATOM     33  C   UNL     1      -3.190   0.684  24.843  0.00  0.00    +0.000 A 
ATOM     34  C   UNL     1      -3.121   1.462  25.110  0.00  0.00    +0.005 A 
ENDBRANCH   2  29
BRANCH  12  13
ATOM     13  N   UNL     1      -2.878   0.837  24.149  0.00  0.00    -0.092 NA
BRANCH  13  14
ATOM     14  S   UNL     1      -3.031  -0.247  24.238  0.00  0.00    +0.094 S 
ATOM     15  O   UNL     1      -3.506  -0.547  23.543  0.00  0.00    -0.148 OA
ATOM     16  O   UNL     1      -2.715  -0.730  24.916  0.00  0.00    -0.148 OA
BRANCH  14  17
ATOM     17  C   UNL     1      -3.103  -1.153  24.406  0.00  0.00    +0.137 A 
ATOM     18  C   UNL     1      -3.893  -1.390  24.414  0.00  0.00    +0.021 A 
ATOM     19  C   UNL     1      -4.085  -2.179  24.555  0.00  0.00    +0.001 A 
ATOM     20  C   UNL     1      -3.488  -2.733  24.686  0.00  0.00    +0.001 A 
ATOM     21  C   UNL     1      -2.697  -2.496  24.677  0.00  0.00    +0.012 A 
ATOM     22  C   UNL     1      -2.505  -1.707  24.537  0.00  0.00    +0.087 A 
BRANCH  22  23
ATOM     23  C   UNL     1      -1.714  -1.470  24.528  0.00  0.00    +0.102 C 
ATOM     24  N   UNL     1      -0.924  -1.234  24.520  0.00  0.00    -0.191 NA
ENDBRANCH  22  23
ENDBRANCH  14  17
ENDBRANCH  13  14
ENDBRANCH  12  13
TORSDOF 5
ENDMDL
MODEL 3
REMARK VINA RESULT:     -15.7      1.647      2.094
REMARK  Name = 
REMARK  5 active torsions:
REMARK  status: ('A' for Active; 'I' for Inactive)
REMARK    1  A    between atoms: C_2  and  C_29
REMARK    2  A    between atoms: C_12  and  N_13
REMARK    3  A    between atoms: N_13  and  S_14
REMARK    4  A    between atoms: S_14  and  C_17
REMARK    5  A    between atoms: C_22  and  C_23
REMARK                            x       y       z     vdW  Elec       q    Type
REMARK                         _______ _______ _______ _____ _____    ______ ____
ROOT
ATOM      1  O   UNL     1      -1.107  -2.430  25.202  0.00  0.00    -0.270 OA
ATOM      2  C   UNL     1      -1.594  -1.755  24.965  0.00  0.00    +0.249 C 
ATOM      3  N   UNL     1      -2.381  -1.983  24.725  0.00  0.00    -0.276 N 
ATOM      4  C   UNL     1      -2.951  -2.580  24.598  0.00  0.00    +0.096 C 
ATOM      5  C   UNL     1      -3.705  -2.024  24.283  0.00  0.00    +0.043 C 
ATOM      6  C   UNL     1      -4.409  -1.715  24.013  0.00  0.00    +0.011 C 
ATOM      7  C   UNL     1      -3.776  -1.477  24.200  0.00  0.00    +0.058 C 
ATOM      8  C   UNL     1      -3.056  -2.028  24.502  0.00  0.00    +0.099 C 
ATOM      9  C   UNL     1      -3.292  -0.700  24.278  0.00  0.00    +0.041 A 
ATOM     10  C   UNL     1      -3.364   0.114  24.165  0.00  0.00    +0.014 A 
ATOM     11  C   UNL     1      -2.726   0.611  24.326  0.00  0.00    +0.024 A 
ATOM     12  C   UNL     1      -1.994   0.181  24.619  0.00  0.00    +0.147 A 
ATOM     25  C   UNL     1      -1.942  -0.520  24.713  0.00  0.00    +0.277 A 
ATOM     26  O   UNL     1      -1.078  -0.997  25.056  0.00  0.00    -0.266 OA
ATOM     27  N   UNL     1      -2.581  -1.017  24.552  0.00  0.00    -0.298 N 
ATOM     28  C   UNL     1      -3.192  -1.218  24.368  0.00  0.00    +0.110 C 
ENDROOT
BRANCH   2  29
ATOM     29  C   UNL     1      -1.561  -0.821  24.874  0.00  0.00    +0.054 A 
ATOM     30  C   UNL     1      -1.160  -0.551  24.206  0.00  0.00    +0.005 A 
ATOM     31  C   UNL     1      -1.093   0.260  24.065  0.00  0.00    +0.000 A 
ATOM     32  C   UNL     1      -1.427   0.799  24.591  0.00  0.00    +0.000 A 
ATOM     33  C   UNL     1      -1.829   0.528  25.260  0.00  0.00    +0.000 A 
ATOM     34  C   UNL     1      -1.896  -0.282  25.401  0.00  0.00    +0.005 A 
ENDBRANCH   2  29
BRANCH  12  13
ATOM     13  N   UNL     1      -1.167   0.460  24.867  0.00  0.00    -0.092 NA
BRANCH  13  14
ATOM     14  S   UNL     1      -1.388   1.528  24.994  0.00  0.00    +0.094 S 
ATOM     15  O   UNL     1      -1.417   1.932  24.197  0.00  0.00    -0.148 OA
ATOM     16  O   UNL     1      -1.515   1.909  25.789  0.00  0.00    -0.148 OA
BRANCH  14  17
ATOM     17  C   UNL     1      -1.577   2.408  25.209  0.00  0.00    +0.137 A 
ATOM     18  C   UNL     1      -2.330   2.619  24.948  0.00  0.00    +0.021 A 
ATOM     19  C   UNL     1      -2.614   3.382  25.081  0.00  0.00    +0.001 A 
ATOM     20  C   UNL     1      -2.144   3.933  25.476  0.00  0.00    +0.001 A 
ATOM     21  C   UNL     1      -1.391   3.722  25.738  0.00  0.00    +0.012 A 
ATOM     22  C   UNL     1      -1.107   2.959  25.604  0.00  0.00    +0.087 A 
BRANCH  22  23
ATOM     23  C   UNL     1      -0.353   2.747  25.865  0.00  0.00    +0.102 C 
ATOM     24  N   UNL     1       0.400   2.536  26.127  0.00  0.00    -0.191 NA
ENDBRANCH  22  23
ENDBRANCH  14  17
ENDBRANCH  13  14
ENDBRANCH  12  13
TORSDOF 5
ENDMDL
