MODEL 1
REMARK VINA RESULT:     -12.4      0.000      0.000
REMARK  Name = 
REMARK  7 active torsions:
REMARK  status: ('A' for Active; 'I' for Inactive)
REMARK    1  A    between atoms: C_2  and  C_5
REMARK    2  A    between atoms: C_5  and  C_6
REMARK    3  A    between atoms: N_8  and  C_9
REMARK    4  A    between atoms: C_9  and  C_10
REMARK    5  A    between atoms: C_12  and  C_13
REMARK    6  A    between atoms: C_13  and  C_14
REMARK    7  A    between atoms: C_17  and  C_19
REMARK                            x       y       z     vdW  Elec       q    Type
REMARK                         _______ _______ _______ _____ _____    ______ ____
ROOT
ATOM     10  C   UNL     1      -4.621   2.777  25.165  0.00  0.00    +0.167 C 
ATOM     11  O   UNL     1      -4.391   2.070  24.807  0.00  0.00    -0.354 OA
ATOM     12  C   UNL     1      -4.887   1.412  24.835  0.00  0.00    +0.121 C 
ATOM     26  C   UNL     1      -5.614   1.460  25.221  0.00  0.00    +0.033 C 
ATOM     27  C   UNL     1      -5.845   2.166  25.580  0.00  0.00    +0.038 C 
ATOM     28  C   UNL     1      -5.348   2.825  25.551  0.00  0.00    +0.181 C 
ATOM     29  O   UNL     1      -5.579   3.531  25.910  0.00  0.00    -0.220 OA
ENDROOT
BRANCH  10   9
ATOM      9  C   UNL     1      -4.125   3.434  25.137  0.00  0.00    +0.147 C 
BRANCH   9   8
ATOM      6  C   UNL     1      -2.790   3.924  25.283  0.00  0.00    +0.241 C 
ATOM      7  O   UNL     1      -2.913   4.446  24.654  0.00  0.00    -0.273 OA
ATOM      8  N   UNL     1      -3.396   3.419  25.523  0.00  0.00    -0.203 NA
BRANCH   6   5
ATOM      5  C   UNL     1      -2.061   3.909  25.669  0.00  0.00    +0.087 C 
BRANCH   5   2
ATOM      1  C   UNL     1      -0.683   4.296  24.849  0.00  0.00    +0.000 C 
ATOM      2  C   UNL     1      -1.373   4.103  25.260  0.00  0.00    +0.009 C 
ATOM      3  C   UNL     1      -1.564   4.903  25.314  0.00  0.00    +0.000 C 
ATOM      4  C   UNL     1      -1.180   3.302  25.204  0.00  0.00    +0.000 C 
ENDBRANCH   5   2
ENDBRANCH   6   5
ENDBRANCH   9   8
ENDBRANCH  10   9
BRANCH  12  13
ATOM     13  C   UNL     1      -4.657   0.706  24.477  0.00  0.00    +0.079 C 
BRANCH  13  14
ATOM     14  C   UNL     1      -4.144   0.192  24.871  0.00  0.00    +0.103 A 
ATOM     15  N   UNL     1      -4.332  -0.274  25.524  0.00  0.00    -0.081 NA
ATOM     16  O   UNL     1      -3.658  -0.700  25.737  0.00  0.00    -0.354 OA
ATOM     17  C   UNL     1      -3.053  -0.497  25.214  0.00  0.00    +0.177 A 
ATOM     18  C   UNL     1      -3.353   0.055  24.678  0.00  0.00    +0.058 A 
BRANCH  17  19
ATOM     19  C   UNL     1      -2.283  -0.793  25.225  0.00  0.00    +0.037 A 
ATOM     20  C   UNL     1      -1.686  -0.376  25.611  0.00  0.00    +0.005 A 
ATOM     21  C   UNL     1      -0.916  -0.672  25.622  0.00  0.00    +0.030 A 
ATOM     22  C   UNL     1      -0.744  -1.386  25.246  0.00  0.00    +0.140 A 
ATOM     23  F   UNL     1       0.027  -1.683  25.257  0.00  0.00    -0.204 F 
ATOM     24  C   UNL     1      -1.341  -1.803  24.859  0.00  0.00    +0.030 A 
ATOM     25  C   UNL     1      -2.111  -1.507  24.848  0.00  0.00    +0.005 A 
ENDBRANCH  17  19
ENDBRANCH  13  14
ENDBRANCH  12  13
TORSDOF 7
ENDMDL
MODEL 2
REMARK VINA RESULT:     -12.1      1.566      2.468
REMARK  Name = 
REMARK  7 active torsions:
REMARK  status: ('A' for Active; 'I' for Inactive)
REMARK    1  A    between atoms: C_2  and  C_5
REMARK    2  A    between atoms: C_5  and  C_6
REMARK    3  A    between atoms: N_8  and  C_9
REMARK    4  A    between atoms: C_9  and  C_10
REMARK    5  A    between atoms: C_12  and  C_13
REMARK    6  A    between atoms: C_13  and  C_14
REMARK    7  A    between atoms: C_17  and  C_19
REMARK                            x       y       z     vdW  Elec       q    Type
REMARK                         _______ _______ _______ _____ _____    ______ ____
ROOT
ATOM     10  C   UNL     1      -2.781   3.337  25.238  0.00  0.00    +0.167 C 
ATOM     11  O   UNL     1      -3.211   2.777  24.811  0.00  0.00    -0.354 OA
ATOM     12  C   UNL     1      -4.034   2.757  24.868  0.00  0.00    +0.121 C 
ATOM     26  C   UNL     1      -4.427   3.296  25.353  0.00  0.00    +0.033 C 
ATOM     27  C   UNL     1      -3.998   3.856  25.781  0.00  0.00    +0.038 C 
ATOM     28  C   UNL     1      -3.174   3.876  25.723  0.00  0.00    +0.181 C 
ATOM     29  O   UNL     1      -2.745   4.436  26.151  0.00  0.00    -0.220 OA
ENDROOT
BRANCH  10   9
ATOM      9  C   UNL     1      -1.959   3.357  25.181  0.00  0.00    +0.147 C 
BRANCH   9   8
ATOM      6  C   UNL     1      -0.753   2.595  25.105  0.00  0.00    +0.241 C 
ATOM      7  O   UNL     1      -0.438   3.145  24.576  0.00  0.00    -0.273 OA
ATOM      8  N   UNL     1      -1.513   2.701  25.408  0.00  0.00    -0.203 NA
BRANCH   6   5
ATOM      5  C   UNL     1      -0.307   1.939  25.332  0.00  0.00    +0.087 C 
BRANCH   5   2
ATOM      1  C   UNL     1      -0.142   0.657  24.305  0.00  0.00    +0.000 C 
ATOM      2  C   UNL     1      -0.224   1.298  24.819  0.00  0.00    +0.009 C 
ATOM      3  C   UNL     1       0.219   1.767  24.304  0.00  0.00    +0.000 C 
ATOM      4  C   UNL     1      -0.667   0.829  25.333  0.00  0.00    +0.000 C 
ENDBRANCH   5   2
ENDBRANCH   6   5
ENDBRANCH   9   8
ENDBRANCH  10   9
BRANCH  12  13
ATOM     13  C   UNL     1      -4.463   2.197  24.441  0.00  0.00    +0.079 C 
BRANCH  13  14
ATOM     14  C   UNL     1      -4.531   1.425  24.725  0.00  0.00    +0.103 A 
ATOM     15  N   UNL     1      -5.009   1.178  25.349  0.00  0.00    -0.081 NA
ATOM     16  O   UNL     1      -4.905   0.365  25.444  0.00  0.00    -0.354 OA
ATOM     17  C   UNL     1      -4.363   0.109  24.877  0.00  0.00    +0.177 A 
ATOM     18  C   UNL     1      -4.131   0.765  24.432  0.00  0.00    +0.058 A 
BRANCH  17  19
ATOM     19  C   UNL     1      -4.099  -0.666  24.773  0.00  0.00    +0.037 A 
ATOM     20  C   UNL     1      -4.299  -1.081  24.089  0.00  0.00    +0.005 A 
ATOM     21  C   UNL     1      -4.036  -1.856  23.985  0.00  0.00    +0.030 A 
ATOM     22  C   UNL     1      -3.571  -2.215  24.566  0.00  0.00    +0.140 A 
ATOM     23  F   UNL     1      -3.307  -2.990  24.462  0.00  0.00    -0.204 F 
ATOM     24  C   UNL     1      -3.372  -1.799  25.249  0.00  0.00    +0.030 A 
ATOM     25  C   UNL     1      -3.635  -1.024  25.353  0.00  0.00    +0.005 A 
ENDBRANCH  17  19
ENDBRANCH  13  14
ENDBRANCH  12  13
TORSDOF 7
ENDMDL
MODEL 3
REMARK VINA RESULT:     -12.0      1.756      3.454
REMARK  Name = 
REMARK  7 active torsions:
REMARK  status: ('A' for Active; 'I' for Inactive)
REMARK    1  A    between atoms: C_2  and  C_5
REMARK    2  A    between atoms: C_5  and  C_6
REMARK    3  A    between atoms: N_8  and  C_9
REMARK    4  A    between atoms: C_9  and  C_10
REMARK    5  A    between atoms: C_12  and  C_13
REMARK    6  A    between atoms: C_13  and  C_14
REMARK    7  A    between atoms: C_17  and  C_19
REMARK                            x       y       z     vdW  Elec       q    Type
REMARK                         _______ _______ _______ _____ _____    ______ ____
ROOT
ATOM     10  C   UNL     1      -1.597   2.688  25.347  0.00  0.00    +0.167 C 
ATOM     11  O   UNL     1      -1.629   1.899  25.585  0.00  0.00    -0.354 OA
ATOM     12  C   UNL     1      -0.954   1.428  25.547  0.00  0.00    +0.121 C 
ATOM     26  C   UNL     1      -0.245   1.745  25.271  0.00  0.00    +0.033 C 
ATOM     27  C   UNL     1      -0.211   2.534  25.032  0.00  0.00    +0.038 C 
ATOM     28  C   UNL     1      -0.887   3.006  25.070  0.00  0.00    +0.181 C 
ATOM     29  O   UNL     1      -0.853   3.794  24.832  0.00  0.00    -0.220 OA
ENDROOT
BRANCH  10   9
ATOM      9  C   UNL     1      -2.272   3.159  25.385  0.00  0.00    +0.147 C 
BRANCH   9   8
ATOM      6  C   UNL     1      -3.690   3.239  25.225  0.00  0.00    +0.241 C 
ATOM      7  O   UNL     1      -3.728   3.791  25.838  0.00  0.00    -0.273 OA
ATOM      8  N   UNL     1      -2.963   2.923  24.999  0.00  0.00    -0.203 NA
BRANCH   6   5
ATOM      5  C   UNL     1      -4.380   3.003  24.839  0.00  0.00    +0.087 C 
BRANCH   5   2
ATOM      1  C   UNL     1      -5.734   2.646  25.713  0.00  0.00    +0.000 C 
ATOM      2  C   UNL     1      -5.057   2.825  25.276  0.00  0.00    +0.009 C 
ATOM      3  C   UNL     1      -4.937   2.021  25.134  0.00  0.00    +0.000 C 
ATOM      4  C   UNL     1      -5.178   3.628  25.418  0.00  0.00    +0.000 C 
ENDBRANCH   5   2
ENDBRANCH   6   5
ENDBRANCH   9   8
ENDBRANCH  10   9
BRANCH  12  13
ATOM     13  C   UNL     1      -0.987   0.639  25.786  0.00  0.00    +0.079 C 
BRANCH  13  14
ATOM     14  C   UNL     1      -1.274   0.063  25.268  0.00  0.00    +0.103 A 
ATOM     15  N   UNL     1      -0.862  -0.268  24.636  0.00  0.00    -0.081 NA
ATOM     16  O   UNL     1      -1.357  -0.818  24.270  0.00  0.00    -0.354 OA
ATOM     17  C   UNL     1      -2.075  -0.826  24.677  0.00  0.00    +0.177 A 
ATOM     18  C   UNL     1      -2.024  -0.281  25.294  0.00  0.00    +0.058 A 
BRANCH  17  19
ATOM     19  C   UNL     1      -2.729  -1.296  24.497  0.00  0.00    +0.037 A 
ATOM     20  C   UNL     1      -2.722  -2.100  24.684  0.00  0.00    +0.005 A 
ATOM     21  C   UNL     1      -3.376  -2.570  24.504  0.00  0.00    +0.030 A 
ATOM     22  C   UNL     1      -4.036  -2.236  24.139  0.00  0.00    +0.140 A 
ATOM     23  F   UNL     1      -4.691  -2.706  23.959  0.00  0.00    -0.204 F 
ATOM     24  C   UNL     1      -4.042  -1.433  23.953  0.00  0.00    +0.030 A 
ATOM     25  C   UNL     1      -3.388  -0.962  24.132  0.00  0.00    +0.005 A 
ENDBRANCH  17  19
ENDBRANCH  13  14
ENDBRANCH  12  13
TORSDOF 7
ENDMDL
MODEL 4
REMARK VINA RESULT:     -12.0      2.353      5.510
REMARK  Name = 
REMARK  7 active torsions:
REMARK  status: ('A' for Active; 'I' for Inactive)
REMARK    1  A    between atoms: C_2  and  C_5
REMARK    2  A    between atoms: C_5  and  C_6
REMARK    3  A    between atoms: N_8  and  C_9
REMARK    4  A    between atoms: C_9  and  C_10
REMARK    5  A    between atoms: C_12  and  C_13
REMARK    6  A    between atoms: C_13  and  C_14
REMARK    7  A    between atoms: C_17  and  C_19
REMARK                            x       y       z     vdW  Elec       q    Type
REMARK                         _______ _______ _______ _____ _____    ______ ____
ROOT
ATOM     10  C   UNL     1      -0.769  -0.089  24.440  0.00  0.00    +0.167 C 
ATOM     11  O   UNL     1      -1.073   0.564  24.842  0.00  0.00    -0.354 OA
ATOM     12  C   UNL     1      -0.703   1.297  24.780  0.00  0.00    +0.121 C 
ATOM     26  C   UNL     1      -0.026   1.379  24.314  0.00  0.00    +0.033 C 
ATOM     27  C   UNL     1       0.279   0.727  23.911  0.00  0.00    +0.038 C 
ATOM     28  C   UNL     1      -0.093  -0.008  23.974  0.00  0.00    +0.181 C 
ATOM     29  O   UNL     1       0.213  -0.660  23.572  0.00  0.00    -0.220 OA
ENDROOT
BRANCH  10   9
ATOM      9  C   UNL     1      -1.140  -0.823  24.503  0.00  0.00    +0.147 C 
BRANCH   9   8
ATOM      6  C   UNL     1      -2.330  -1.589  24.694  0.00  0.00    +0.241 C 
ATOM      7  O   UNL     1      -1.933  -2.269  24.445  0.00  0.00    -0.273 OA
ATOM      8  N   UNL     1      -1.934  -0.867  24.723  0.00  0.00    -0.203 NA
BRANCH   6   5
ATOM      5  C   UNL     1      -3.125  -1.634  24.914  0.00  0.00    +0.087 C 
BRANCH   5   2
ATOM      1  C   UNL     1      -4.198  -2.463  23.974  0.00  0.00    +0.000 C 
ATOM      2  C   UNL     1      -3.661  -2.048  24.444  0.00  0.00    +0.009 C 
ATOM      3  C   UNL     1      -3.905  -1.340  24.098  0.00  0.00    +0.000 C 
ATOM      4  C   UNL     1      -3.417  -2.756  24.790  0.00  0.00    +0.000 C 
ENDBRANCH   5   2
ENDBRANCH   6   5
ENDBRANCH   9   8
ENDBRANCH  10   9
BRANCH  12  13
ATOM     13  C   UNL     1      -1.007   1.949  25.182  0.00  0.00    +0.079 C 
BRANCH  13  14
ATOM     14  C   UNL     1      -1.699   2.313  24.914  0.00  0.00    +0.103 A 
ATOM     15  N   UNL     1      -1.771   2.780  24.239  0.00  0.00    -0.081 NA
ATOM     16  O   UNL     1      -2.556   3.028  24.183  0.00  0.00    -0.354 OA
ATOM     17  C   UNL     1      -2.969   2.714  24.825  0.00  0.00    +0.177 A 
ATOM     18  C   UNL     1      -2.439   2.271  25.277  0.00  0.00    +0.058 A 
BRANCH  17  19
ATOM     19  C   UNL     1      -3.771   2.823  24.986  0.00  0.00    +0.037 A 
ATOM     20  C   UNL     1      -4.314   2.235  24.790  0.00  0.00    +0.005 A 
ATOM     21  C   UNL     1      -5.117   2.344  24.951  0.00  0.00    +0.030 A 
ATOM     22  C   UNL     1      -5.374   3.043  25.308  0.00  0.00    +0.140 A 
ATOM     23  F   UNL     1      -6.176   3.152  25.469  0.00  0.00    -0.204 F 
ATOM     24  C   UNL     1      -4.830   3.631  25.503  0.00  0.00    +0.030 A 
ATOM     25  C   UNL     1      -4.028   3.521  25.342  0.00  0.00    +0.005 A 
ENDBRANCH  17  19
ENDBRANCH  13  14
ENDBRANCH  12  13
TORSDOF 7
ENDMDL
MODEL 5
REMARK VINA RESULT:      -8.8     16.100     18.828
REMARK  Name = 
REMARK  7 active torsions:
REMARK  status: ('A' for Active; 'I' for Inactive)
REMARK    1  A    between atoms: C_2  and  C_5
REMARK    2  A    between atoms: C_5  and  C_6
REMARK    3  A    between atoms: N_8  and  C_9
REMARK    4  A    between atoms: C_9  and  C_10
REMARK    5  A    between atoms: C_12  and  C_13
REMARK    6  A    between atoms: C_13  and  C_14
REMARK    7  A    between atoms: C_17  and  C_19
REMARK                            x       y       z     vdW  Elec       q    Type
REMARK                         _______ _______ _______ _____ _____    ______ ____
ROOT
ATOM     10  C   UNL     1      14.116   7.673  17.923  0.00  0.00    +0.167 C 
ATOM     11  O   UNL     1      13.641   8.172  18.378  0.00  0.00    -0.354 OA
ATOM     12  C   UNL     1      13.029   8.595  18.024  0.00  0.00    +0.121 C 
ATOM     26  C   UNL     1      12.890   8.520  17.214  0.00  0.00    +0.033 C 
ATOM     27  C   UNL     1      13.364   8.021  16.758  0.00  0.00    +0.038 C 
ATOM     28  C   UNL     1      13.977   7.598  17.113  0.00  0.00    +0.181 C 
ATOM     29  O   UNL     1      14.451   7.100  16.658  0.00  0.00    -0.220 OA
ENDROOT
BRANCH  10   9
ATOM      9  C   UNL     1      14.729   7.251  18.277  0.00  0.00    +0.147 C 
BRANCH   9   8
ATOM      6  C   UNL     1      15.564   7.049  19.419  0.00  0.00    +0.241 C 
ATOM      7  O   UNL     1      15.667   6.258  19.204  0.00  0.00    -0.273 OA
ATOM      8  N   UNL     1      15.096   7.544  18.956  0.00  0.00    -0.203 NA
BRANCH   6   5
ATOM      5  C   UNL     1      15.931   7.343  20.097  0.00  0.00    +0.087 C 
BRANCH   5   2
ATOM      1  C   UNL     1      16.901   6.362  21.003  0.00  0.00    +0.000 C 
ATOM      2  C   UNL     1      16.416   6.853  20.550  0.00  0.00    +0.009 C 
ATOM      3  C   UNL     1      15.760   6.605  20.984  0.00  0.00    +0.000 C 
ATOM      4  C   UNL     1      17.072   7.100  20.116  0.00  0.00    +0.000 C 
ENDBRANCH   5   2
ENDBRANCH   6   5
ENDBRANCH   9   8
ENDBRANCH  10   9
BRANCH  12  13
ATOM     13  C   UNL     1      12.555   9.093  18.478  0.00  0.00    +0.079 C 
BRANCH  13  14
ATOM     14  C   UNL     1      11.954   8.776  18.949  0.00  0.00    +0.103 A 
ATOM     15  N   UNL     1      11.261   8.424  18.676  0.00  0.00    -0.081 NA
ATOM     16  O   UNL     1      10.821   8.186  19.333  0.00  0.00    -0.354 OA
ATOM     17  C   UNL     1      11.244   8.391  20.011  0.00  0.00    +0.177 A 
ATOM     18  C   UNL     1      11.945   8.756  19.773  0.00  0.00    +0.058 A 
BRANCH  17  19
ATOM     19  C   UNL     1      11.008   8.255  20.790  0.00  0.00    +0.037 A 
ATOM     20  C   UNL     1      10.839   8.891  21.286  0.00  0.00    +0.005 A 
ATOM     21  C   UNL     1      10.602   8.755  22.065  0.00  0.00    +0.030 A 
ATOM     22  C   UNL     1      10.535   7.981  22.346  0.00  0.00    +0.140 A 
ATOM     23  F   UNL     1      10.298   7.845  23.125  0.00  0.00    -0.204 F 
ATOM     24  C   UNL     1      10.703   7.346  21.849  0.00  0.00    +0.030 A 
ATOM     25  C   UNL     1      10.940   7.482  21.070  0.00  0.00    +0.005 A 
ENDBRANCH  17  19
ENDBRANCH  13  14
ENDBRANCH  12  13
TORSDOF 7
ENDMDL
