MODEL 1
REMARK VINA RESULT:     -11.0      0.000      0.000
REMARK  Name = 
REMARK  6 active torsions:
REMARK  status: ('A' for Active; 'I' for Inactive)
REMARK    1  A    between atoms: C_2  and  C_4
REMARK    2  A    between atoms: C_6  and  C_7
REMARK    3  A    between atoms: C_7  and  C_8
REMARK    4  A    between atoms: C_21  and  C_22
REMARK    5  A    between atoms: C_22  and  N_23
REMARK    6  A    between atoms: C_24  and  C_26
REMARK                            x       y       z     vdW  Elec       q    Type
REMARK                         _______ _______ _______ _____ _____    ______ ____
ROOT
ATOM      4  C   UNL     1      -4.088   1.832  24.557  0.00  0.00    +0.006 C 
ATOM      5  C   UNL     1      -4.128   1.136  24.115  0.00  0.00    +0.005 C 
ATOM      6  C   UNL     1      -3.505   0.930  23.615  0.00  0.00    +0.026 C 
ATOM     18  C   UNL     1      -2.843   1.419  23.556  0.00  0.00    -0.048 C 
ATOM     19  C   UNL     1      -2.220   1.212  23.056  0.00  0.00    +0.026 C 
ATOM     20  C   UNL     1      -2.804   2.114  23.999  0.00  0.00    -0.033 C 
ATOM     21  C   UNL     1      -3.426   2.320  24.499  0.00  0.00    +0.043 C 
ENDROOT
BRANCH   4   2
ATOM      1  C   UNL     1      -4.750   1.724  25.819  0.00  0.00    +0.000 C 
ATOM      2  C   UNL     1      -4.710   2.039  25.058  0.00  0.00    +0.000 C 
ATOM      3  C   UNL     1      -5.294   2.561  24.797  0.00  0.00    +0.000 C 
ENDBRANCH   4   2
BRANCH   6   7
ATOM      7  C   UNL     1      -3.544   0.235  23.172  0.00  0.00    +0.070 C 
BRANCH   7   8
ATOM      8  C   UNL     1      -3.568  -0.497  23.553  0.00  0.00    +0.139 A 
ATOM      9  N   UNL     1      -4.140  -1.081  23.446  0.00  0.00    -0.229 NA
ATOM     10  C   UNL     1      -3.950  -1.717  23.934  0.00  0.00    +0.100 A 
ATOM     11  C   UNL     1      -3.260  -1.526  24.344  0.00  0.00    +0.100 A 
ATOM     12  N   UNL     1      -3.024  -0.772  24.109  0.00  0.00    -0.229 NA
ATOM     13  C   UNL     1      -2.936  -2.065  24.879  0.00  0.00    +0.016 A 
ATOM     14  C   UNL     1      -3.301  -2.793  25.004  0.00  0.00    -0.020 A 
ATOM     15  C   UNL     1      -2.977  -3.331  25.538  0.00  0.00    +0.031 C 
ATOM     16  C   UNL     1      -3.991  -2.984  24.594  0.00  0.00    -0.003 A 
ATOM     17  C   UNL     1      -4.316  -2.446  24.059  0.00  0.00    +0.020 A 
ENDBRANCH   7   8
ENDBRANCH   6   7
BRANCH  21  22
ATOM     22  C   UNL     1      -3.386   3.016  24.941  0.00  0.00    +0.120 C 
BRANCH  22  23
ATOM     23  N   UNL     1      -2.797   3.572  24.782  0.00  0.00    -0.201 NA
ATOM     24  C   UNL     1      -2.535   4.078  25.378  0.00  0.00    +0.265 C 
ATOM     25  O   UNL     1      -2.861   4.027  26.135  0.00  0.00    -0.268 OA
BRANCH  24  26
ATOM     26  C   UNL     1      -1.946   4.634  25.218  0.00  0.00    +0.055 A 
ATOM     27  C   UNL     1      -2.143   5.432  25.146  0.00  0.00    +0.005 A 
ATOM     28  C   UNL     1      -1.555   5.988  24.986  0.00  0.00    +0.000 A 
ATOM     29  C   UNL     1      -0.770   5.746  24.899  0.00  0.00    +0.000 A 
ATOM     30  C   UNL     1      -0.575   4.948  24.971  0.00  0.00    +0.000 A 
ATOM     31  C   UNL     1      -1.163   4.392  25.131  0.00  0.00    +0.005 A 
ENDBRANCH  24  26
ENDBRANCH  22  23
ENDBRANCH  21  22
TORSDOF 6
ENDMDL
MODEL 2
REMARK VINA RESULT:     -11.0      1.071      1.940
REMARK  Name = 
REMARK  6 active torsions:
REMARK  status: ('A' for Active; 'I' for Inactive)
REMARK    1  A    between atoms: C_2  and  C_4
REMARK    2  A    between atoms: C_6  and  C_7
REMARK    3  A    between atoms: C_7  and  C_8
REMARK    4  A    between atoms: C_21  and  C_22
REMARK    5  A    between atoms: C_22  and  N_23
REMARK    6  A    between atoms: C_24  and  C_26
REMARK                            x       y       z     vdW  Elec       q    Type
REMARK                         _______ _______ _______ _____ _____    ______ ____
ROOT
ATOM      4  C   UNL     1      -2.050   1.057  24.535  0.00  0.00    +0.006 C 
ATOM      5  C   UNL     1      -2.691   0.556  24.396  0.00  0.00    +0.005 C 
ATOM      6  C   UNL     1      -3.457   0.808  24.571  0.00  0.00    +0.026 C 
ATOM     18  C   UNL     1      -3.581   1.562  24.884  0.00  0.00    -0.048 C 
ATOM     19  C   UNL     1      -4.347   1.815  25.058  0.00  0.00    +0.026 C 
ATOM     20  C   UNL     1      -2.940   2.062  25.022  0.00  0.00    -0.033 C 
ATOM     21  C   UNL     1      -2.174   1.809  24.848  0.00  0.00    +0.043 C 
ENDROOT
BRANCH   4   2
ATOM      1  C   UNL     1      -0.978   0.907  23.602  0.00  0.00    +0.000 C 
ATOM      2  C   UNL     1      -1.284   0.804  24.361  0.00  0.00    +0.000 C 
ATOM      3  C   UNL     1      -0.824   0.447  24.946  0.00  0.00    +0.000 C 
ENDBRANCH   4   2
BRANCH   6   7
ATOM      7  C   UNL     1      -4.098   0.309  24.432  0.00  0.00    +0.070 C 
BRANCH   7   8
ATOM      8  C   UNL     1      -3.998  -0.510  24.462  0.00  0.00    +0.139 A 
ATOM      9  N   UNL     1      -3.795  -0.950  25.129  0.00  0.00    -0.229 NA
ATOM     10  C   UNL     1      -3.755  -1.743  24.909  0.00  0.00    +0.100 A 
ATOM     11  C   UNL     1      -3.933  -1.794  24.105  0.00  0.00    +0.100 A 
ATOM     12  N   UNL     1      -4.083  -1.032  23.828  0.00  0.00    -0.229 NA
ATOM     13  C   UNL     1      -3.935  -2.529  23.729  0.00  0.00    +0.016 A 
ATOM     14  C   UNL     1      -3.760  -3.212  24.156  0.00  0.00    -0.020 A 
ATOM     15  C   UNL     1      -3.762  -3.945  23.780  0.00  0.00    +0.031 C 
ATOM     16  C   UNL     1      -3.582  -3.161  24.960  0.00  0.00    -0.003 A 
ATOM     17  C   UNL     1      -3.579  -2.427  25.337  0.00  0.00    +0.020 A 
ENDBRANCH   7   8
ENDBRANCH   6   7
BRANCH  21  22
ATOM     22  C   UNL     1      -1.533   2.310  24.987  0.00  0.00    +0.120 C 
BRANCH  22  23
ATOM     23  N   UNL     1      -1.611   3.122  24.864  0.00  0.00    -0.201 NA
ATOM     24  C   UNL     1      -1.094   3.647  25.235  0.00  0.00    +0.265 C 
ATOM     25  O   UNL     1      -0.499   3.359  25.729  0.00  0.00    -0.268 OA
BRANCH  24  26
ATOM     26  C   UNL     1      -1.172   4.459  25.112  0.00  0.00    +0.055 A 
ATOM     27  C   UNL     1      -1.844   4.854  25.383  0.00  0.00    +0.005 A 
ATOM     28  C   UNL     1      -1.922   5.667  25.261  0.00  0.00    +0.000 A 
ATOM     29  C   UNL     1      -1.328   6.084  24.867  0.00  0.00    +0.000 A 
ATOM     30  C   UNL     1      -0.657   5.688  24.596  0.00  0.00    +0.000 A 
ATOM     31  C   UNL     1      -0.579   4.876  24.719  0.00  0.00    +0.005 A 
ENDBRANCH  24  26
ENDBRANCH  22  23
ENDBRANCH  21  22
TORSDOF 6
ENDMDL
MODEL 3
REMARK VINA RESULT:     -10.6      1.590      5.986
REMARK  Name = 
REMARK  6 active torsions:
REMARK  status: ('A' for Active; 'I' for Inactive)
REMARK    1  A    between atoms: C_2  and  C_4
REMARK    2  A    between atoms: C_6  and  C_7
REMARK    3  A    between atoms: C_7  and  C_8
REMARK    4  A    between atoms: C_21  and  C_22
REMARK    5  A    between atoms: C_22  and  N_23
REMARK    6  A    between atoms: C_24  and  C_26
REMARK                            x       y       z     vdW  Elec       q    Type
REMARK                         _______ _______ _______ _____ _____    ______ ____
ROOT
ATOM      4  C   UNL     1      -2.985   1.479  24.700  0.00  0.00    +0.006 C 
ATOM      5  C   UNL     1      -2.392   1.970  24.998  0.00  0.00    +0.005 C 
ATOM      6  C   UNL     1      -1.711   1.640  25.326  0.00  0.00    +0.026 C 
ATOM     18  C   UNL     1      -1.622   0.820  25.358  0.00  0.00    -0.048 C 
ATOM     19  C   UNL     1      -0.941   0.491  25.686  0.00  0.00    +0.026 C 
ATOM     20  C   UNL     1      -2.216   0.330  25.060  0.00  0.00    -0.033 C 
ATOM     21  C   UNL     1      -2.897   0.660  24.732  0.00  0.00    +0.043 C 
ENDROOT
BRANCH   4   2
ATOM      1  C   UNL     1      -3.696   1.974  23.564  0.00  0.00    +0.000 C 
ATOM      2  C   UNL     1      -3.666   1.808  24.372  0.00  0.00    +0.000 C 
ATOM      3  C   UNL     1      -4.318   1.972  24.851  0.00  0.00    +0.000 C 
ENDBRANCH   4   2
BRANCH   6   7
ATOM      7  C   UNL     1      -1.117   2.130  25.624  0.00  0.00    +0.070 C 
BRANCH   7   8
ATOM      8  C   UNL     1      -1.084   2.923  25.398  0.00  0.00    +0.139 A 
ATOM      9  N   UNL     1      -0.580   3.244  24.830  0.00  0.00    -0.229 NA
ATOM     10  C   UNL     1      -0.734   4.053  24.781  0.00  0.00    +0.100 A 
ATOM     11  C   UNL     1      -1.333   4.232  25.320  0.00  0.00    +0.100 A 
ATOM     12  N   UNL     1      -1.549   3.533  25.701  0.00  0.00    -0.229 NA
ATOM     13  C   UNL     1      -1.603   5.008  25.393  0.00  0.00    +0.016 A 
ATOM     14  C   UNL     1      -1.275   5.605  24.928  0.00  0.00    -0.020 A 
ATOM     15  C   UNL     1      -1.545   6.380  25.002  0.00  0.00    +0.031 C 
ATOM     16  C   UNL     1      -0.676   5.426  24.390  0.00  0.00    -0.003 A 
ATOM     17  C   UNL     1      -0.405   4.651  24.316  0.00  0.00    +0.020 A 
ENDBRANCH   7   8
ENDBRANCH   6   7
BRANCH  21  22
ATOM     22  C   UNL     1      -3.490   0.169  24.435  0.00  0.00    +0.120 C 
BRANCH  22  23
ATOM     23  N   UNL     1      -3.373  -0.647  24.406  0.00  0.00    -0.201 NA
ATOM     24  C   UNL     1      -4.017  -1.154  24.315  0.00  0.00    +0.265 C 
ATOM     25  O   UNL     1      -4.780  -0.844  24.253  0.00  0.00    -0.268 OA
BRANCH  24  26
ATOM     26  C   UNL     1      -3.900  -1.970  24.286  0.00  0.00    +0.055 A 
ATOM     27  C   UNL     1      -3.513  -2.353  24.906  0.00  0.00    +0.005 A 
ATOM     28  C   UNL     1      -3.396  -3.169  24.878  0.00  0.00    +0.000 A 
ATOM     29  C   UNL     1      -3.666  -3.603  24.229  0.00  0.00    +0.000 A 
ATOM     30  C   UNL     1      -4.053  -3.219  23.610  0.00  0.00    +0.000 A 
ATOM     31  C   UNL     1      -4.170  -2.403  23.638  0.00  0.00    +0.005 A 
ENDBRANCH  24  26
ENDBRANCH  22  23
ENDBRANCH  21  22
TORSDOF 6
ENDMDL
MODEL 4
REMARK VINA RESULT:     -10.5      2.939      4.794
REMARK  Name = 
REMARK  6 active torsions:
REMARK  status: ('A' for Active; 'I' for Inactive)
REMARK    1  A    between atoms: C_2  and  C_4
REMARK    2  A    between atoms: C_6  and  C_7
REMARK    3  A    between atoms: C_7  and  C_8
REMARK    4  A    between atoms: C_21  and  C_22
REMARK    5  A    between atoms: C_22  and  N_23
REMARK    6  A    between atoms: C_24  and  C_26
REMARK                            x       y       z     vdW  Elec       q    Type
REMARK                         _______ _______ _______ _____ _____    ______ ____
ROOT
ATOM      4  C   UNL     1      -1.383   1.507  24.597  0.00  0.00    +0.006 C 
ATOM      5  C   UNL     1      -2.008   2.038  24.503  0.00  0.00    +0.005 C 
ATOM      6  C   UNL     1      -2.321   2.176  23.752  0.00  0.00    +0.026 C 
ATOM     18  C   UNL     1      -2.009   1.784  23.096  0.00  0.00    -0.048 C 
ATOM     19  C   UNL     1      -2.322   1.923  22.345  0.00  0.00    +0.026 C 
ATOM     20  C   UNL     1      -1.384   1.254  23.192  0.00  0.00    -0.033 C 
ATOM     21  C   UNL     1      -1.071   1.115  23.942  0.00  0.00    +0.043 C 
ENDROOT
BRANCH   4   2
ATOM      1  C   UNL     1      -1.294   0.697  25.771  0.00  0.00    +0.000 C 
ATOM      2  C   UNL     1      -1.070   1.369  25.348  0.00  0.00    +0.000 C 
ATOM      3  C   UNL     1      -0.532   1.902  25.676  0.00  0.00    +0.000 C 
ENDBRANCH   4   2
BRANCH   6   7
ATOM      7  C   UNL     1      -2.945   2.707  23.657  0.00  0.00    +0.070 C 
BRANCH   7   8
ATOM      8  C   UNL     1      -3.604   2.663  24.152  0.00  0.00    +0.139 A 
ATOM      9  N   UNL     1      -3.811   3.211  24.732  0.00  0.00    -0.229 NA
ATOM     10  C   UNL     1      -4.506   2.950  25.092  0.00  0.00    +0.100 A 
ATOM     11  C   UNL     1      -4.728   2.241  24.734  0.00  0.00    +0.100 A 
ATOM     12  N   UNL     1      -4.171   2.063  24.153  0.00  0.00    -0.229 NA
ATOM     13  C   UNL     1      -5.409   1.849  24.985  0.00  0.00    +0.016 A 
ATOM     14  C   UNL     1      -5.868   2.165  25.592  0.00  0.00    -0.020 A 
ATOM     15  C   UNL     1      -6.549   1.773  25.842  0.00  0.00    +0.031 C 
ATOM     16  C   UNL     1      -5.646   2.875  25.950  0.00  0.00    -0.003 A 
ATOM     17  C   UNL     1      -4.965   3.268  25.700  0.00  0.00    +0.020 A 
ENDBRANCH   7   8
ENDBRANCH   6   7
BRANCH  21  22
ATOM     22  C   UNL     1      -0.447   0.585  24.037  0.00  0.00    +0.120 C 
BRANCH  22  23
ATOM     23  N   UNL     1       0.201   0.616  23.527  0.00  0.00    -0.201 NA
ATOM     24  C   UNL     1       0.681  -0.048  23.426  0.00  0.00    +0.265 C 
ATOM     25  O   UNL     1       0.512  -0.744  23.837  0.00  0.00    -0.268 OA
BRANCH  24  26
ATOM     26  C   UNL     1       1.328  -0.016  22.916  0.00  0.00    +0.055 A 
ATOM     27  C   UNL     1       2.029   0.344  23.162  0.00  0.00    +0.005 A 
ATOM     28  C   UNL     1       2.677   0.375  22.652  0.00  0.00    +0.000 A 
ATOM     29  C   UNL     1       2.624   0.047  21.896  0.00  0.00    +0.000 A 
ATOM     30  C   UNL     1       1.923  -0.313  21.652  0.00  0.00    +0.000 A 
ATOM     31  C   UNL     1       1.275  -0.344  22.162  0.00  0.00    +0.005 A 
ENDBRANCH  24  26
ENDBRANCH  22  23
ENDBRANCH  21  22
TORSDOF 6
ENDMDL
MODEL 5
REMARK VINA RESULT:     -10.2      2.240      6.216
REMARK  Name = 
REMARK  6 active torsions:
REMARK  status: ('A' for Active; 'I' for Inactive)
REMARK    1  A    between atoms: C_2  and  C_4
REMARK    2  A    between atoms: C_6  and  C_7
REMARK    3  A    between atoms: C_7  and  C_8
REMARK    4  A    between atoms: C_21  and  C_22
REMARK    5  A    between atoms: C_22  and  N_23
REMARK    6  A    between atoms: C_24  and  C_26
REMARK                            x       y       z     vdW  Elec       q    Type
REMARK                         _______ _______ _______ _____ _____    ______ ____
ROOT
ATOM      4  C   UNL     1      -0.472   0.576  24.374  0.00  0.00    +0.006 C 
ATOM      5  C   UNL     1      -0.271   1.260  24.790  0.00  0.00    +0.005 C 
ATOM      6  C   UNL     1      -0.461   1.326  25.590  0.00  0.00    +0.026 C 
ATOM     18  C   UNL     1      -0.852   0.709  25.974  0.00  0.00    -0.048 C 
ATOM     19  C   UNL     1      -1.042   0.775  26.774  0.00  0.00    +0.026 C 
ATOM     20  C   UNL     1      -1.052   0.026  25.557  0.00  0.00    -0.033 C 
ATOM     21  C   UNL     1      -0.862  -0.040  24.757  0.00  0.00    +0.043 C 
ENDROOT
BRANCH   4   2
ATOM      1  C   UNL     1       0.410   0.125  23.344  0.00  0.00    +0.000 C 
ATOM      2  C   UNL     1      -0.282   0.510  23.574  0.00  0.00    +0.000 C 
ATOM      3  C   UNL     1      -0.785   0.829  23.002  0.00  0.00    +0.000 C 
ENDBRANCH   4   2
BRANCH   6   7
ATOM      7  C   UNL     1      -0.260   2.009  26.007  0.00  0.00    +0.070 C 
BRANCH   7   8
ATOM      8  C   UNL     1      -0.604   2.732  25.806  0.00  0.00    +0.139 A 
ATOM      9  N   UNL     1      -1.380   2.961  25.969  0.00  0.00    -0.229 NA
ATOM     10  C   UNL     1      -1.487   3.722  25.671  0.00  0.00    +0.100 A 
ATOM     11  C   UNL     1      -0.779   3.964  25.324  0.00  0.00    +0.100 A 
ATOM     12  N   UNL     1      -0.233   3.352  25.408  0.00  0.00    -0.229 NA
ATOM     13  C   UNL     1      -0.723   4.710  24.977  0.00  0.00    +0.016 A 
ATOM     14  C   UNL     1      -1.374   5.215  24.976  0.00  0.00    -0.020 A 
ATOM     15  C   UNL     1      -1.318   5.961  24.630  0.00  0.00    +0.031 C 
ATOM     16  C   UNL     1      -2.083   4.974  25.323  0.00  0.00    -0.003 A 
ATOM     17  C   UNL     1      -2.140   4.228  25.670  0.00  0.00    +0.020 A 
ENDBRANCH   7   8
ENDBRANCH   6   7
BRANCH  21  22
ATOM     22  C   UNL     1      -1.063  -0.724  24.341  0.00  0.00    +0.120 C 
BRANCH  22  23
ATOM     23  N   UNL     1      -1.841  -0.999  24.352  0.00  0.00    -0.201 NA
ATOM     24  C   UNL     1      -1.998  -1.800  24.232  0.00  0.00    +0.265 C 
ATOM     25  O   UNL     1      -1.375  -2.327  24.101  0.00  0.00    -0.268 OA
BRANCH  24  26
ATOM     26  C   UNL     1      -2.775  -2.075  24.243  0.00  0.00    +0.055 A 
ATOM     27  C   UNL     1      -2.950  -2.803  24.592  0.00  0.00    +0.005 A 
ATOM     28  C   UNL     1      -3.728  -3.078  24.603  0.00  0.00    +0.000 A 
ATOM     29  C   UNL     1      -4.331  -2.626  24.265  0.00  0.00    +0.000 A 
ATOM     30  C   UNL     1      -4.155  -1.899  23.917  0.00  0.00    +0.000 A 
ATOM     31  C   UNL     1      -3.377  -1.624  23.906  0.00  0.00    +0.005 A 
ENDBRANCH  24  26
ENDBRANCH  22  23
ENDBRANCH  21  22
TORSDOF 6
ENDMDL
MODEL 6
REMARK VINA RESULT:     -10.1      2.715      4.497
REMARK  Name = 
REMARK  6 active torsions:
REMARK  status: ('A' for Active; 'I' for Inactive)
REMARK    1  A    between atoms: C_2  and  C_4
REMARK    2  A    between atoms: C_6  and  C_7
REMARK    3  A    between atoms: C_7  and  C_8
REMARK    4  A    between atoms: C_21  and  C_22
REMARK    5  A    between atoms: C_22  and  N_23
REMARK    6  A    between atoms: C_24  and  C_26
REMARK                            x       y       z     vdW  Elec       q    Type
REMARK                         _______ _______ _______ _____ _____    ______ ____
ROOT
ATOM      4  C   UNL     1      -1.200   1.881  24.687  0.00  0.00    +0.006 C 
ATOM      5  C   UNL     1      -0.655   1.264  24.634  0.00  0.00    +0.005 C 
ATOM      6  C   UNL     1      -0.917   0.494  24.499  0.00  0.00    +0.026 C 
ATOM     18  C   UNL     1      -1.724   0.340  24.416  0.00  0.00    -0.048 C 
ATOM     19  C   UNL     1      -1.986  -0.430  24.280  0.00  0.00    +0.026 C 
ATOM     20  C   UNL     1      -2.268   0.958  24.469  0.00  0.00    -0.033 C 
ATOM     21  C   UNL     1      -2.006   1.729  24.605  0.00  0.00    +0.043 C 
ENDROOT
BRANCH   4   2
ATOM      1  C   UNL     1      -0.778   3.152  24.186  0.00  0.00    +0.000 C 
ATOM      2  C   UNL     1      -0.938   2.652  24.823  0.00  0.00    +0.000 C 
ATOM      3  C   UNL     1      -0.836   2.923  25.596  0.00  0.00    +0.000 C 
ENDBRANCH   4   2
BRANCH   6   7
ATOM      7  C   UNL     1      -0.373  -0.124  24.445  0.00  0.00    +0.070 C 
BRANCH   7   8
ATOM      8  C   UNL     1       0.261  -0.072  23.919  0.00  0.00    +0.139 A 
ATOM      9  N   UNL     1       0.266  -0.338  23.139  0.00  0.00    -0.229 NA
ATOM     10  C   UNL     1       1.008  -0.176  22.819  0.00  0.00    +0.100 A 
ATOM     11  C   UNL     1       1.463   0.190  23.402  0.00  0.00    +0.100 A 
ATOM     12  N   UNL     1       1.001   0.254  24.082  0.00  0.00    -0.229 NA
ATOM     13  C   UNL     1       2.239   0.418  23.238  0.00  0.00    +0.016 A 
ATOM     14  C   UNL     1       2.560   0.280  22.491  0.00  0.00    -0.020 A 
ATOM     15  C   UNL     1       3.335   0.507  22.327  0.00  0.00    +0.031 C 
ATOM     16  C   UNL     1       2.106  -0.086  21.908  0.00  0.00    -0.003 A 
ATOM     17  C   UNL     1       1.330  -0.314  22.071  0.00  0.00    +0.020 A 
ENDBRANCH   7   8
ENDBRANCH   6   7
BRANCH  21  22
ATOM     22  C   UNL     1      -2.551   2.346  24.658  0.00  0.00    +0.120 C 
BRANCH  22  23
ATOM     23  N   UNL     1      -3.312   2.200  24.942  0.00  0.00    -0.201 NA
ATOM     24  C   UNL     1      -3.927   2.719  24.760  0.00  0.00    +0.265 C 
ATOM     25  O   UNL     1      -3.780   3.385  24.294  0.00  0.00    -0.268 OA
BRANCH  24  26
ATOM     26  C   UNL     1      -4.688   2.573  25.044  0.00  0.00    +0.055 A 
ATOM     27  C   UNL     1      -4.962   2.973  25.712  0.00  0.00    +0.005 A 
ATOM     28  C   UNL     1      -5.723   2.827  25.995  0.00  0.00    +0.000 A 
ATOM     29  C   UNL     1      -6.209   2.282  25.611  0.00  0.00    +0.000 A 
ATOM     30  C   UNL     1      -5.934   1.883  24.943  0.00  0.00    +0.000 A 
ATOM     31  C   UNL     1      -5.173   2.029  24.660  0.00  0.00    +0.005 A 
ENDBRANCH  24  26
ENDBRANCH  22  23
ENDBRANCH  21  22
TORSDOF 6
ENDMDL
