MODEL 1
REMARK VINA RESULT:      -8.0      0.000      0.000
REMARK  Name = 
REMARK  5 active torsions:
REMARK  status: ('A' for Active; 'I' for Inactive)
REMARK    1  A    between atoms: C_2  and  C_3
REMARK    2  A    between atoms: C_2  and  C_28
REMARK    3  A    between atoms: C_14  and  C_16
REMARK    4  A    between atoms: N_30  and  C_32
REMARK    5  A    between atoms: C_32  and  C_33
REMARK                            x       y       z     vdW  Elec       q    Type
REMARK                         _______ _______ _______ _____ _____    ______ ____
ROOT
ATOM      3  C   UNL     1      -2.577   2.135  24.504  0.00  0.00    +0.039 C 
ATOM      4  C   UNL     1      -2.727   1.566  23.927  0.00  0.00    +0.003 C 
ATOM      5  C   UNL     1      -2.100   1.180  23.555  0.00  0.00    +0.001 C 
ATOM      6  C   UNL     1      -1.321   1.365  23.760  0.00  0.00    +0.007 C 
ATOM      7  C   UNL     1      -1.472   0.795  23.182  0.00  0.00    +0.000 C 
ATOM      8  C   UNL     1      -0.694   0.979  23.387  0.00  0.00    +0.034 C 
ATOM      9  C   UNL     1       0.083   1.164  23.592  0.00  0.00    +0.023 A 
ATOM     10  C   UNL     1       0.234   1.734  24.170  0.00  0.00    +0.063 A 
ATOM     11  N   UNL     1       1.052   1.799  24.256  0.00  0.00    -0.227 NA
ATOM     12  C   UNL     1       1.407   1.270  23.732  0.00  0.00    +0.185 A 
ATOM     13  N   UNL     1       2.217   1.154  23.635  0.00  0.00    -0.149 NA
ATOM     14  C   UNL     1       2.493   0.602  23.087  0.00  0.00    +0.287 C 
ATOM     15  O   UNL     1       1.957   0.167  22.636  0.00  0.00    -0.266 OA
ATOM     22  S   UNL     1       0.808   0.877  23.322  0.00  0.00    -0.054 S 
ATOM     23  C   UNL     1      -0.394   2.119  24.542  0.00  0.00    +0.043 C 
ATOM     24  C   UNL     1      -0.243   2.688  25.119  0.00  0.00    +0.006 C 
ATOM     25  C   UNL     1      -1.171   1.934  24.337  0.00  0.00    +0.036 C 
ATOM     26  C   UNL     1      -1.798   2.320  24.709  0.00  0.00    +0.153 C 
ATOM     27  O   UNL     1      -1.648   2.890  25.287  0.00  0.00    -0.223 OA
ENDROOT
BRANCH  14  16
ATOM     16  C   UNL     1       3.304   0.487  22.991  0.00  0.00    +0.116 A 
ATOM     17  C   UNL     1       3.847   1.053  22.733  0.00  0.00    +0.023 A 
ATOM     18  C   UNL     1       4.593   0.702  22.718  0.00  0.00    +0.020 A 
ATOM     19  C   UNL     1       4.511  -0.080  22.966  0.00  0.00    +0.076 A 
ATOM     20  N   UNL     1       3.715  -0.213  23.134  0.00  0.00    -0.320 N 
ATOM     21  C   UNL     1       3.387  -0.922  23.400  0.00  0.00    +0.131 C 
ENDBRANCH  14  16
BRANCH   3   2
ATOM      1  C   UNL     1      -3.189   3.341  24.964  0.00  0.00    +0.010 C 
ATOM      2  C   UNL     1      -3.203   2.521  24.877  0.00  0.00    +0.079 C 
BRANCH   2  28
ATOM     28  C   UNL     1      -3.844   2.087  25.161  0.00  0.00    +0.226 C 
ATOM     29  O   UNL     1      -3.719   1.358  25.529  0.00  0.00    -0.275 OA
ATOM     30  N   UNL     1      -4.611   2.381  25.079  0.00  0.00    -0.274 N 
ATOM     31  C   UNL     1      -4.736   3.109  24.712  0.00  0.00    +0.115 C 
BRANCH  30  32
ATOM     32  C   UNL     1      -5.252   1.948  25.364  0.00  0.00    +0.120 C 
BRANCH  32  33
ATOM     33  C   UNL     1      -6.019   2.140  25.127  0.00  0.00    -0.005 C 
ATOM     34  C   UNL     1      -6.637   1.612  25.263  0.00  0.00    -0.003 C 
ENDBRANCH  32  33
ENDBRANCH  30  32
ENDBRANCH   2  28
ENDBRANCH   3   2
TORSDOF 5
ENDMDL
MODEL 2
REMARK VINA RESULT:      -7.1      1.454      6.687
REMARK  Name = 
REMARK  5 active torsions:
REMARK  status: ('A' for Active; 'I' for Inactive)
REMARK    1  A    between atoms: C_2  and  C_3
REMARK    2  A    between atoms: C_2  and  C_28
REMARK    3  A    between atoms: C_14  and  C_16
REMARK    4  A    between atoms: N_30  and  C_32
REMARK    5  A    between atoms: C_32  and  C_33
REMARK                            x       y       z     vdW  Elec       q    Type
REMARK                         _______ _______ _______ _____ _____    ______ ____
ROOT
ATOM      3  C   UNL     1       0.426   0.139  23.392  0.00  0.00    +0.039 C 
ATOM      4  C   UNL     1       0.342  -0.329  24.066  0.00  0.00    +0.003 C 
ATOM      5  C   UNL     1      -0.348  -0.286  24.515  0.00  0.00    +0.001 C 
ATOM      6  C   UNL     1      -0.955   0.226  24.290  0.00  0.00    +0.007 C 
ATOM      7  C   UNL     1      -1.039  -0.243  24.964  0.00  0.00    +0.000 C 
ATOM      8  C   UNL     1      -1.646   0.269  24.740  0.00  0.00    +0.034 C 
ATOM      9  C   UNL     1      -2.252   0.781  24.516  0.00  0.00    +0.023 A 
ATOM     10  C   UNL     1      -2.169   1.250  23.841  0.00  0.00    +0.063 A 
ATOM     11  N   UNL     1      -2.856   1.700  23.757  0.00  0.00    -0.227 NA
ATOM     12  C   UNL     1      -3.364   1.509  24.379  0.00  0.00    +0.185 A 
ATOM     13  N   UNL     1      -4.112   1.829  24.509  0.00  0.00    -0.149 NA
ATOM     14  C   UNL     1      -4.559   1.583  25.157  0.00  0.00    +0.287 C 
ATOM     15  O   UNL     1      -4.257   1.017  25.675  0.00  0.00    -0.266 OA
ATOM     22  S   UNL     1      -2.991   0.941  24.847  0.00  0.00    -0.054 S 
ATOM     23  C   UNL     1      -1.478   1.207  23.392  0.00  0.00    +0.043 C 
ATOM     24  C   UNL     1      -1.395   1.675  22.719  0.00  0.00    +0.006 C 
ATOM     25  C   UNL     1      -0.871   0.695  23.617  0.00  0.00    +0.036 C 
ATOM     26  C   UNL     1      -0.181   0.652  23.168  0.00  0.00    +0.153 C 
ATOM     27  O   UNL     1      -0.097   1.120  22.494  0.00  0.00    -0.223 OA
ENDROOT
BRANCH  14  16
ATOM     16  C   UNL     1      -5.308   1.904  25.286  0.00  0.00    +0.116 A 
ATOM     17  C   UNL     1      -6.025   1.574  25.044  0.00  0.00    +0.023 A 
ATOM     18  C   UNL     1      -6.633   2.076  25.288  0.00  0.00    +0.020 A 
ATOM     19  C   UNL     1      -6.291   2.716  25.681  0.00  0.00    +0.076 A 
ATOM     20  N   UNL     1      -5.473   2.609  25.680  0.00  0.00    -0.320 N 
ATOM     21  C   UNL     1      -4.917   3.119  26.014  0.00  0.00    +0.131 C 
ENDBRANCH  14  16
BRANCH   3   2
ATOM      1  C   UNL     1       1.126  -0.342  22.244  0.00  0.00    +0.010 C 
ATOM      2  C   UNL     1       1.117   0.097  22.942  0.00  0.00    +0.079 C 
BRANCH   2  28
ATOM     28  C   UNL     1       1.796   0.491  23.191  0.00  0.00    +0.226 C 
ATOM     29  O   UNL     1       1.749   1.060  23.788  0.00  0.00    -0.275 OA
ATOM     30  N   UNL     1       2.525   0.319  22.843  0.00  0.00    -0.274 N 
ATOM     31  C   UNL     1       2.572  -0.249  22.247  0.00  0.00    +0.115 C 
BRANCH  30  32
ATOM     32  C   UNL     1       3.204   0.714  23.092  0.00  0.00    +0.120 C 
BRANCH  32  33
ATOM     33  C   UNL     1       3.932   0.544  22.742  0.00  0.00    -0.005 C 
ATOM     34  C   UNL     1       4.632   0.770  23.114  0.00  0.00    -0.003 C 
ENDBRANCH  32  33
ENDBRANCH  30  32
ENDBRANCH   2  28
ENDBRANCH   3   2
TORSDOF 5
ENDMDL
MODEL 3
REMARK VINA RESULT:      -6.5      1.282      6.621
REMARK  Name = 
REMARK  5 active torsions:
REMARK  status: ('A' for Active; 'I' for Inactive)
REMARK    1  A    between atoms: C_2  and  C_3
REMARK    2  A    between atoms: C_2  and  C_28
REMARK    3  A    between atoms: C_14  and  C_16
REMARK    4  A    between atoms: N_30  and  C_32
REMARK    5  A    between atoms: C_32  and  C_33
REMARK                            x       y       z     vdW  Elec       q    Type
REMARK                         _______ _______ _______ _____ _____    ______ ____
ROOT
ATOM      3  C   UNL     1       2.080   0.435  22.998  0.00  0.00    +0.039 C 
ATOM      4  C   UNL     1       1.722  -0.225  22.656  0.00  0.00    +0.003 C 
ATOM      5  C   UNL     1       0.910  -0.343  22.739  0.00  0.00    +0.001 C 
ATOM      6  C   UNL     1       0.455   0.200  23.165  0.00  0.00    +0.007 C 
ATOM      7  C   UNL     1       0.097  -0.461  22.822  0.00  0.00    +0.000 C 
ATOM      8  C   UNL     1      -0.357   0.081  23.248  0.00  0.00    +0.034 C 
ATOM      9  C   UNL     1      -0.811   0.623  23.673  0.00  0.00    +0.023 A 
ATOM     10  C   UNL     1      -0.453   1.283  24.015  0.00  0.00    +0.063 A 
ATOM     11  N   UNL     1      -1.038   1.719  24.400  0.00  0.00    -0.227 NA
ATOM     12  C   UNL     1      -1.758   1.329  24.296  0.00  0.00    +0.185 A 
ATOM     13  N   UNL     1      -2.489   1.573  24.589  0.00  0.00    -0.149 NA
ATOM     14  C   UNL     1      -3.164   1.124  24.439  0.00  0.00    +0.287 C 
ATOM     15  O   UNL     1      -3.109   0.431  23.996  0.00  0.00    -0.266 OA
ATOM     22  S   UNL     1      -1.617   0.651  23.846  0.00  0.00    -0.054 S 
ATOM     23  C   UNL     1       0.359   1.401  23.932  0.00  0.00    +0.043 C 
ATOM     24  C   UNL     1       0.716   2.060  24.274  0.00  0.00    +0.006 C 
ATOM     25  C   UNL     1       0.813   0.859  23.507  0.00  0.00    +0.036 C 
ATOM     26  C   UNL     1       1.625   0.977  23.424  0.00  0.00    +0.153 C 
ATOM     27  O   UNL     1       1.984   1.637  23.766  0.00  0.00    -0.223 OA
ENDROOT
BRANCH  14  16
ATOM     16  C   UNL     1      -3.896   1.369  24.733  0.00  0.00    +0.116 A 
ATOM     17  C   UNL     1      -4.207   2.132  24.681  0.00  0.00    +0.023 A 
ATOM     18  C   UNL     1      -4.948   2.130  25.046  0.00  0.00    +0.020 A 
ATOM     19  C   UNL     1      -5.092   1.366  25.323  0.00  0.00    +0.076 A 
ATOM     20  N   UNL     1      -4.442   0.897  25.129  0.00  0.00    -0.320 N 
ATOM     21  C   UNL     1      -4.355   0.095  25.302  0.00  0.00    +0.131 C 
ENDBRANCH  14  16
BRANCH   3   2
ATOM      1  C   UNL     1       3.173   1.240  22.556  0.00  0.00    +0.010 C 
ATOM      2  C   UNL     1       2.892   0.553  22.916  0.00  0.00    +0.079 C 
BRANCH   2  28
ATOM     28  C   UNL     1       3.423  -0.014  23.192  0.00  0.00    +0.226 C 
ATOM     29  O   UNL     1       3.145  -0.749  23.446  0.00  0.00    -0.275 OA
ATOM     30  N   UNL     1       4.230   0.152  23.215  0.00  0.00    -0.274 N 
ATOM     31  C   UNL     1       4.507   0.887  22.961  0.00  0.00    +0.115 C 
BRANCH  30  32
ATOM     32  C   UNL     1       4.761  -0.415  23.492  0.00  0.00    +0.120 C 
BRANCH  32  33
ATOM     33  C   UNL     1       5.514  -0.189  23.743  0.00  0.00    -0.005 C 
ATOM     34  C   UNL     1       5.965  -0.700  24.207  0.00  0.00    -0.003 C 
ENDBRANCH  32  33
ENDBRANCH  30  32
ENDBRANCH   2  28
ENDBRANCH   3   2
TORSDOF 5
ENDMDL
MODEL 4
REMARK VINA RESULT:      -6.3     14.747     15.575
REMARK  Name = 
REMARK  5 active torsions:
REMARK  status: ('A' for Active; 'I' for Inactive)
REMARK    1  A    between atoms: C_2  and  C_3
REMARK    2  A    between atoms: C_2  and  C_28
REMARK    3  A    between atoms: C_14  and  C_16
REMARK    4  A    between atoms: N_30  and  C_32
REMARK    5  A    between atoms: C_32  and  C_33
REMARK                            x       y       z     vdW  Elec       q    Type
REMARK                         _______ _______ _______ _____ _____    ______ ____
ROOT
ATOM      3  C   UNL     1      -7.718  -9.917  16.623  0.00  0.00    +0.039 C 
ATOM      4  C   UNL     1      -7.100  -9.981  17.164  0.00  0.00    +0.003 C 
ATOM      5  C   UNL     1      -6.326 -10.078  16.897  0.00  0.00    +0.001 C 
ATOM      6  C   UNL     1      -6.170 -10.110  16.086  0.00  0.00    +0.007 C 
ATOM      7  C   UNL     1      -5.551 -10.174  16.629  0.00  0.00    +0.000 C 
ATOM      8  C   UNL     1      -5.395 -10.207  15.819  0.00  0.00    +0.034 C 
ATOM      9  C   UNL     1      -5.240 -10.240  15.010  0.00  0.00    +0.023 A 
ATOM     10  C   UNL     1      -5.859 -10.176  14.467  0.00  0.00    +0.063 A 
ATOM     11  N   UNL     1      -5.539 -10.227  13.708  0.00  0.00    -0.227 NA
ATOM     12  C   UNL     1      -4.722 -10.322  13.782  0.00  0.00    +0.185 A 
ATOM     13  N   UNL     1      -4.186 -10.397  13.160  0.00  0.00    -0.149 NA
ATOM     14  C   UNL     1      -3.381 -10.489  13.319  0.00  0.00    +0.287 C 
ATOM     15  O   UNL     1      -3.114 -10.507  14.098  0.00  0.00    -0.266 OA
ATOM     22  S   UNL     1      -4.538 -10.330  14.586  0.00  0.00    -0.054 S 
ATOM     23  C   UNL     1      -6.633 -10.079  14.735  0.00  0.00    +0.043 C 
ATOM     24  C   UNL     1      -7.251 -10.015  14.193  0.00  0.00    +0.006 C 
ATOM     25  C   UNL     1      -6.788 -10.046  15.545  0.00  0.00    +0.036 C 
ATOM     26  C   UNL     1      -7.562  -9.950  15.812  0.00  0.00    +0.153 C 
ATOM     27  O   UNL     1      -8.182  -9.886  15.270  0.00  0.00    -0.223 OA
ENDROOT
BRANCH  14  16
ATOM     16  C   UNL     1      -2.845 -10.564  12.696  0.00  0.00    +0.116 A 
ATOM     17  C   UNL     1      -3.030 -10.769  11.918  0.00  0.00    +0.023 A 
ATOM     18  C   UNL     1      -2.330 -10.778  11.483  0.00  0.00    +0.020 A 
ATOM     19  C   UNL     1      -1.711 -10.580  11.992  0.00  0.00    +0.076 A 
ATOM     20  N   UNL     1      -2.030 -10.447  12.741  0.00  0.00    -0.320 N 
ATOM     21  C   UNL     1      -1.607 -10.235  13.417  0.00  0.00    +0.131 C 
ENDBRANCH  14  16
BRANCH   3   2
ATOM      1  C   UNL     1      -8.992 -10.475  16.951  0.00  0.00    +0.010 C 
ATOM      2  C   UNL     1      -8.493  -9.821  16.889  0.00  0.00    +0.079 C 
BRANCH   2  28
ATOM     28  C   UNL     1      -8.769  -9.072  17.095  0.00  0.00    +0.226 C 
ATOM     29  O   UNL     1      -8.237  -8.490  17.342  0.00  0.00    -0.275 OA
ATOM     30  N   UNL     1      -9.575  -8.902  17.053  0.00  0.00    -0.274 N 
ATOM     31  C   UNL     1     -10.106  -9.483  16.805  0.00  0.00    +0.115 C 
BRANCH  30  32
ATOM     32  C   UNL     1      -9.851  -8.153  17.258  0.00  0.00    +0.120 C 
BRANCH  32  33
ATOM     33  C   UNL     1     -10.549  -7.864  16.926  0.00  0.00    -0.005 C 
ATOM     34  C   UNL     1     -10.718  -7.058  16.956  0.00  0.00    -0.003 C 
ENDBRANCH  32  33
ENDBRANCH  30  32
ENDBRANCH   2  28
ENDBRANCH   3   2
TORSDOF 5
ENDMDL
MODEL 5
REMARK VINA RESULT:      -5.8     17.231     18.222
REMARK  Name = 
REMARK  5 active torsions:
REMARK  status: ('A' for Active; 'I' for Inactive)
REMARK    1  A    between atoms: C_2  and  C_3
REMARK    2  A    between atoms: C_2  and  C_28
REMARK    3  A    between atoms: C_14  and  C_16
REMARK    4  A    between atoms: N_30  and  C_32
REMARK    5  A    between atoms: C_32  and  C_33
REMARK                            x       y       z     vdW  Elec       q    Type
REMARK                         _______ _______ _______ _____ _____    ______ ____
ROOT
ATOM      3  C   UNL     1      -7.822  -8.329   9.125  0.00  0.00    +0.039 C 
ATOM      4  C   UNL     1      -7.219  -8.253   8.568  0.00  0.00    +0.003 C 
ATOM      5  C   UNL     1      -6.446  -8.459   8.767  0.00  0.00    +0.001 C 
ATOM      6  C   UNL     1      -6.276  -8.741   9.524  0.00  0.00    +0.007 C 
ATOM      7  C   UNL     1      -5.672  -8.665   8.967  0.00  0.00    +0.000 C 
ATOM      8  C   UNL     1      -5.502  -8.948   9.723  0.00  0.00    +0.034 C 
ATOM      9  C   UNL     1      -5.332  -9.230  10.479  0.00  0.00    +0.023 A 
ATOM     10  C   UNL     1      -5.936  -9.306  11.037  0.00  0.00    +0.063 A 
ATOM     11  N   UNL     1      -5.604  -9.598  11.734  0.00  0.00    -0.227 NA
ATOM     12  C   UNL     1      -4.795  -9.702  11.607  0.00  0.00    +0.185 A 
ATOM     13  N   UNL     1      -4.251  -9.984  12.158  0.00  0.00    -0.149 NA
ATOM     14  C   UNL     1      -3.456 -10.059  11.952  0.00  0.00    +0.287 C 
ATOM     15  O   UNL     1      -3.206  -9.852  11.194  0.00  0.00    -0.266 OA
ATOM     22  S   UNL     1      -4.628  -9.475  10.832  0.00  0.00    -0.054 S 
ATOM     23  C   UNL     1      -6.709  -9.100  10.837  0.00  0.00    +0.043 C 
ATOM     24  C   UNL     1      -7.312  -9.176  11.395  0.00  0.00    +0.006 C 
ATOM     25  C   UNL     1      -6.879  -8.817  10.081  0.00  0.00    +0.036 C 
ATOM     26  C   UNL     1      -7.652  -8.611   9.882  0.00  0.00    +0.153 C 
ATOM     27  O   UNL     1      -8.257  -8.687  10.439  0.00  0.00    -0.223 OA
ENDROOT
BRANCH  14  16
ATOM     16  C   UNL     1      -2.911 -10.341  12.504  0.00  0.00    +0.116 A 
ATOM     17  C   UNL     1      -3.070 -10.514  13.296  0.00  0.00    +0.023 A 
ATOM     18  C   UNL     1      -2.370 -10.780  13.643  0.00  0.00    +0.020 A 
ATOM     19  C   UNL     1      -1.780 -10.771  13.066  0.00  0.00    +0.076 A 
ATOM     20  N   UNL     1      -2.115 -10.500  12.363  0.00  0.00    -0.320 N 
ATOM     21  C   UNL     1      -1.721 -10.405  11.644  0.00  0.00    +0.131 C 
ENDBRANCH  14  16
BRANCH   3   2
ATOM      1  C   UNL     1      -9.198  -8.685   8.976  0.00  0.00    +0.010 C 
ATOM      2  C   UNL     1      -8.596  -8.123   8.926  0.00  0.00    +0.079 C 
BRANCH   2  28
ATOM     28  C   UNL     1      -8.769  -7.356   8.679  0.00  0.00    +0.226 C 
ATOM     29  O   UNL     1      -8.156  -6.833   8.496  0.00  0.00    -0.275 OA
ATOM     30  N   UNL     1      -9.554  -7.109   8.613  0.00  0.00    -0.274 N 
ATOM     31  C   UNL     1     -10.166  -7.631   8.795  0.00  0.00    +0.115 C 
BRANCH  30  32
ATOM     32  C   UNL     1      -9.726  -6.342   8.365  0.00  0.00    +0.120 C 
BRANCH  32  33
ATOM     33  C   UNL     1     -10.491  -6.043   8.447  0.00  0.00    -0.005 C 
ATOM     34  C   UNL     1     -10.627  -5.233   8.382  0.00  0.00    -0.003 C 
ENDBRANCH  32  33
ENDBRANCH  30  32
ENDBRANCH   2  28
ENDBRANCH   3   2
TORSDOF 5
ENDMDL
