REMARK  Name = 
REMARK  8 active torsions:
REMARK  status: ('A' for Active; 'I' for Inactive)
REMARK    1  A    between atoms: C_2  and  C_3
REMARK    2  A    between atoms: C_4  and  C_17
REMARK    3  A    between atoms: N_9  and  C_10
REMARK    4  A    between atoms: C_10  and  C_11
REMARK    5  A    between atoms: C_20  and  N_21
REMARK    6  A    between atoms: N_21  and  S_22
REMARK    7  A    between atoms: S_22  and  C_25
REMARK    8  A    between atoms: C_25  and  C_26
REMARK                            x       y       z     vdW  Elec       q    Type
REMARK                         _______ _______ _______ _____ _____    ______ ____
ROOT
ATOM     17  C   UNL     1       3.572  -5.362   0.000  0.00  0.00    +0.006 A 
ATOM     18  C   UNL     1       3.572  -4.537   0.000  0.00  0.00    -0.001 A 
ATOM     19  C   UNL     1       4.287  -4.125   0.000  0.00  0.00    +0.018 A 
ATOM     20  C   UNL     1       5.001  -4.537   0.000  0.00  0.00    +0.091 A 
ATOM     32  C   UNL     1       5.001  -5.362   0.000  0.00  0.00    +0.018 A 
ATOM     33  C   UNL     1       4.287  -5.775   0.000  0.00  0.00    -0.001 A 
ENDROOT
BRANCH  17   4
ATOM      3  C   UNL     1       2.143  -5.362   0.000  0.00  0.00    +0.140 C 
ATOM      4  C   UNL     1       2.858  -5.775   0.000  0.00  0.00    +0.159 C 
ATOM      5  O   UNL     1       2.858  -6.600   0.000  0.00  0.00    -0.341 OA
ATOM      6  C   UNL     1       2.143  -7.013   0.000  0.00  0.00    +0.227 C 
ATOM      7  C   UNL     1       1.429  -6.600   0.000  0.00  0.00    +0.256 C 
ATOM      8  O   UNL     1       0.715  -7.013   0.000  0.00  0.00    -0.272 OA
ATOM      9  N   UNL     1       1.429  -5.775   0.000  0.00  0.00    -0.270 N 
BRANCH   3   2
ATOM      1  O   UNL     1       1.429  -4.125   0.000  0.00  0.00    -0.218 OA
ATOM      2  C   UNL     1       2.143  -4.537   0.000  0.00  0.00    +0.205 C 
ENDBRANCH   3   2
BRANCH   9  10
ATOM     10  C   UNL     1       0.715  -5.362   0.000  0.00  0.00    +0.120 C 
BRANCH  10  11
ATOM     11  C   UNL     1       0.000  -5.775   0.000  0.00  0.00    -0.002 A 
ATOM     12  C   UNL     1       0.000  -6.600   0.000  0.00  0.00    -0.003 A 
ATOM     13  C   UNL     1      -0.715  -7.013   0.000  0.00  0.00    -0.000 A 
ATOM     14  C   UNL     1      -1.429  -6.600   0.000  0.00  0.00    -0.000 A 
ATOM     15  C   UNL     1      -1.429  -5.775   0.000  0.00  0.00    -0.000 A 
ATOM     16  C   UNL     1      -0.715  -5.362   0.000  0.00  0.00    -0.003 A 
ENDBRANCH  10  11
ENDBRANCH   9  10
ENDBRANCH  17   4
BRANCH  20  21
ATOM     21  N   UNL     1       5.716  -4.125   0.000  0.00  0.00    -0.100 NA
BRANCH  21  22
ATOM     22  S   UNL     1       5.716  -3.300   0.000  0.00  0.00    +0.077 S 
ATOM     23  O   UNL     1       6.541  -3.300   0.000  0.00  0.00    -0.153 OA
ATOM     24  O   UNL     1       4.891  -3.300   0.000  0.00  0.00    -0.153 OA
BRANCH  22  25
ATOM     25  C   UNL     1       5.716  -2.475   0.000  0.00  0.00    +0.201 C 
BRANCH  25  26
ATOM     26  C   UNL     1       6.430  -2.062   0.000  0.00  0.00    +0.003 A 
ATOM     27  C   UNL     1       6.430  -1.238   0.000  0.00  0.00    -0.003 A 
ATOM     28  C   UNL     1       7.145  -0.825   0.000  0.00  0.00    -0.000 A 
ATOM     29  C   UNL     1       7.859  -1.238   0.000  0.00  0.00    -0.000 A 
ATOM     30  C   UNL     1       7.859  -2.062   0.000  0.00  0.00    -0.000 A 
ATOM     31  C   UNL     1       7.145  -2.475   0.000  0.00  0.00    -0.003 A 
ENDBRANCH  25  26
ENDBRANCH  22  25
ENDBRANCH  21  22
ENDBRANCH  20  21
TORSDOF 8
