MODEL 1
REMARK VINA RESULT:      -9.7      0.000      0.000
REMARK  Name = 
REMARK  4 active torsions:
REMARK  status: ('A' for Active; 'I' for Inactive)
REMARK    1  A    between atoms: C_2  and  C_3
REMARK    2  A    between atoms: C_2  and  C_27
REMARK    3  A    between atoms: C_14  and  C_16
REMARK    4  A    between atoms: C_16  and  C_17
REMARK                            x       y       z     vdW  Elec       q    Type
REMARK                         _______ _______ _______ _____ _____    ______ ____
ROOT
ATOM      3  C   UNL     1      -2.254   1.258  24.511  0.00  0.00    +0.039 C 
ATOM      4  C   UNL     1      -1.900   1.975  24.717  0.00  0.00    +0.003 C 
ATOM      5  C   UNL     1      -1.098   2.095  24.569  0.00  0.00    +0.001 C 
ATOM      6  C   UNL     1      -0.650   1.500  24.215  0.00  0.00    +0.007 C 
ATOM      7  C   UNL     1      -0.296   2.216  24.421  0.00  0.00    +0.000 C 
ATOM      8  C   UNL     1       0.153   1.620  24.067  0.00  0.00    +0.034 C 
ATOM      9  C   UNL     1       0.601   1.026  23.713  0.00  0.00    +0.023 A 
ATOM     10  C   UNL     1       0.246   0.309  23.507  0.00  0.00    +0.063 A 
ATOM     11  N   UNL     1       0.824  -0.173  23.168  0.00  0.00    -0.227 NA
ATOM     12  C   UNL     1       1.535   0.245  23.164  0.00  0.00    +0.185 A 
ATOM     13  N   UNL     1       2.257  -0.029  22.874  0.00  0.00    -0.154 NA
ATOM     14  C   UNL     1       2.925   0.454  22.908  0.00  0.00    +0.247 C 
ATOM     15  O   UNL     1       2.871   1.211  23.231  0.00  0.00    -0.273 OA
ATOM     21  S   UNL     1       1.397   0.985  23.501  0.00  0.00    -0.054 S 
ATOM     22  C   UNL     1      -0.556   0.188  23.655  0.00  0.00    +0.043 C 
ATOM     23  C   UNL     1      -0.910  -0.528  23.449  0.00  0.00    +0.006 C 
ATOM     24  C   UNL     1      -1.005   0.784  24.009  0.00  0.00    +0.036 C 
ATOM     25  C   UNL     1      -1.806   0.663  24.157  0.00  0.00    +0.153 C 
ATOM     26  O   UNL     1      -2.161  -0.053  23.951  0.00  0.00    -0.223 OA
ENDROOT
BRANCH   3   2
ATOM      1  C   UNL     1      -3.299   0.529  25.161  0.00  0.00    +0.010 C 
ATOM      2  C   UNL     1      -3.057   1.138  24.659  0.00  0.00    +0.079 C 
BRANCH   2  27
ATOM     27  C   UNL     1      -3.619   1.628  24.306  0.00  0.00    +0.225 C 
ATOM     28  O   UNL     1      -3.464   1.971  23.571  0.00  0.00    -0.275 OA
ATOM     29  N   UNL     1      -4.337   1.776  24.687  0.00  0.00    -0.278 N 
ATOM     30  C   UNL     1      -4.898   2.265  24.334  0.00  0.00    +0.105 C 
ATOM     31  C   UNL     1      -5.615   2.412  24.714  0.00  0.00    +0.079 C 
ATOM     32  S   UNL     1      -5.769   2.069  25.448  0.00  0.00    -0.137 S 
ATOM     33  C   UNL     1      -5.208   1.580  25.801  0.00  0.00    +0.079 C 
ATOM     34  C   UNL     1      -4.491   1.433  25.421  0.00  0.00    +0.105 C 
ENDBRANCH   2  27
ENDBRANCH   3   2
BRANCH  14  16
ATOM     16  C   UNL     1       3.647   0.179  22.618  0.00  0.00    +0.087 C 
BRANCH  16  17
ATOM     17  C   UNL     1       4.348   0.363  23.015  0.00  0.00    +0.009 C 
ATOM     18  C   UNL     1       5.047   0.545  23.411  0.00  0.00    +0.000 C 
ATOM     19  C   UNL     1       4.324  -0.370  23.394  0.00  0.00    +0.000 C 
ATOM     20  C   UNL     1       4.370   1.095  22.635  0.00  0.00    +0.000 C 
ENDBRANCH  16  17
ENDBRANCH  14  16
TORSDOF 4
ENDMDL
MODEL 2
REMARK VINA RESULT:      -8.0     14.399     15.155
REMARK  Name = 
REMARK  4 active torsions:
REMARK  status: ('A' for Active; 'I' for Inactive)
REMARK    1  A    between atoms: C_2  and  C_3
REMARK    2  A    between atoms: C_2  and  C_27
REMARK    3  A    between atoms: C_14  and  C_16
REMARK    4  A    between atoms: C_16  and  C_17
REMARK                            x       y       z     vdW  Elec       q    Type
REMARK                         _______ _______ _______ _____ _____    ______ ____
ROOT
ATOM      3  C   UNL     1      -7.237 -10.069  16.329  0.00  0.00    +0.039 C 
ATOM      4  C   UNL     1      -7.587 -10.021  15.582  0.00  0.00    +0.003 C 
ATOM      5  C   UNL     1      -7.121 -10.081  14.904  0.00  0.00    +0.001 C 
ATOM      6  C   UNL     1      -6.306 -10.188  14.972  0.00  0.00    +0.007 C 
ATOM      7  C   UNL     1      -6.655 -10.140  14.227  0.00  0.00    +0.000 C 
ATOM      8  C   UNL     1      -5.840 -10.248  14.294  0.00  0.00    +0.034 C 
ATOM      9  C   UNL     1      -5.025 -10.356  14.362  0.00  0.00    +0.023 A 
ATOM     10  C   UNL     1      -4.676 -10.404  15.108  0.00  0.00    +0.063 A 
ATOM     11  N   UNL     1      -3.864 -10.511  15.003  0.00  0.00    -0.227 NA
ATOM     12  C   UNL     1      -3.712 -10.529  14.193  0.00  0.00    +0.185 A 
ATOM     13  N   UNL     1      -2.972 -10.625  13.840  0.00  0.00    -0.154 NA
ATOM     14  C   UNL     1      -2.905 -10.632  13.019  0.00  0.00    +0.247 C 
ATOM     15  O   UNL     1      -3.577 -10.542  12.548  0.00  0.00    -0.273 OA
ATOM     21  S   UNL     1      -4.429 -10.433  13.797  0.00  0.00    -0.054 S 
ATOM     22  C   UNL     1      -5.142 -10.344  15.786  0.00  0.00    +0.043 C 
ATOM     23  C   UNL     1      -4.792 -10.393  16.532  0.00  0.00    +0.006 C 
ATOM     24  C   UNL     1      -5.957 -10.237  15.719  0.00  0.00    +0.036 C 
ATOM     25  C   UNL     1      -6.423 -10.177  16.396  0.00  0.00    +0.153 C 
ATOM     26  O   UNL     1      -6.074 -10.225  17.142  0.00  0.00    -0.223 OA
ENDROOT
BRANCH   3   2
ATOM      1  C   UNL     1      -7.731 -10.633  17.547  0.00  0.00    +0.010 C 
ATOM      2  C   UNL     1      -7.704 -10.009  17.006  0.00  0.00    +0.079 C 
BRANCH   2  27
ATOM     27  C   UNL     1      -8.144  -9.326  17.144  0.00  0.00    +0.225 C 
ATOM     28  O   UNL     1      -7.794  -8.583  17.055  0.00  0.00    -0.275 OA
ATOM     29  N   UNL     1      -8.936  -9.383  17.371  0.00  0.00    -0.278 N 
ATOM     30  C   UNL     1      -9.376  -8.700  17.509  0.00  0.00    +0.105 C 
ATOM     31  C   UNL     1     -10.167  -8.757  17.736  0.00  0.00    +0.079 C 
ATOM     32  S   UNL     1     -10.517  -9.499  17.825  0.00  0.00    -0.137 S 
ATOM     33  C   UNL     1     -10.077 -10.182  17.687  0.00  0.00    +0.079 C 
ATOM     34  C   UNL     1      -9.286 -10.125  17.460  0.00  0.00    +0.105 C 
ENDBRANCH   2  27
ENDBRANCH   3   2
BRANCH  14  16
ATOM     16  C   UNL     1      -2.165 -10.729  12.666  0.00  0.00    +0.087 C 
BRANCH  16  17
ATOM     17  C   UNL     1      -1.960 -10.277  12.006  0.00  0.00    +0.009 C 
ATOM     18  C   UNL     1      -1.755  -9.826  11.347  0.00  0.00    +0.000 C 
ATOM     19  C   UNL     1      -2.401 -10.781  11.525  0.00  0.00    +0.000 C 
ATOM     20  C   UNL     1      -1.519  -9.774  12.489  0.00  0.00    +0.000 C 
ENDBRANCH  16  17
ENDBRANCH  14  16
TORSDOF 4
ENDMDL
MODEL 3
REMARK VINA RESULT:      -8.0      1.218      6.467
REMARK  Name = 
REMARK  4 active torsions:
REMARK  status: ('A' for Active; 'I' for Inactive)
REMARK    1  A    between atoms: C_2  and  C_3
REMARK    2  A    between atoms: C_2  and  C_27
REMARK    3  A    between atoms: C_14  and  C_16
REMARK    4  A    between atoms: C_16  and  C_17
REMARK                            x       y       z     vdW  Elec       q    Type
REMARK                         _______ _______ _______ _____ _____    ______ ____
ROOT
ATOM      3  C   UNL     1       0.476   0.246  23.601  0.00  0.00    +0.039 C 
ATOM      4  C   UNL     1       0.463   1.068  23.527  0.00  0.00    +0.003 C 
ATOM      5  C   UNL     1      -0.220   1.488  23.717  0.00  0.00    +0.001 C 
ATOM      6  C   UNL     1      -0.891   1.088  23.982  0.00  0.00    +0.007 C 
ATOM      7  C   UNL     1      -0.904   1.908  23.908  0.00  0.00    +0.000 C 
ATOM      8  C   UNL     1      -1.575   1.508  24.173  0.00  0.00    +0.034 C 
ATOM      9  C   UNL     1      -2.245   1.107  24.437  0.00  0.00    +0.023 A 
ATOM     10  C   UNL     1      -2.232   0.285  24.511  0.00  0.00    +0.063 A 
ATOM     11  N   UNL     1      -2.972   0.043  24.784  0.00  0.00    -0.227 NA
ATOM     12  C   UNL     1      -3.442   0.714  24.879  0.00  0.00    +0.185 A 
ATOM     13  N   UNL     1      -4.224   0.725  25.142  0.00  0.00    -0.154 NA
ATOM     14  C   UNL     1      -4.626   1.442  25.209  0.00  0.00    +0.247 C 
ATOM     15  O   UNL     1      -4.247   2.148  25.014  0.00  0.00    -0.273 OA
ATOM     21  S   UNL     1      -2.993   1.371  24.664  0.00  0.00    -0.054 S 
ATOM     22  C   UNL     1      -1.549  -0.135  24.321  0.00  0.00    +0.043 C 
ATOM     23  C   UNL     1      -1.536  -0.957  24.395  0.00  0.00    +0.006 C 
ATOM     24  C   UNL     1      -0.878   0.265  24.056  0.00  0.00    +0.036 C 
ATOM     25  C   UNL     1      -0.194  -0.155  23.865  0.00  0.00    +0.153 C 
ATOM     26  O   UNL     1      -0.181  -0.976  23.939  0.00  0.00    -0.223 OA
ENDROOT
BRANCH   3   2
ATOM      1  C   UNL     1       1.508  -0.674  23.967  0.00  0.00    +0.010 C 
ATOM      2  C   UNL     1       1.160  -0.174  23.410  0.00  0.00    +0.079 C 
BRANCH   2  27
ATOM     27  C   UNL     1       1.497  -0.095  22.661  0.00  0.00    +0.225 C 
ATOM     28  O   UNL     1       1.032  -0.197  21.986  0.00  0.00    -0.275 OA
ATOM     29  N   UNL     1       2.298   0.087  22.586  0.00  0.00    -0.278 N 
ATOM     30  C   UNL     1       2.635   0.166  21.838  0.00  0.00    +0.105 C 
ATOM     31  C   UNL     1       3.436   0.348  21.762  0.00  0.00    +0.079 C 
ATOM     32  S   UNL     1       3.900   0.450  22.436  0.00  0.00    -0.137 S 
ATOM     33  C   UNL     1       3.563   0.371  23.184  0.00  0.00    +0.079 C 
ATOM     34  C   UNL     1       2.762   0.189  23.260  0.00  0.00    +0.105 C 
ENDBRANCH   2  27
ENDBRANCH   3   2
BRANCH  14  16
ATOM     16  C   UNL     1      -5.408   1.453  25.472  0.00  0.00    +0.087 C 
BRANCH  16  17
ATOM     17  C   UNL     1      -5.834   2.160  25.470  0.00  0.00    +0.009 C 
ATOM     18  C   UNL     1      -6.260   2.866  25.468  0.00  0.00    +0.000 C 
ATOM     19  C   UNL     1      -6.150   1.967  24.733  0.00  0.00    +0.000 C 
ATOM     20  C   UNL     1      -5.517   2.352  26.207  0.00  0.00    +0.000 C 
ENDBRANCH  16  17
ENDBRANCH  14  16
TORSDOF 4
ENDMDL
MODEL 4
REMARK VINA RESULT:      -6.8     16.726     17.877
REMARK  Name = 
REMARK  4 active torsions:
REMARK  status: ('A' for Active; 'I' for Inactive)
REMARK    1  A    between atoms: C_2  and  C_3
REMARK    2  A    between atoms: C_2  and  C_27
REMARK    3  A    between atoms: C_14  and  C_16
REMARK    4  A    between atoms: C_16  and  C_17
REMARK                            x       y       z     vdW  Elec       q    Type
REMARK                         _______ _______ _______ _____ _____    ______ ____
ROOT
ATOM      3  C   UNL     1      12.610  -6.466  31.641  0.00  0.00    +0.039 C 
ATOM      4  C   UNL     1      12.409  -6.010  32.300  0.00  0.00    +0.003 C 
ATOM      5  C   UNL     1      12.853  -5.341  32.488  0.00  0.00    +0.001 C 
ATOM      6  C   UNL     1      13.496  -5.127  32.019  0.00  0.00    +0.007 C 
ATOM      7  C   UNL     1      13.296  -4.672  32.677  0.00  0.00    +0.000 C 
ATOM      8  C   UNL     1      13.940  -4.458  32.208  0.00  0.00    +0.034 C 
ATOM      9  C   UNL     1      14.584  -4.244  31.739  0.00  0.00    +0.023 A 
ATOM     10  C   UNL     1      14.784  -4.700  31.080  0.00  0.00    +0.063 A 
ATOM     11  N   UNL     1      15.444  -4.355  30.724  0.00  0.00    -0.227 NA
ATOM     12  C   UNL     1      15.651  -3.687  31.160  0.00  0.00    +0.185 A 
ATOM     13  N   UNL     1      16.279  -3.177  30.998  0.00  0.00    -0.154 NA
ATOM     14  C   UNL     1      16.419  -2.528  31.487  0.00  0.00    +0.247 C 
ATOM     15  O   UNL     1      15.932  -2.388  32.138  0.00  0.00    -0.273 OA
ATOM     21  S   UNL     1      15.120  -3.618  31.788  0.00  0.00    -0.054 S 
ATOM     22  C   UNL     1      14.341  -5.369  30.892  0.00  0.00    +0.043 C 
ATOM     23  C   UNL     1      14.541  -5.824  30.234  0.00  0.00    +0.006 C 
ATOM     24  C   UNL     1      13.697  -5.583  31.361  0.00  0.00    +0.036 C 
ATOM     25  C   UNL     1      13.253  -6.252  31.172  0.00  0.00    +0.153 C 
ATOM     26  O   UNL     1      13.454  -6.708  30.514  0.00  0.00    -0.223 OA
ENDROOT
BRANCH   3   2
ATOM      1  C   UNL     1      11.722  -7.155  30.757  0.00  0.00    +0.010 C 
ATOM      2  C   UNL     1      12.166  -7.136  31.453  0.00  0.00    +0.079 C 
BRANCH   2  27
ATOM     27  C   UNL     1      12.165  -7.786  31.960  0.00  0.00    +0.225 C 
ATOM     28  O   UNL     1      12.877  -8.071  32.266  0.00  0.00    -0.275 OA
ATOM     29  N   UNL     1      11.453  -8.151  32.163  0.00  0.00    -0.278 N 
ATOM     30  C   UNL     1      11.453  -8.801  32.670  0.00  0.00    +0.105 C 
ATOM     31  C   UNL     1      10.742  -9.167  32.872  0.00  0.00    +0.079 C 
ATOM     32  S   UNL     1      10.031  -8.881  32.566  0.00  0.00    -0.137 S 
ATOM     33  C   UNL     1      10.031  -8.232  32.059  0.00  0.00    +0.079 C 
ATOM     34  C   UNL     1      10.742  -7.866  31.857  0.00  0.00    +0.105 C 
ENDBRANCH   2  27
ENDBRANCH   3   2
BRANCH  14  16
ATOM     16  C   UNL     1      17.047  -2.018  31.325  0.00  0.00    +0.087 C 
BRANCH  16  17
ATOM     17  C   UNL     1      17.079  -1.275  31.685  0.00  0.00    +0.009 C 
ATOM     18  C   UNL     1      17.111  -0.534  32.044  0.00  0.00    +0.000 C 
ATOM     19  C   UNL     1      16.756  -0.934  31.007  0.00  0.00    +0.000 C 
ATOM     20  C   UNL     1      17.403  -1.618  32.362  0.00  0.00    +0.000 C 
ENDBRANCH  16  17
ENDBRANCH  14  16
TORSDOF 4
ENDMDL
MODEL 5
REMARK VINA RESULT:      -6.6     15.317     17.310
REMARK  Name = 
REMARK  4 active torsions:
REMARK  status: ('A' for Active; 'I' for Inactive)
REMARK    1  A    between atoms: C_2  and  C_3
REMARK    2  A    between atoms: C_2  and  C_27
REMARK    3  A    between atoms: C_14  and  C_16
REMARK    4  A    between atoms: C_16  and  C_17
REMARK                            x       y       z     vdW  Elec       q    Type
REMARK                         _______ _______ _______ _____ _____    ______ ____
ROOT
ATOM      3  C   UNL     1      -5.900 -10.025  12.207  0.00  0.00    +0.039 C 
ATOM      4  C   UNL     1      -6.669  -9.937  11.917  0.00  0.00    +0.003 C 
ATOM      5  C   UNL     1      -7.302  -9.873  12.440  0.00  0.00    +0.001 C 
ATOM      6  C   UNL     1      -7.169  -9.895  13.254  0.00  0.00    +0.007 C 
ATOM      7  C   UNL     1      -7.935  -9.808  12.964  0.00  0.00    +0.000 C 
ATOM      8  C   UNL     1      -7.802  -9.831  13.778  0.00  0.00    +0.034 C 
ATOM      9  C   UNL     1      -7.669  -9.854  14.591  0.00  0.00    +0.023 A 
ATOM     10  C   UNL     1      -6.901  -9.941  14.882  0.00  0.00    +0.063 A 
ATOM     11  N   UNL     1      -6.939  -9.945  15.706  0.00  0.00    -0.227 NA
ATOM     12  C   UNL     1      -7.730  -9.860  15.925  0.00  0.00    +0.185 A 
ATOM     13  N   UNL     1      -8.019  -9.836  16.698  0.00  0.00    -0.154 NA
ATOM     14  C   UNL     1      -8.827  -9.748  16.833  0.00  0.00    +0.247 C 
ATOM     15  O   UNL     1      -9.348  -9.685  16.196  0.00  0.00    -0.273 OA
ATOM     21  S   UNL     1      -8.180  -9.804  15.237  0.00  0.00    -0.054 S 
ATOM     22  C   UNL     1      -6.267 -10.006  14.358  0.00  0.00    +0.043 C 
ATOM     23  C   UNL     1      -5.500 -10.093  14.648  0.00  0.00    +0.006 C 
ATOM     24  C   UNL     1      -6.400  -9.983  13.544  0.00  0.00    +0.036 C 
ATOM     25  C   UNL     1      -5.767 -10.047  13.020  0.00  0.00    +0.153 C 
ATOM     26  O   UNL     1      -5.000 -10.135  13.310  0.00  0.00    -0.223 OA
ENDROOT
BRANCH   3   2
ATOM      1  C   UNL     1      -4.803 -10.772  11.675  0.00  0.00    +0.010 C 
ATOM      2  C   UNL     1      -5.267 -10.089  11.682  0.00  0.00    +0.079 C 
BRANCH   2  27
ATOM     27  C   UNL     1      -5.096  -9.470  11.164  0.00  0.00    +0.225 C 
ATOM     28  O   UNL     1      -5.133  -8.689  11.428  0.00  0.00    -0.275 OA
ATOM     29  N   UNL     1      -4.888  -9.632  10.382  0.00  0.00    -0.278 N 
ATOM     30  C   UNL     1      -4.718  -9.014   9.864  0.00  0.00    +0.105 C 
ATOM     31  C   UNL     1      -4.510  -9.175   9.082  0.00  0.00    +0.079 C 
ATOM     32  S   UNL     1      -4.473  -9.956   8.819  0.00  0.00    -0.137 S 
ATOM     33  C   UNL     1      -4.643 -10.574   9.337  0.00  0.00    +0.079 C 
ATOM     34  C   UNL     1      -4.851 -10.413  10.118  0.00  0.00    +0.105 C 
ENDBRANCH   2  27
ENDBRANCH   3   2
BRANCH  14  16
ATOM     16  C   UNL     1      -9.116  -9.724  17.605  0.00  0.00    +0.087 C 
BRANCH  16  17
ATOM     17  C   UNL     1      -9.916  -9.574  17.742  0.00  0.00    +0.009 C 
ATOM     18  C   UNL     1     -10.715  -9.424  17.879  0.00  0.00    +0.000 C 
ATOM     19  C   UNL     1      -9.769  -8.763  17.710  0.00  0.00    +0.000 C 
ATOM     20  C   UNL     1     -10.062 -10.385  17.775  0.00  0.00    +0.000 C 
ENDBRANCH  16  17
ENDBRANCH  14  16
TORSDOF 4
ENDMDL
MODEL 6
REMARK VINA RESULT:      -6.5     16.874     18.686
REMARK  Name = 
REMARK  4 active torsions:
REMARK  status: ('A' for Active; 'I' for Inactive)
REMARK    1  A    between atoms: C_2  and  C_3
REMARK    2  A    between atoms: C_2  and  C_27
REMARK    3  A    between atoms: C_14  and  C_16
REMARK    4  A    between atoms: C_16  and  C_17
REMARK                            x       y       z     vdW  Elec       q    Type
REMARK                         _______ _______ _______ _____ _____    ______ ____
ROOT
ATOM      3  C   UNL     1      -4.309  -9.674  10.704  0.00  0.00    +0.039 C 
ATOM      4  C   UNL     1      -4.024  -8.910  10.572  0.00  0.00    +0.003 C 
ATOM      5  C   UNL     1      -4.514  -8.341  10.231  0.00  0.00    +0.001 C 
ATOM      6  C   UNL     1      -5.287  -8.534  10.021  0.00  0.00    +0.007 C 
ATOM      7  C   UNL     1      -5.003  -7.772   9.890  0.00  0.00    +0.000 C 
ATOM      8  C   UNL     1      -5.777  -7.965   9.680  0.00  0.00    +0.034 C 
ATOM      9  C   UNL     1      -6.551  -8.158   9.470  0.00  0.00    +0.023 A 
ATOM     10  C   UNL     1      -6.835  -8.922   9.601  0.00  0.00    +0.063 A 
ATOM     11  N   UNL     1      -7.617  -8.950   9.339  0.00  0.00    -0.227 NA
ATOM     12  C   UNL     1      -7.816  -8.206   9.046  0.00  0.00    +0.185 A 
ATOM     13  N   UNL     1      -8.545  -7.988   8.727  0.00  0.00    -0.154 NA
ATOM     14  C   UNL     1      -8.664  -7.219   8.455  0.00  0.00    +0.247 C 
ATOM     15  O   UNL     1      -8.053  -6.667   8.500  0.00  0.00    -0.273 OA
ATOM     21  S   UNL     1      -7.157  -7.716   9.127  0.00  0.00    -0.054 S 
ATOM     22  C   UNL     1      -6.346  -9.491   9.942  0.00  0.00    +0.043 C 
ATOM     23  C   UNL     1      -6.631 -10.254  10.074  0.00  0.00    +0.006 C 
ATOM     24  C   UNL     1      -5.572  -9.298  10.153  0.00  0.00    +0.036 C 
ATOM     25  C   UNL     1      -5.083  -9.867  10.494  0.00  0.00    +0.153 C 
ATOM     26  O   UNL     1      -5.367 -10.631  10.625  0.00  0.00    -0.223 OA
ENDROOT
BRANCH   3   2
ATOM      1  C   UNL     1      -3.410 -10.778  10.567  0.00  0.00    +0.010 C 
ATOM      2  C   UNL     1      -3.819 -10.244  11.045  0.00  0.00    +0.079 C 
BRANCH   2  27
ATOM     27  C   UNL     1      -3.738 -10.279  11.865  0.00  0.00    +0.225 C 
ATOM     28  O   UNL     1      -4.393 -10.148  12.351  0.00  0.00    -0.275 OA
ATOM     29  N   UNL     1      -3.002 -10.445  12.201  0.00  0.00    -0.278 N 
ATOM     30  C   UNL     1      -2.921 -10.480  13.020  0.00  0.00    +0.105 C 
ATOM     31  C   UNL     1      -2.186 -10.646  13.355  0.00  0.00    +0.079 C 
ATOM     32  S   UNL     1      -1.532 -10.777  12.870  0.00  0.00    -0.137 S 
ATOM     33  C   UNL     1      -1.613 -10.742  12.051  0.00  0.00    +0.079 C 
ATOM     34  C   UNL     1      -2.348 -10.576  11.715  0.00  0.00    +0.105 C 
ENDBRANCH   2  27
ENDBRANCH   3   2
BRANCH  14  16
ATOM     16  C   UNL     1      -9.393  -7.002   8.137  0.00  0.00    +0.087 C 
BRANCH  16  17
ATOM     17  C   UNL     1      -9.915  -6.540   8.579  0.00  0.00    +0.009 C 
ATOM     18  C   UNL     1     -10.437  -6.079   9.020  0.00  0.00    +0.000 C 
ATOM     19  C   UNL     1     -10.413  -7.192   8.670  0.00  0.00    +0.000 C 
ATOM     20  C   UNL     1      -9.417  -5.889   8.486  0.00  0.00    +0.000 C 
ENDBRANCH  16  17
ENDBRANCH  14  16
TORSDOF 4
ENDMDL
MODEL 7
REMARK VINA RESULT:      -6.3     16.343     17.568
REMARK  Name = 
REMARK  4 active torsions:
REMARK  status: ('A' for Active; 'I' for Inactive)
REMARK    1  A    between atoms: C_2  and  C_3
REMARK    2  A    between atoms: C_2  and  C_27
REMARK    3  A    between atoms: C_14  and  C_16
REMARK    4  A    between atoms: C_16  and  C_17
REMARK                            x       y       z     vdW  Elec       q    Type
REMARK                         _______ _______ _______ _____ _____    ______ ____
ROOT
ATOM      3  C   UNL     1      11.905  -7.658  31.736  0.00  0.00    +0.039 C 
ATOM      4  C   UNL     1      11.700  -7.362  30.993  0.00  0.00    +0.003 C 
ATOM      5  C   UNL     1      12.177  -6.796  30.629  0.00  0.00    +0.001 C 
ATOM      6  C   UNL     1      12.857  -6.526  31.007  0.00  0.00    +0.007 C 
ATOM      7  C   UNL     1      12.653  -6.230  30.266  0.00  0.00    +0.000 C 
ATOM      8  C   UNL     1      13.335  -5.959  30.644  0.00  0.00    +0.034 C 
ATOM      9  C   UNL     1      14.015  -5.688  31.022  0.00  0.00    +0.023 A 
ATOM     10  C   UNL     1      14.220  -5.984  31.766  0.00  0.00    +0.063 A 
ATOM     11  N   UNL     1      14.919  -5.615  32.003  0.00  0.00    -0.227 NA
ATOM     12  C   UNL     1      15.147  -5.092  31.407  0.00  0.00    +0.185 A 
ATOM     13  N   UNL     1      15.815  -4.609  31.416  0.00  0.00    -0.154 NA
ATOM     14  C   UNL     1      15.972  -4.112  30.777  0.00  0.00    +0.247 C 
ATOM     15  O   UNL     1      15.461  -4.097  30.129  0.00  0.00    -0.273 OA
ATOM     21  S   UNL     1      14.588  -5.137  30.802  0.00  0.00    -0.054 S 
ATOM     22  C   UNL     1      13.743  -6.550  32.129  0.00  0.00    +0.043 C 
ATOM     23  C   UNL     1      13.947  -6.845  32.872  0.00  0.00    +0.006 C 
ATOM     24  C   UNL     1      13.062  -6.821  31.751  0.00  0.00    +0.036 C 
ATOM     25  C   UNL     1      12.585  -7.387  32.114  0.00  0.00    +0.153 C 
ATOM     26  O   UNL     1      12.789  -7.683  32.857  0.00  0.00    -0.223 OA
ENDROOT
BRANCH   3   2
ATOM      1  C   UNL     1      11.716  -8.986  32.232  0.00  0.00    +0.010 C 
ATOM      2  C   UNL     1      11.427  -8.225  32.100  0.00  0.00    +0.079 C 
BRANCH   2  27
ATOM     27  C   UNL     1      10.660  -8.029  32.331  0.00  0.00    +0.225 C 
ATOM     28  O   UNL     1      10.498  -7.277  32.631  0.00  0.00    -0.275 OA
ATOM     29  N   UNL     1      10.054  -8.586  32.264  0.00  0.00    -0.278 N 
ATOM     30  C   UNL     1       9.287  -8.391  32.496  0.00  0.00    +0.105 C 
ATOM     31  C   UNL     1       8.682  -8.946  32.429  0.00  0.00    +0.079 C 
ATOM     32  S   UNL     1       8.844  -9.698  32.129  0.00  0.00    -0.137 S 
ATOM     33  C   UNL     1       9.610  -9.893  31.898  0.00  0.00    +0.079 C 
ATOM     34  C   UNL     1      10.216  -9.337  31.965  0.00  0.00    +0.105 C 
ENDBRANCH   2  27
ENDBRANCH   3   2
BRANCH  14  16
ATOM     16  C   UNL     1      16.641  -3.628  30.786  0.00  0.00    +0.087 C 
BRANCH  16  17
ATOM     17  C   UNL     1      16.658  -2.939  30.332  0.00  0.00    +0.009 C 
ATOM     18  C   UNL     1      16.675  -2.251  29.878  0.00  0.00    +0.000 C 
ATOM     19  C   UNL     1      16.282  -2.529  30.941  0.00  0.00    +0.000 C 
ATOM     20  C   UNL     1      17.033  -3.350  29.723  0.00  0.00    +0.000 C 
ENDBRANCH  16  17
ENDBRANCH  14  16
TORSDOF 4
ENDMDL
MODEL 8
REMARK VINA RESULT:      -6.3     15.620     18.145
REMARK  Name = 
REMARK  4 active torsions:
REMARK  status: ('A' for Active; 'I' for Inactive)
REMARK    1  A    between atoms: C_2  and  C_3
REMARK    2  A    between atoms: C_2  and  C_27
REMARK    3  A    between atoms: C_14  and  C_16
REMARK    4  A    between atoms: C_16  and  C_17
REMARK                            x       y       z     vdW  Elec       q    Type
REMARK                         _______ _______ _______ _____ _____    ______ ____
ROOT
ATOM      3  C   UNL     1      13.900  -5.749  31.266  0.00  0.00    +0.039 C 
ATOM      4  C   UNL     1      13.911  -6.345  30.694  0.00  0.00    +0.003 C 
ATOM      5  C   UNL     1      13.296  -6.893  30.659  0.00  0.00    +0.001 C 
ATOM      6  C   UNL     1      12.671  -6.847  31.194  0.00  0.00    +0.007 C 
ATOM      7  C   UNL     1      12.681  -7.441  30.624  0.00  0.00    +0.000 C 
ATOM      8  C   UNL     1      12.055  -7.395  31.159  0.00  0.00    +0.034 C 
ATOM      9  C   UNL     1      11.430  -7.349  31.695  0.00  0.00    +0.023 A 
ATOM     10  C   UNL     1      11.420  -6.753  32.267  0.00  0.00    +0.063 A 
ATOM     11  N   UNL     1      10.735  -6.845  32.718  0.00  0.00    -0.227 NA
ATOM     12  C   UNL     1      10.322  -7.497  32.425  0.00  0.00    +0.185 A 
ATOM     13  N   UNL     1       9.606  -7.787  32.714  0.00  0.00    -0.154 NA
ATOM     14  C   UNL     1       9.257  -8.446  32.364  0.00  0.00    +0.247 C 
ATOM     15  O   UNL     1       9.623  -8.817  31.725  0.00  0.00    -0.273 OA
ATOM     21  S   UNL     1      10.751  -7.808  31.794  0.00  0.00    -0.054 S 
ATOM     22  C   UNL     1      12.034  -6.205  32.302  0.00  0.00    +0.043 C 
ATOM     23  C   UNL     1      12.024  -5.610  32.873  0.00  0.00    +0.006 C 
ATOM     24  C   UNL     1      12.660  -6.251  31.766  0.00  0.00    +0.036 C 
ATOM     25  C   UNL     1      13.275  -5.703  31.802  0.00  0.00    +0.153 C 
ATOM     26  O   UNL     1      13.265  -5.108  32.373  0.00  0.00    -0.223 OA
ENDROOT
BRANCH   3   2
ATOM      1  C   UNL     1      14.363  -4.399  31.184  0.00  0.00    +0.010 C 
ATOM      2  C   UNL     1      14.516  -5.201  31.301  0.00  0.00    +0.079 C 
BRANCH   2  27
ATOM     27  C   UNL     1      15.286  -5.455  31.454  0.00  0.00    +0.225 C 
ATOM     28  O   UNL     1      15.423  -6.042  32.018  0.00  0.00    -0.275 OA
ATOM     29  N   UNL     1      15.920  -5.123  31.042  0.00  0.00    -0.278 N 
ATOM     30  C   UNL     1      16.689  -5.377  31.195  0.00  0.00    +0.105 C 
ATOM     31  C   UNL     1      17.322  -5.045  30.784  0.00  0.00    +0.079 C 
ATOM     32  S   UNL     1      17.185  -4.458  30.221  0.00  0.00    -0.137 S 
ATOM     33  C   UNL     1      16.416  -4.204  30.068  0.00  0.00    +0.079 C 
ATOM     34  C   UNL     1      15.783  -4.536  30.479  0.00  0.00    +0.105 C 
ENDBRANCH   2  27
ENDBRANCH   3   2
BRANCH  14  16
ATOM     16  C   UNL     1       8.540  -8.736  32.653  0.00  0.00    +0.087 C 
BRANCH  16  17
ATOM     17  C   UNL     1       8.059  -9.203  32.171  0.00  0.00    +0.009 C 
ATOM     18  C   UNL     1       7.579  -9.669  31.690  0.00  0.00    +0.000 C 
ATOM     19  C   UNL     1       7.675  -8.525  31.899  0.00  0.00    +0.000 C 
ATOM     20  C   UNL     1       8.444  -9.880  32.444  0.00  0.00    +0.000 C 
ENDBRANCH  16  17
ENDBRANCH  14  16
TORSDOF 4
ENDMDL
MODEL 9
REMARK VINA RESULT:      -6.2     17.143     18.074
REMARK  Name = 
REMARK  4 active torsions:
REMARK  status: ('A' for Active; 'I' for Inactive)
REMARK    1  A    between atoms: C_2  and  C_3
REMARK    2  A    between atoms: C_2  and  C_27
REMARK    3  A    between atoms: C_14  and  C_16
REMARK    4  A    between atoms: C_16  and  C_17
REMARK                            x       y       z     vdW  Elec       q    Type
REMARK                         _______ _______ _______ _____ _____    ______ ____
ROOT
ATOM      3  C   UNL     1      -7.423  -9.018   9.338  0.00  0.00    +0.039 C 
ATOM      4  C   UNL     1      -7.130  -8.258   9.204  0.00  0.00    +0.003 C 
ATOM      5  C   UNL     1      -6.339  -8.086   9.364  0.00  0.00    +0.001 C 
ATOM      6  C   UNL     1      -5.842  -8.674   9.659  0.00  0.00    +0.007 C 
ATOM      7  C   UNL     1      -5.549  -7.915   9.525  0.00  0.00    +0.000 C 
ATOM      8  C   UNL     1      -5.051  -8.503   9.820  0.00  0.00    +0.034 C 
ATOM      9  C   UNL     1      -4.553  -9.090  10.115  0.00  0.00    +0.023 A 
ATOM     10  C   UNL     1      -4.847  -9.851  10.250  0.00  0.00    +0.063 A 
ATOM     11  N   UNL     1      -4.229 -10.313  10.542  0.00  0.00    -0.227 NA
ATOM     12  C   UNL     1      -3.554  -9.841  10.588  0.00  0.00    +0.185 A 
ATOM     13  N   UNL     1      -2.810 -10.081  10.851  0.00  0.00    -0.154 NA
ATOM     14  C   UNL     1      -2.185  -9.544  10.866  0.00  0.00    +0.247 C 
ATOM     15  O   UNL     1      -2.303  -8.766  10.618  0.00  0.00    -0.273 OA
ATOM     21  S   UNL     1      -3.755  -9.085  10.324  0.00  0.00    -0.054 S 
ATOM     22  C   UNL     1      -5.637 -10.022  10.089  0.00  0.00    +0.043 C 
ATOM     23  C   UNL     1      -5.930 -10.781  10.224  0.00  0.00    +0.006 C 
ATOM     24  C   UNL     1      -6.135  -9.434   9.794  0.00  0.00    +0.036 C 
ATOM     25  C   UNL     1      -6.925  -9.605   9.633  0.00  0.00    +0.153 C 
ATOM     26  O   UNL     1      -7.218 -10.365   9.768  0.00  0.00    -0.223 OA
ENDROOT
BRANCH   3   2
ATOM      1  C   UNL     1      -8.411  -9.679   8.543  0.00  0.00    +0.010 C 
ATOM      2  C   UNL     1      -8.214  -9.189   9.178  0.00  0.00    +0.079 C 
BRANCH   2  27
ATOM     27  C   UNL     1      -8.809  -8.869   9.651  0.00  0.00    +0.225 C 
ATOM     28  O   UNL     1      -8.767  -8.943  10.473  0.00  0.00    -0.275 OA
ATOM     29  N   UNL     1      -9.447  -8.475   9.304  0.00  0.00    -0.278 N 
ATOM     30  C   UNL     1     -10.041  -8.156   9.778  0.00  0.00    +0.105 C 
ATOM     31  C   UNL     1     -10.678  -7.763   9.431  0.00  0.00    +0.079 C 
ATOM     32  S   UNL     1     -10.719  -7.689   8.611  0.00  0.00    -0.137 S 
ATOM     33  C   UNL     1     -10.125  -8.008   8.138  0.00  0.00    +0.079 C 
ATOM     34  C   UNL     1      -9.488  -8.402   8.484  0.00  0.00    +0.105 C 
ENDBRANCH   2  27
ENDBRANCH   3   2
BRANCH  14  16
ATOM     16  C   UNL     1      -1.441  -9.784  11.129  0.00  0.00    +0.087 C 
BRANCH  16  17
ATOM     17  C   UNL     1      -0.941  -9.244  11.503  0.00  0.00    +0.009 C 
ATOM     18  C   UNL     1      -0.442  -8.705  11.877  0.00  0.00    +0.000 C 
ATOM     19  C   UNL     1      -1.196  -9.519  12.238  0.00  0.00    +0.000 C 
ATOM     20  C   UNL     1      -0.687  -8.971  10.768  0.00  0.00    +0.000 C 
ENDBRANCH  16  17
ENDBRANCH  14  16
TORSDOF 4
ENDMDL
