MODEL 1
REMARK VINA RESULT:      -9.6      0.000      0.000
REMARK  Name = 
REMARK  9 active torsions:
REMARK  status: ('A' for Active; 'I' for Inactive)
REMARK    1  A    between atoms: C_2  and  N_3
REMARK    2  A    between atoms: C_2  and  O_12
REMARK    3  A    between atoms: N_3  and  C_4
REMARK    4  A    between atoms: C_8  and  C_10
REMARK    5  A    between atoms: O_12  and  C_13
REMARK    6  A    between atoms: C_17  and  N_21
REMARK    7  A    between atoms: C_25  and  S_26
REMARK    8  A    between atoms: S_26  and  C_27
REMARK    9  A    between atoms: C_27  and  C_28
REMARK                            x       y       z     vdW  Elec       q    Type
REMARK                         _______ _______ _______ _____ _____    ______ ____
ROOT
ATOM     13  C   UNL     1      -1.021   0.765  24.626  0.00  0.00    +0.227 C 
ATOM     14  C   UNL     1      -0.711   0.979  25.360  0.00  0.00    +0.188 C 
ATOM     15  O   UNL     1      -0.833   1.788  25.461  0.00  0.00    -0.348 OA
ATOM     16  C   UNL     1      -1.218   2.074  24.791  0.00  0.00    +0.171 C 
ATOM     17  C   UNL     1      -1.532   2.751  24.439  0.00  0.00    +0.168 C 
ATOM     18  C   UNL     1      -1.842   2.537  23.705  0.00  0.00    +0.169 C 
ATOM     19  O   UNL     1      -1.720   1.728  23.603  0.00  0.00    -0.348 OA
ATOM     20  C   UNL     1      -1.334   1.442  24.275  0.00  0.00    +0.187 C 
ENDROOT
BRANCH  17  21
ATOM     21  N   UNL     1      -1.535   3.510  24.764  0.00  0.00    -0.205 N 
ATOM     22  N   UNL     1      -0.881   4.006  24.845  0.00  0.00    -0.042 NA
ATOM     23  N   UNL     1      -1.135   4.707  25.196  0.00  0.00    -0.022 NA
ATOM     24  N   UNL     1      -1.946   4.645  25.333  0.00  0.00    -0.101 NA
ATOM     25  C   UNL     1      -2.193   3.905  25.066  0.00  0.00    +0.211 A 
BRANCH  25  26
ATOM     26  S   UNL     1      -2.964   3.612  25.095  0.00  0.00    -0.066 S 
BRANCH  26  27
ATOM     27  C   UNL     1      -3.534   3.994  25.554  0.00  0.00    +0.129 C 
BRANCH  27  28
ATOM     28  C   UNL     1      -4.293   3.678  25.616  0.00  0.00    +0.134 A 
ATOM     29  C   UNL     1      -4.990   4.035  25.354  0.00  0.00    +0.037 A 
ATOM     30  C   UNL     1      -5.616   3.526  25.527  0.00  0.00    +0.043 A 
ATOM     31  C   UNL     1      -5.308   2.856  25.894  0.00  0.00    +0.179 A 
ATOM     32  O   UNL     1      -4.490   2.949  25.949  0.00  0.00    -0.454 OA
ENDBRANCH  27  28
ENDBRANCH  26  27
ENDBRANCH  25  26
ENDBRANCH  17  21
BRANCH  13  12
ATOM     12  O   UNL     1      -1.018   0.006  24.300  0.00  0.00    -0.456 OA
BRANCH  12   2
ATOM      1  S   UNL     1      -0.291  -1.044  24.941  0.00  0.00    +0.008 S 
ATOM      2  C   UNL     1      -1.004  -0.655  24.794  0.00  0.00    +0.253 C 
BRANCH   2   3
ATOM      3  N   UNL     1      -1.701  -0.926  25.140  0.00  0.00    -0.173 NA
BRANCH   3   4
ATOM      4  C   UNL     1      -2.084  -1.590  24.834  0.00  0.00    +0.075 A 
ATOM      5  C   UNL     1      -1.685  -2.310  24.784  0.00  0.00    +0.017 A 
ATOM      6  C   UNL     1      -2.067  -2.974  24.478  0.00  0.00    +0.002 A 
ATOM      7  C   UNL     1      -2.849  -2.917  24.221  0.00  0.00    +0.010 A 
ATOM      8  C   UNL     1      -3.249  -2.197  24.272  0.00  0.00    +0.070 A 
ATOM      9  C   UNL     1      -2.866  -1.533  24.578  0.00  0.00    +0.027 A 
BRANCH   8  10
ATOM     10  C   UNL     1      -4.031  -2.140  24.015  0.00  0.00    +0.100 C 
ATOM     11  N   UNL     1      -4.813  -2.084  23.759  0.00  0.00    -0.191 NA
ENDBRANCH   8  10
ENDBRANCH   3   4
ENDBRANCH   2   3
ENDBRANCH  12   2
ENDBRANCH  13  12
TORSDOF 9
ENDMDL
MODEL 2
REMARK VINA RESULT:      -9.4      2.033      3.057
REMARK  Name = 
REMARK  9 active torsions:
REMARK  status: ('A' for Active; 'I' for Inactive)
REMARK    1  A    between atoms: C_2  and  N_3
REMARK    2  A    between atoms: C_2  and  O_12
REMARK    3  A    between atoms: N_3  and  C_4
REMARK    4  A    between atoms: C_8  and  C_10
REMARK    5  A    between atoms: O_12  and  C_13
REMARK    6  A    between atoms: C_17  and  N_21
REMARK    7  A    between atoms: C_25  and  S_26
REMARK    8  A    between atoms: S_26  and  C_27
REMARK    9  A    between atoms: C_27  and  C_28
REMARK                            x       y       z     vdW  Elec       q    Type
REMARK                         _______ _______ _______ _____ _____    ______ ____
ROOT
ATOM     13  C   UNL     1      -4.147   0.261  24.430  0.00  0.00    +0.227 C 
ATOM     14  C   UNL     1      -4.567   0.246  25.140  0.00  0.00    +0.188 C 
ATOM     15  O   UNL     1      -4.730   1.026  25.355  0.00  0.00    -0.348 OA
ATOM     16  C   UNL     1      -4.412   1.522  24.779  0.00  0.00    +0.171 C 
ATOM     17  C   UNL     1      -4.315   2.310  24.555  0.00  0.00    +0.168 C 
ATOM     18  C   UNL     1      -3.895   2.324  23.845  0.00  0.00    +0.169 C 
ATOM     19  O   UNL     1      -3.732   1.545  23.630  0.00  0.00    -0.348 OA
ATOM     20  C   UNL     1      -4.051   1.049  24.207  0.00  0.00    +0.187 C 
ENDROOT
BRANCH  17  21
ATOM     21  N   UNL     1      -4.590   2.968  24.969  0.00  0.00    -0.205 N 
ATOM     22  N   UNL     1      -5.377   3.124  25.165  0.00  0.00    -0.042 NA
ATOM     23  N   UNL     1      -5.400   3.839  25.577  0.00  0.00    -0.022 NA
ATOM     24  N   UNL     1      -4.628   4.124  25.635  0.00  0.00    -0.101 NA
ATOM     25  C   UNL     1      -4.128   3.586  25.260  0.00  0.00    +0.211 A 
BRANCH  25  26
ATOM     26  S   UNL     1      -3.309   3.655  25.187  0.00  0.00    -0.066 S 
BRANCH  26  27
ATOM     27  C   UNL     1      -2.908   4.254  25.590  0.00  0.00    +0.129 C 
BRANCH  27  28
ATOM     28  C   UNL     1      -2.110   4.393  25.432  0.00  0.00    +0.134 A 
ATOM     29  C   UNL     1      -1.790   5.092  25.131  0.00  0.00    +0.037 A 
ATOM     30  C   UNL     1      -0.975   4.988  25.061  0.00  0.00    +0.043 A 
ATOM     31  C   UNL     1      -0.790   4.228  25.320  0.00  0.00    +0.179 A 
ATOM     32  O   UNL     1      -1.492   3.859  25.549  0.00  0.00    -0.454 OA
ENDBRANCH  27  28
ENDBRANCH  26  27
ENDBRANCH  25  26
ENDBRANCH  17  21
BRANCH  13  12
ATOM     12  O   UNL     1      -3.872  -0.398  24.016  0.00  0.00    -0.456 OA
BRANCH  12   2
ATOM      1  S   UNL     1      -4.397  -1.716  24.185  0.00  0.00    +0.008 S 
ATOM      2  C   UNL     1      -3.845  -1.136  24.385  0.00  0.00    +0.253 C 
BRANCH   2   3
ATOM      3  N   UNL     1      -3.268  -1.293  24.952  0.00  0.00    -0.173 NA
BRANCH   3   4
ATOM      4  C   UNL     1      -2.575  -1.686  24.738  0.00  0.00    +0.075 A 
ATOM      5  C   UNL     1      -2.588  -2.499  24.597  0.00  0.00    +0.017 A 
ATOM      6  C   UNL     1      -1.895  -2.892  24.384  0.00  0.00    +0.002 A 
ATOM      7  C   UNL     1      -1.188  -2.473  24.310  0.00  0.00    +0.010 A 
ATOM      8  C   UNL     1      -1.175  -1.660  24.451  0.00  0.00    +0.070 A 
ATOM      9  C   UNL     1      -1.868  -1.267  24.665  0.00  0.00    +0.027 A 
BRANCH   8  10
ATOM     10  C   UNL     1      -0.469  -1.240  24.378  0.00  0.00    +0.100 C 
ATOM     11  N   UNL     1       0.238  -0.821  24.305  0.00  0.00    -0.191 NA
ENDBRANCH   8  10
ENDBRANCH   3   4
ENDBRANCH   2   3
ENDBRANCH  12   2
ENDBRANCH  13  12
TORSDOF 9
ENDMDL
MODEL 3
REMARK VINA RESULT:      -8.9      1.471      4.860
REMARK  Name = 
REMARK  9 active torsions:
REMARK  status: ('A' for Active; 'I' for Inactive)
REMARK    1  A    between atoms: C_2  and  N_3
REMARK    2  A    between atoms: C_2  and  O_12
REMARK    3  A    between atoms: N_3  and  C_4
REMARK    4  A    between atoms: C_8  and  C_10
REMARK    5  A    between atoms: O_12  and  C_13
REMARK    6  A    between atoms: C_17  and  N_21
REMARK    7  A    between atoms: C_25  and  S_26
REMARK    8  A    between atoms: S_26  and  C_27
REMARK    9  A    between atoms: C_27  and  C_28
REMARK                            x       y       z     vdW  Elec       q    Type
REMARK                         _______ _______ _______ _____ _____    ______ ____
ROOT
ATOM     13  C   UNL     1      -1.761   2.625  24.653  0.00  0.00    +0.227 C 
ATOM     14  C   UNL     1      -1.165   2.537  25.216  0.00  0.00    +0.188 C 
ATOM     15  O   UNL     1      -0.743   1.852  25.036  0.00  0.00    -0.348 OA
ATOM     16  C   UNL     1      -1.077   1.517  24.361  0.00  0.00    +0.171 C 
ATOM     17  C   UNL     1      -1.023   0.886  23.831  0.00  0.00    +0.168 C 
ATOM     18  C   UNL     1      -1.619   0.974  23.267  0.00  0.00    +0.169 C 
ATOM     19  O   UNL     1      -2.041   1.659  23.448  0.00  0.00    -0.348 OA
ATOM     20  C   UNL     1      -1.706   1.995  24.124  0.00  0.00    +0.187 C 
ENDROOT
BRANCH  17  21
ATOM     21  N   UNL     1      -0.470   0.275  23.860  0.00  0.00    -0.205 N 
ATOM     22  N   UNL     1       0.325   0.328  23.644  0.00  0.00    -0.042 NA
ATOM     23  N   UNL     1       0.671  -0.411  23.761  0.00  0.00    -0.022 NA
ATOM     24  N   UNL     1       0.092  -0.921  24.050  0.00  0.00    -0.101 NA
ATOM     25  C   UNL     1      -0.614  -0.497  24.111  0.00  0.00    +0.211 A 
BRANCH  25  26
ATOM     26  S   UNL     1      -1.336  -0.794  24.378  0.00  0.00    -0.066 S 
BRANCH  26  27
ATOM     27  C   UNL     1      -1.402  -1.589  24.592  0.00  0.00    +0.129 C 
BRANCH  27  28
ATOM     28  C   UNL     1      -2.141  -1.906  24.775  0.00  0.00    +0.134 A 
ATOM     29  C   UNL     1      -2.507  -2.538  24.389  0.00  0.00    +0.037 A 
ATOM     30  C   UNL     1      -3.236  -2.669  24.751  0.00  0.00    +0.043 A 
ATOM     31  C   UNL     1      -3.322  -2.120  25.360  0.00  0.00    +0.179 A 
ATOM     32  O   UNL     1      -2.645  -1.648  25.375  0.00  0.00    -0.454 OA
ENDBRANCH  27  28
ENDBRANCH  26  27
ENDBRANCH  25  26
ENDBRANCH  17  21
BRANCH  13  12
ATOM     12  O   UNL     1      -2.314   3.236  24.623  0.00  0.00    -0.456 OA
BRANCH  12   2
ATOM      1  S   UNL     1      -2.249   4.314  25.559  0.00  0.00    +0.008 S 
ATOM      2  C   UNL     1      -2.573   3.593  25.321  0.00  0.00    +0.253 C 
BRANCH   2   3
ATOM      3  N   UNL     1      -3.154   3.230  25.779  0.00  0.00    -0.173 NA
BRANCH   3   4
ATOM      4  C   UNL     1      -3.951   3.396  25.643  0.00  0.00    +0.075 A 
ATOM      5  C   UNL     1      -4.220   4.175  25.663  0.00  0.00    +0.017 A 
ATOM      6  C   UNL     1      -5.017   4.340  25.527  0.00  0.00    +0.002 A 
ATOM      7  C   UNL     1      -5.544   3.726  25.371  0.00  0.00    +0.010 A 
ATOM      8  C   UNL     1      -5.275   2.946  25.351  0.00  0.00    +0.070 A 
ATOM      9  C   UNL     1      -4.479   2.781  25.487  0.00  0.00    +0.027 A 
BRANCH   8  10
ATOM     10  C   UNL     1      -5.803   2.331  25.194  0.00  0.00    +0.100 C 
ATOM     11  N   UNL     1      -6.331   1.717  25.038  0.00  0.00    -0.191 NA
ENDBRANCH   8  10
ENDBRANCH   3   4
ENDBRANCH   2   3
ENDBRANCH  12   2
ENDBRANCH  13  12
TORSDOF 9
ENDMDL
MODEL 4
REMARK VINA RESULT:      -8.7      1.527      5.225
REMARK  Name = 
REMARK  9 active torsions:
REMARK  status: ('A' for Active; 'I' for Inactive)
REMARK    1  A    between atoms: C_2  and  N_3
REMARK    2  A    between atoms: C_2  and  O_12
REMARK    3  A    between atoms: N_3  and  C_4
REMARK    4  A    between atoms: C_8  and  C_10
REMARK    5  A    between atoms: O_12  and  C_13
REMARK    6  A    between atoms: C_17  and  N_21
REMARK    7  A    between atoms: C_25  and  S_26
REMARK    8  A    between atoms: S_26  and  C_27
REMARK    9  A    between atoms: C_27  and  C_28
REMARK                            x       y       z     vdW  Elec       q    Type
REMARK                         _______ _______ _______ _____ _____    ______ ____
ROOT
ATOM     13  C   UNL     1      -0.666   1.335  25.016  0.00  0.00    +0.227 C 
ATOM     14  C   UNL     1      -0.237   1.074  24.361  0.00  0.00    +0.188 C 
ATOM     15  O   UNL     1      -0.229   0.250  24.375  0.00  0.00    -0.348 OA
ATOM     16  C   UNL     1      -0.652   0.001  25.037  0.00  0.00    +0.171 C 
ATOM     17  C   UNL     1      -0.909  -0.662  25.456  0.00  0.00    +0.168 C 
ATOM     18  C   UNL     1      -1.338  -0.401  26.111  0.00  0.00    +0.169 C 
ATOM     19  O   UNL     1      -1.346   0.424  26.097  0.00  0.00    -0.348 OA
ATOM     20  C   UNL     1      -0.922   0.672  25.433  0.00  0.00    +0.187 C 
ENDROOT
BRANCH  17  21
ATOM     21  N   UNL     1      -0.763  -1.449  25.255  0.00  0.00    -0.205 N 
ATOM     22  N   UNL     1      -0.040  -1.842  25.327  0.00  0.00    -0.042 NA
ATOM     23  N   UNL     1      -0.144  -2.616  25.063  0.00  0.00    -0.022 NA
ATOM     24  N   UNL     1      -0.930  -2.702  24.828  0.00  0.00    -0.101 NA
ATOM     25  C   UNL     1      -1.312  -1.981  24.947  0.00  0.00    +0.211 A 
BRANCH  25  26
ATOM     26  S   UNL     1      -2.105  -1.820  24.785  0.00  0.00    -0.066 S 
BRANCH  26  27
ATOM     27  C   UNL     1      -2.586  -2.403  24.453  0.00  0.00    +0.129 C 
BRANCH  27  28
ATOM     28  C   UNL     1      -3.349  -2.216  24.204  0.00  0.00    +0.134 A 
ATOM     29  C   UNL     1      -3.964  -2.752  24.078  0.00  0.00    +0.037 A 
ATOM     30  C   UNL     1      -4.626  -2.327  23.834  0.00  0.00    +0.043 A 
ATOM     31  C   UNL     1      -4.423  -1.529  23.808  0.00  0.00    +0.179 A 
ATOM     32  O   UNL     1      -3.633  -1.460  24.037  0.00  0.00    -0.454 OA
ENDBRANCH  27  28
ENDBRANCH  26  27
ENDBRANCH  25  26
ENDBRANCH  17  21
BRANCH  13  12
ATOM     12  O   UNL     1      -0.813   2.122  25.217  0.00  0.00    -0.456 OA
BRANCH  12   2
ATOM      1  S   UNL     1      -0.166   3.006  24.299  0.00  0.00    +0.008 S 
ATOM      2  C   UNL     1      -0.858   2.698  24.627  0.00  0.00    +0.253 C 
BRANCH   2   3
ATOM      3  N   UNL     1      -1.593   2.964  24.367  0.00  0.00    -0.173 NA
BRANCH   3   4
ATOM      4  C   UNL     1      -2.021   3.505  24.819  0.00  0.00    +0.075 A 
ATOM      5  C   UNL     1      -1.653   4.184  25.108  0.00  0.00    +0.017 A 
ATOM      6  C   UNL     1      -2.081   4.725  25.560  0.00  0.00    +0.002 A 
ATOM      7  C   UNL     1      -2.878   4.587  25.725  0.00  0.00    +0.010 A 
ATOM      8  C   UNL     1      -3.246   3.907  25.436  0.00  0.00    +0.070 A 
ATOM      9  C   UNL     1      -2.817   3.366  24.984  0.00  0.00    +0.027 A 
BRANCH   8  10
ATOM     10  C   UNL     1      -4.042   3.768  25.601  0.00  0.00    +0.100 C 
ATOM     11  N   UNL     1      -4.839   3.629  25.765  0.00  0.00    -0.191 NA
ENDBRANCH   8  10
ENDBRANCH   3   4
ENDBRANCH   2   3
ENDBRANCH  12   2
ENDBRANCH  13  12
TORSDOF 9
ENDMDL
MODEL 5
REMARK VINA RESULT:      -8.6      1.636      5.812
REMARK  Name = 
REMARK  9 active torsions:
REMARK  status: ('A' for Active; 'I' for Inactive)
REMARK    1  A    between atoms: C_2  and  N_3
REMARK    2  A    between atoms: C_2  and  O_12
REMARK    3  A    between atoms: N_3  and  C_4
REMARK    4  A    between atoms: C_8  and  C_10
REMARK    5  A    between atoms: O_12  and  C_13
REMARK    6  A    between atoms: C_17  and  N_21
REMARK    7  A    between atoms: C_25  and  S_26
REMARK    8  A    between atoms: S_26  and  C_27
REMARK    9  A    between atoms: C_27  and  C_28
REMARK                            x       y       z     vdW  Elec       q    Type
REMARK                         _______ _______ _______ _____ _____    ______ ____
ROOT
ATOM     13  C   UNL     1      -4.188   1.788  24.693  0.00  0.00    +0.227 C 
ATOM     14  C   UNL     1      -4.652   1.417  25.265  0.00  0.00    +0.188 C 
ATOM     15  O   UNL     1      -4.630   0.605  25.122  0.00  0.00    -0.348 OA
ATOM     16  C   UNL     1      -4.153   0.474  24.463  0.00  0.00    +0.171 C 
ATOM     17  C   UNL     1      -3.843  -0.108  23.967  0.00  0.00    +0.168 C 
ATOM     18  C   UNL     1      -3.380   0.263  23.395  0.00  0.00    +0.169 C 
ATOM     19  O   UNL     1      -3.402   1.075  23.537  0.00  0.00    -0.348 OA
ATOM     20  C   UNL     1      -3.880   1.206  24.197  0.00  0.00    +0.187 C 
ENDROOT
BRANCH  17  21
ATOM     21  N   UNL     1      -3.976  -0.920  24.032  0.00  0.00    -0.205 N 
ATOM     22  N   UNL     1      -4.687  -1.310  23.880  0.00  0.00    -0.042 NA
ATOM     23  N   UNL     1      -4.570  -2.115  24.015  0.00  0.00    -0.022 NA
ATOM     24  N   UNL     1      -3.788  -2.223  24.250  0.00  0.00    -0.101 NA
ATOM     25  C   UNL     1      -3.420  -1.485  24.261  0.00  0.00    +0.211 A 
BRANCH  25  26
ATOM     26  S   UNL     1      -2.634  -1.337  24.464  0.00  0.00    -0.066 S 
BRANCH  26  27
ATOM     27  C   UNL     1      -2.122  -1.967  24.619  0.00  0.00    +0.129 C 
BRANCH  27  28
ATOM     28  C   UNL     1      -1.327  -1.821  24.783  0.00  0.00    +0.134 A 
ATOM     29  C   UNL     1      -0.948  -1.952  25.504  0.00  0.00    +0.037 A 
ATOM     30  C   UNL     1      -0.158  -1.730  25.420  0.00  0.00    +0.043 A 
ATOM     31  C   UNL     1      -0.048  -1.462  24.648  0.00  0.00    +0.179 A 
ATOM     32  O   UNL     1      -0.771  -1.518  24.254  0.00  0.00    -0.454 OA
ENDBRANCH  27  28
ENDBRANCH  26  27
ENDBRANCH  25  26
ENDBRANCH  17  21
BRANCH  13  12
ATOM     12  O   UNL     1      -4.056   2.600  24.627  0.00  0.00    -0.456 OA
BRANCH  12   2
ATOM      1  S   UNL     1      -4.667   3.486  25.568  0.00  0.00    +0.008 S 
ATOM      2  C   UNL     1      -4.006   3.066  25.306  0.00  0.00    +0.253 C 
BRANCH   2   3
ATOM      3  N   UNL     1      -3.296   3.113  25.724  0.00  0.00    -0.173 NA
BRANCH   3   4
ATOM      4  C   UNL     1      -2.764   3.724  25.568  0.00  0.00    +0.075 A 
ATOM      5  C   UNL     1      -2.963   4.502  25.756  0.00  0.00    +0.017 A 
ATOM      6  C   UNL     1      -2.431   5.113  25.600  0.00  0.00    +0.002 A 
ATOM      7  C   UNL     1      -1.700   4.946  25.256  0.00  0.00    +0.010 A 
ATOM      8  C   UNL     1      -1.501   4.167  25.067  0.00  0.00    +0.070 A 
ATOM      9  C   UNL     1      -2.034   3.557  25.223  0.00  0.00    +0.027 A 
BRANCH   8  10
ATOM     10  C   UNL     1      -0.771   4.000  24.723  0.00  0.00    +0.100 C 
ATOM     11  N   UNL     1      -0.040   3.833  24.378  0.00  0.00    -0.191 NA
ENDBRANCH   8  10
ENDBRANCH   3   4
ENDBRANCH   2   3
ENDBRANCH  12   2
ENDBRANCH  13  12
TORSDOF 9
ENDMDL
MODEL 6
REMARK VINA RESULT:      -8.2      1.810      5.770
REMARK  Name = 
REMARK  9 active torsions:
REMARK  status: ('A' for Active; 'I' for Inactive)
REMARK    1  A    between atoms: C_2  and  N_3
REMARK    2  A    between atoms: C_2  and  O_12
REMARK    3  A    between atoms: N_3  and  C_4
REMARK    4  A    between atoms: C_8  and  C_10
REMARK    5  A    between atoms: O_12  and  C_13
REMARK    6  A    between atoms: C_17  and  N_21
REMARK    7  A    between atoms: C_25  and  S_26
REMARK    8  A    between atoms: S_26  and  C_27
REMARK    9  A    between atoms: C_27  and  C_28
REMARK                            x       y       z     vdW  Elec       q    Type
REMARK                         _______ _______ _______ _____ _____    ______ ____
ROOT
ATOM     13  C   UNL     1      -4.486   0.211  25.022  0.00  0.00    +0.227 C 
ATOM     14  C   UNL     1      -4.560  -0.014  24.233  0.00  0.00    +0.188 C 
ATOM     15  O   UNL     1      -4.063  -0.660  24.104  0.00  0.00    -0.348 OA
ATOM     16  C   UNL     1      -3.681  -0.833  24.814  0.00  0.00    +0.171 C 
ATOM     17  C   UNL     1      -3.138  -1.338  25.174  0.00  0.00    +0.168 C 
ATOM     18  C   UNL     1      -3.063  -1.113  25.964  0.00  0.00    +0.169 C 
ATOM     19  O   UNL     1      -3.560  -0.467  26.092  0.00  0.00    -0.348 OA
ATOM     20  C   UNL     1      -3.943  -0.294  25.382  0.00  0.00    +0.187 C 
ENDROOT
BRANCH  17  21
ATOM     21  N   UNL     1      -2.739  -1.961  24.808  0.00  0.00    -0.205 N 
ATOM     22  N   UNL     1      -3.059  -2.698  24.618  0.00  0.00    -0.042 NA
ATOM     23  N   UNL     1      -2.468  -3.148  24.260  0.00  0.00    -0.022 NA
ATOM     24  N   UNL     1      -1.782  -2.690  24.229  0.00  0.00    -0.101 NA
ATOM     25  C   UNL     1      -1.950  -1.957  24.568  0.00  0.00    +0.211 A 
BRANCH  25  26
ATOM     26  S   UNL     1      -1.421  -1.329  24.652  0.00  0.00    -0.066 S 
BRANCH  26  27
ATOM     27  C   UNL     1      -0.688  -1.353  24.271  0.00  0.00    +0.129 C 
BRANCH  27  28
ATOM     28  C   UNL     1      -0.287  -0.652  24.106  0.00  0.00    +0.134 A 
ATOM     29  C   UNL     1       0.191  -0.511  23.448  0.00  0.00    +0.037 A 
ATOM     30  C   UNL     1       0.480   0.260  23.504  0.00  0.00    +0.043 A 
ATOM     31  C   UNL     1       0.181   0.595  24.196  0.00  0.00    +0.179 A 
ATOM     32  O   UNL     1      -0.293   0.031  24.568  0.00  0.00    -0.454 OA
ENDBRANCH  27  28
ENDBRANCH  26  27
ENDBRANCH  25  26
ENDBRANCH  17  21
BRANCH  13  12
ATOM     12  O   UNL     1      -4.885   0.834  25.389  0.00  0.00    -0.456 OA
BRANCH  12   2
ATOM      1  S   UNL     1      -6.015   1.472  24.790  0.00  0.00    +0.008 S 
ATOM      2  C   UNL     1      -5.202   1.445  24.934  0.00  0.00    +0.253 C 
BRANCH   2   3
ATOM      3  N   UNL     1      -4.709   2.028  24.624  0.00  0.00    -0.173 NA
BRANCH   3   4
ATOM      4  C   UNL     1      -4.607   2.741  25.027  0.00  0.00    +0.075 A 
ATOM      5  C   UNL     1      -5.263   3.151  25.313  0.00  0.00    +0.017 A 
ATOM      6  C   UNL     1      -5.161   3.863  25.717  0.00  0.00    +0.002 A 
ATOM      7  C   UNL     1      -4.402   4.166  25.834  0.00  0.00    +0.010 A 
ATOM      8  C   UNL     1      -3.746   3.756  25.547  0.00  0.00    +0.070 A 
ATOM      9  C   UNL     1      -3.849   3.043  25.144  0.00  0.00    +0.027 A 
BRANCH   8  10
ATOM     10  C   UNL     1      -2.987   4.058  25.664  0.00  0.00    +0.100 C 
ATOM     11  N   UNL     1      -2.229   4.361  25.781  0.00  0.00    -0.191 NA
ENDBRANCH   8  10
ENDBRANCH   3   4
ENDBRANCH   2   3
ENDBRANCH  12   2
ENDBRANCH  13  12
TORSDOF 9
ENDMDL
MODEL 7
REMARK VINA RESULT:      -8.1      1.681      4.761
REMARK  Name = 
REMARK  9 active torsions:
REMARK  status: ('A' for Active; 'I' for Inactive)
REMARK    1  A    between atoms: C_2  and  N_3
REMARK    2  A    between atoms: C_2  and  O_12
REMARK    3  A    between atoms: N_3  and  C_4
REMARK    4  A    between atoms: C_8  and  C_10
REMARK    5  A    between atoms: O_12  and  C_13
REMARK    6  A    between atoms: C_17  and  N_21
REMARK    7  A    between atoms: C_25  and  S_26
REMARK    8  A    between atoms: S_26  and  C_27
REMARK    9  A    between atoms: C_27  and  C_28
REMARK                            x       y       z     vdW  Elec       q    Type
REMARK                         _______ _______ _______ _____ _____    ______ ____
ROOT
ATOM     13  C   UNL     1      -0.354   0.964  24.806  0.00  0.00    +0.227 C 
ATOM     14  C   UNL     1      -0.505   0.823  24.008  0.00  0.00    +0.188 C 
ATOM     15  O   UNL     1      -0.996   0.162  23.955  0.00  0.00    -0.348 OA
ATOM     16  C   UNL     1      -1.148  -0.105  24.719  0.00  0.00    +0.171 C 
ATOM     17  C   UNL     1      -1.544  -0.679  25.161  0.00  0.00    +0.168 C 
ATOM     18  C   UNL     1      -1.392  -0.538  25.959  0.00  0.00    +0.169 C 
ATOM     19  O   UNL     1      -0.902   0.123  26.012  0.00  0.00    -0.348 OA
ATOM     20  C   UNL     1      -0.750   0.391  25.246  0.00  0.00    +0.187 C 
ENDROOT
BRANCH  17  21
ATOM     21  N   UNL     1      -2.011  -1.287  24.856  0.00  0.00    -0.205 N 
ATOM     22  N   UNL     1      -1.735  -1.991  24.523  0.00  0.00    -0.042 NA
ATOM     23  N   UNL     1      -2.389  -2.437  24.292  0.00  0.00    -0.022 NA
ATOM     24  N   UNL     1      -3.069  -2.010  24.482  0.00  0.00    -0.101 NA
ATOM     25  C   UNL     1      -2.835  -1.299  24.830  0.00  0.00    +0.211 A 
BRANCH  25  26
ATOM     26  S   UNL     1      -3.338  -0.705  25.105  0.00  0.00    -0.066 S 
BRANCH  26  27
ATOM     27  C   UNL     1      -4.075  -0.592  24.751  0.00  0.00    +0.129 C 
BRANCH  27  28
ATOM     28  C   UNL     1      -4.488   0.111  24.874  0.00  0.00    +0.134 A 
ATOM     29  C   UNL     1      -4.617   0.703  24.313  0.00  0.00    +0.037 A 
ATOM     30  C   UNL     1      -5.053   1.303  24.673  0.00  0.00    +0.043 A 
ATOM     31  C   UNL     1      -5.193   1.084  25.455  0.00  0.00    +0.179 A 
ATOM     32  O   UNL     1      -4.844   0.347  25.580  0.00  0.00    -0.454 OA
ENDBRANCH  27  28
ENDBRANCH  26  27
ENDBRANCH  25  26
ENDBRANCH  17  21
BRANCH  13  12
ATOM     12  O   UNL     1       0.113   1.573  25.111  0.00  0.00    -0.456 OA
BRANCH  12   2
ATOM      1  S   UNL     1      -0.118   2.613  24.158  0.00  0.00    +0.008 S 
ATOM      2  C   UNL     1      -0.072   2.359  24.943  0.00  0.00    +0.253 C 
BRANCH   2   3
ATOM      3  N   UNL     1      -0.211   2.891  25.557  0.00  0.00    -0.173 NA
BRANCH   3   4
ATOM      4  C   UNL     1      -0.720   3.530  25.443  0.00  0.00    +0.075 A 
ATOM      5  C   UNL     1      -0.463   4.193  25.025  0.00  0.00    +0.017 A 
ATOM      6  C   UNL     1      -0.972   4.832  24.911  0.00  0.00    +0.002 A 
ATOM      7  C   UNL     1      -1.738   4.808  25.215  0.00  0.00    +0.010 A 
ATOM      8  C   UNL     1      -1.996   4.145  25.634  0.00  0.00    +0.070 A 
ATOM      9  C   UNL     1      -1.486   3.506  25.747  0.00  0.00    +0.027 A 
BRANCH   8  10
ATOM     10  C   UNL     1      -2.762   4.121  25.938  0.00  0.00    +0.100 C 
ATOM     11  N   UNL     1      -3.528   4.097  26.242  0.00  0.00    -0.191 NA
ENDBRANCH   8  10
ENDBRANCH   3   4
ENDBRANCH   2   3
ENDBRANCH  12   2
ENDBRANCH  13  12
TORSDOF 9
ENDMDL
