MODEL 1
REMARK VINA RESULT:     -11.1      0.000      0.000
REMARK  Name = 
REMARK  6 active torsions:
REMARK  status: ('A' for Active; 'I' for Inactive)
REMARK    1  A    between atoms: C_2  and  C_22
REMARK    2  A    between atoms: C_9  and  N_10
REMARK    3  A    between atoms: C_11  and  C_13
REMARK    4  A    between atoms: C_13  and  O_14
REMARK    5  A    between atoms: C_22  and  C_24
REMARK    6  A    between atoms: N_26  and  C_27
REMARK                            x       y       z     vdW  Elec       q    Type
REMARK                         _______ _______ _______ _____ _____    ______ ____
ROOT
ATOM      1  C   UNL     1      -4.032   2.735  24.422  0.00  0.00    +0.052 C 
ATOM      2  C   UNL     1      -4.649   2.745  24.969  0.00  0.00    -0.001 C 
ATOM      3  C   UNL     1      -4.975   2.035  25.235  0.00  0.00    -0.000 C 
ATOM      4  C   UNL     1      -4.684   1.316  24.956  0.00  0.00    -0.001 C 
ATOM      5  C   UNL     1      -5.301   1.326  25.503  0.00  0.00    -0.000 C 
ATOM      6  C   UNL     1      -5.009   0.606  25.223  0.00  0.00    +0.002 C 
ATOM      7  C   UNL     1      -4.718  -0.112  24.943  0.00  0.00    +0.022 C 
ATOM      8  C   UNL     1      -4.100  -0.122  24.397  0.00  0.00    +0.095 C 
ATOM     15  C   UNL     1      -3.774   0.586  24.129  0.00  0.00    +0.019 C 
ATOM     16  C   UNL     1      -3.157   0.576  23.583  0.00  0.00    +0.002 C 
ATOM     17  C   UNL     1      -4.066   1.306  24.409  0.00  0.00    +0.045 C 
ATOM     18  C   UNL     1      -3.740   2.015  24.142  0.00  0.00    +0.145 C 
ATOM     19  O   UNL     1      -3.123   2.005  23.596  0.00  0.00    -0.224 OA
ENDROOT
BRANCH   8   9
ATOM      9  N   UNL     1      -3.808  -0.841  24.117  0.00  0.00    -0.205 NA
ATOM     10  C   UNL     1      -3.618  -1.444  24.648  0.00  0.00    +0.272 C 
ATOM     11  O   UNL     1      -3.721  -1.327  25.458  0.00  0.00    -0.271 OA
BRANCH  10  12
ATOM     12  C   UNL     1      -3.326  -2.164  24.368  0.00  0.00    +0.229 C 
BRANCH  12  13
ATOM     13  O   UNL     1      -2.737  -2.560  24.788  0.00  0.00    -0.342 OA
ATOM     14  C   UNL     1      -2.141  -2.961  24.382  0.00  0.00    +0.175 C 
ENDBRANCH  12  13
ENDBRANCH  10  12
ENDBRANCH   8   9
BRANCH   1  20
ATOM     20  C   UNL     1      -3.705   3.443  24.155  0.00  0.00    +0.077 C 
ATOM     21  C   UNL     1      -3.896   3.729  23.405  0.00  0.00    +0.009 C 
BRANCH  20  22
ATOM     22  C   UNL     1      -3.187   3.867  24.639  0.00  0.00    +0.241 C 
ATOM     23  O   UNL     1      -3.462   4.209  25.337  0.00  0.00    -0.273 OA
ATOM     24  N   UNL     1      -2.396   3.948  24.423  0.00  0.00    -0.207 NA
BRANCH  24  25
ATOM     25  C   UNL     1      -1.878   4.372  24.906  0.00  0.00    +0.095 C 
ATOM     26  C   UNL     1      -1.170   4.417  25.329  0.00  0.00    +0.023 C 
ATOM     27  C   UNL     1      -1.689   5.059  25.321  0.00  0.00    +0.023 C 
ENDBRANCH  24  25
ENDBRANCH  20  22
ENDBRANCH   1  20
TORSDOF 6
ENDMDL
MODEL 2
REMARK VINA RESULT:     -10.7      0.859      4.730
REMARK  Name = 
REMARK  6 active torsions:
REMARK  status: ('A' for Active; 'I' for Inactive)
REMARK    1  A    between atoms: C_2  and  C_22
REMARK    2  A    between atoms: C_9  and  N_10
REMARK    3  A    between atoms: C_11  and  C_13
REMARK    4  A    between atoms: C_13  and  O_14
REMARK    5  A    between atoms: C_22  and  C_24
REMARK    6  A    between atoms: N_26  and  C_27
REMARK                            x       y       z     vdW  Elec       q    Type
REMARK                         _______ _______ _______ _____ _____    ______ ____
ROOT
ATOM      1  C   UNL     1      -4.007   0.290  24.259  0.00  0.00    +0.052 C 
ATOM      2  C   UNL     1      -4.682   0.329  24.731  0.00  0.00    -0.001 C 
ATOM      3  C   UNL     1      -4.907   1.047  25.070  0.00  0.00    -0.000 C 
ATOM      4  C   UNL     1      -4.458   1.725  24.937  0.00  0.00    -0.001 C 
ATOM      5  C   UNL     1      -5.133   1.764  25.409  0.00  0.00    -0.000 C 
ATOM      6  C   UNL     1      -4.683   2.443  25.276  0.00  0.00    +0.002 C 
ATOM      7  C   UNL     1      -4.234   3.122  25.143  0.00  0.00    +0.022 C 
ATOM      8  C   UNL     1      -3.558   3.083  24.670  0.00  0.00    +0.095 C 
ATOM     15  C   UNL     1      -3.333   2.366  24.331  0.00  0.00    +0.019 C 
ATOM     16  C   UNL     1      -2.658   2.327  23.859  0.00  0.00    +0.002 C 
ATOM     17  C   UNL     1      -3.783   1.687  24.465  0.00  0.00    +0.045 C 
ATOM     18  C   UNL     1      -3.557   0.969  24.125  0.00  0.00    +0.145 C 
ATOM     19  O   UNL     1      -2.882   0.931  23.654  0.00  0.00    -0.224 OA
ENDROOT
BRANCH   8   9
ATOM      9  N   UNL     1      -3.108   3.761  24.537  0.00  0.00    -0.205 NA
ATOM     10  C   UNL     1      -2.797   4.181  25.175  0.00  0.00    +0.272 C 
ATOM     11  O   UNL     1      -2.936   3.923  25.947  0.00  0.00    -0.271 OA
BRANCH  10  12
ATOM     12  C   UNL     1      -2.346   4.860  25.042  0.00  0.00    +0.229 C 
BRANCH  12  13
ATOM     13  O   UNL     1      -1.613   4.947  25.410  0.00  0.00    -0.342 OA
ATOM     14  C   UNL     1      -1.016   5.379  25.041  0.00  0.00    +0.175 C 
ENDBRANCH  12  13
ENDBRANCH  10  12
ENDBRANCH   8   9
BRANCH   1  20
ATOM     20  C   UNL     1      -3.781  -0.427  23.920  0.00  0.00    +0.077 C 
ATOM     21  C   UNL     1      -3.828  -0.530  23.103  0.00  0.00    +0.009 C 
BRANCH  20  22
ATOM     22  C   UNL     1      -3.508  -1.041  24.399  0.00  0.00    +0.241 C 
ATOM     23  O   UNL     1      -2.913  -0.899  24.953  0.00  0.00    -0.273 OA
ATOM     24  N   UNL     1      -3.830  -1.797  24.322  0.00  0.00    -0.207 NA
BRANCH  24  25
ATOM     25  C   UNL     1      -3.556  -2.411  24.801  0.00  0.00    +0.095 C 
ATOM     26  C   UNL     1      -3.384  -3.211  24.908  0.00  0.00    +0.023 C 
ATOM     27  C   UNL     1      -3.256  -2.675  25.522  0.00  0.00    +0.023 C 
ENDBRANCH  24  25
ENDBRANCH  20  22
ENDBRANCH   1  20
TORSDOF 6
ENDMDL
MODEL 3
REMARK VINA RESULT:     -10.4      2.563      3.805
REMARK  Name = 
REMARK  6 active torsions:
REMARK  status: ('A' for Active; 'I' for Inactive)
REMARK    1  A    between atoms: C_2  and  C_22
REMARK    2  A    between atoms: C_9  and  N_10
REMARK    3  A    between atoms: C_11  and  C_13
REMARK    4  A    between atoms: C_13  and  O_14
REMARK    5  A    between atoms: C_22  and  C_24
REMARK    6  A    between atoms: N_26  and  C_27
REMARK                            x       y       z     vdW  Elec       q    Type
REMARK                         _______ _______ _______ _____ _____    ______ ____
ROOT
ATOM      1  C   UNL     1      -2.775   3.226  24.909  0.00  0.00    +0.052 C 
ATOM      2  C   UNL     1      -2.395   3.569  25.556  0.00  0.00    -0.001 C 
ATOM      3  C   UNL     1      -1.637   3.320  25.768  0.00  0.00    -0.000 C 
ATOM      4  C   UNL     1      -1.259   2.730  25.334  0.00  0.00    -0.001 C 
ATOM      5  C   UNL     1      -0.879   3.073  25.980  0.00  0.00    -0.000 C 
ATOM      6  C   UNL     1      -0.502   2.481  25.545  0.00  0.00    +0.002 C 
ATOM      7  C   UNL     1      -0.124   1.891  25.111  0.00  0.00    +0.022 C 
ATOM      8  C   UNL     1      -0.505   1.548  24.464  0.00  0.00    +0.095 C 
ATOM     15  C   UNL     1      -1.262   1.795  24.252  0.00  0.00    +0.019 C 
ATOM     16  C   UNL     1      -1.642   1.453  23.606  0.00  0.00    +0.002 C 
ATOM     17  C   UNL     1      -1.640   2.387  24.687  0.00  0.00    +0.045 C 
ATOM     18  C   UNL     1      -2.397   2.634  24.474  0.00  0.00    +0.145 C 
ATOM     19  O   UNL     1      -2.777   2.292  23.828  0.00  0.00    -0.224 OA
ENDROOT
BRANCH   8   9
ATOM      9  N   UNL     1      -0.128   0.957  24.029  0.00  0.00    -0.205 NA
ATOM     10  C   UNL     1       0.669   1.037  23.829  0.00  0.00    +0.272 C 
ATOM     11  O   UNL     1       1.088   1.708  24.064  0.00  0.00    -0.271 OA
BRANCH  10  12
ATOM     12  C   UNL     1       1.047   0.446  23.393  0.00  0.00    +0.229 C 
BRANCH  12  13
ATOM     13  O   UNL     1       1.769   0.602  23.027  0.00  0.00    -0.342 OA
ATOM     14  C   UNL     1       2.121   0.028  22.551  0.00  0.00    +0.175 C 
ENDBRANCH  12  13
ENDBRANCH  10  12
ENDBRANCH   8   9
BRANCH   1  20
ATOM     20  C   UNL     1      -3.532   3.473  24.697  0.00  0.00    +0.077 C 
ATOM     21  C   UNL     1      -3.641   3.942  24.028  0.00  0.00    +0.009 C 
BRANCH  20  22
ATOM     22  C   UNL     1      -4.182   3.251  25.155  0.00  0.00    +0.241 C 
ATOM     23  O   UNL     1      -4.296   3.587  25.900  0.00  0.00    -0.273 OA
ATOM     24  N   UNL     1      -4.717   2.693  24.867  0.00  0.00    -0.207 NA
BRANCH  24  25
ATOM     25  C   UNL     1      -5.367   2.471  25.326  0.00  0.00    +0.095 C 
ATOM     26  C   UNL     1      -6.098   2.093  25.394  0.00  0.00    +0.023 C 
ATOM     27  C   UNL     1      -5.761   2.464  26.050  0.00  0.00    +0.023 C 
ENDBRANCH  24  25
ENDBRANCH  20  22
ENDBRANCH   1  20
TORSDOF 6
ENDMDL
MODEL 4
REMARK VINA RESULT:     -10.1      2.607      3.865
REMARK  Name = 
REMARK  6 active torsions:
REMARK  status: ('A' for Active; 'I' for Inactive)
REMARK    1  A    between atoms: C_2  and  C_22
REMARK    2  A    between atoms: C_9  and  N_10
REMARK    3  A    between atoms: C_11  and  C_13
REMARK    4  A    between atoms: C_13  and  O_14
REMARK    5  A    between atoms: C_22  and  C_24
REMARK    6  A    between atoms: N_26  and  C_27
REMARK                            x       y       z     vdW  Elec       q    Type
REMARK                         _______ _______ _______ _____ _____    ______ ____
ROOT
ATOM      1  C   UNL     1      -3.530   0.003  24.817  0.00  0.00    +0.052 C 
ATOM      2  C   UNL     1      -3.377  -0.492  25.459  0.00  0.00    -0.001 C 
ATOM      3  C   UNL     1      -2.598  -0.679  25.658  0.00  0.00    -0.000 C 
ATOM      4  C   UNL     1      -1.974  -0.371  25.217  0.00  0.00    -0.001 C 
ATOM      5  C   UNL     1      -1.820  -0.866  25.859  0.00  0.00    -0.000 C 
ATOM      6  C   UNL     1      -1.195  -0.557  25.417  0.00  0.00    +0.002 C 
ATOM      7  C   UNL     1      -0.571  -0.249  24.976  0.00  0.00    +0.022 C 
ATOM      8  C   UNL     1      -0.724   0.247  24.335  0.00  0.00    +0.095 C 
ATOM     15  C   UNL     1      -1.502   0.434  24.134  0.00  0.00    +0.019 C 
ATOM     16  C   UNL     1      -1.655   0.929  23.493  0.00  0.00    +0.002 C 
ATOM     17  C   UNL     1      -2.127   0.125  24.576  0.00  0.00    +0.045 C 
ATOM     18  C   UNL     1      -2.905   0.312  24.375  0.00  0.00    +0.145 C 
ATOM     19  O   UNL     1      -3.058   0.808  23.735  0.00  0.00    -0.224 OA
ENDROOT
BRANCH   8   9
ATOM      9  N   UNL     1      -0.100   0.556  23.893  0.00  0.00    -0.205 NA
ATOM     10  C   UNL     1       0.469   0.050  23.573  0.00  0.00    +0.272 C 
ATOM     11  O   UNL     1       0.412  -0.764  23.695  0.00  0.00    -0.271 OA
BRANCH  10  12
ATOM     12  C   UNL     1       1.094   0.359  23.131  0.00  0.00    +0.229 C 
BRANCH  12  13
ATOM     13  O   UNL     1       1.632  -0.150  22.767  0.00  0.00    -0.342 OA
ATOM     14  C   UNL     1       2.317   0.154  22.422  0.00  0.00    +0.175 C 
ENDBRANCH  12  13
ENDBRANCH  10  12
ENDBRANCH   8   9
BRANCH   1  20
ATOM     20  C   UNL     1      -4.308   0.191  24.617  0.00  0.00    +0.077 C 
ATOM     21  C   UNL     1      -4.662  -0.163  23.962  0.00  0.00    +0.009 C 
BRANCH  20  22
ATOM     22  C   UNL     1      -4.732   0.733  25.073  0.00  0.00    +0.241 C 
ATOM     23  O   UNL     1      -4.966   0.535  25.839  0.00  0.00    -0.273 OA
ATOM     24  N   UNL     1      -4.921   1.473  24.762  0.00  0.00    -0.207 NA
BRANCH  24  25
ATOM     25  C   UNL     1      -5.345   2.016  25.218  0.00  0.00    +0.095 C 
ATOM     26  C   UNL     1      -5.529   2.796  25.412  0.00  0.00    +0.023 C 
ATOM     27  C   UNL     1      -5.894   2.174  25.812  0.00  0.00    +0.023 C 
ENDBRANCH  24  25
ENDBRANCH  20  22
ENDBRANCH   1  20
TORSDOF 6
ENDMDL
MODEL 5
REMARK VINA RESULT:      -9.8      2.286      4.300
REMARK  Name = 
REMARK  6 active torsions:
REMARK  status: ('A' for Active; 'I' for Inactive)
REMARK    1  A    between atoms: C_2  and  C_22
REMARK    2  A    between atoms: C_9  and  N_10
REMARK    3  A    between atoms: C_11  and  C_13
REMARK    4  A    between atoms: C_13  and  O_14
REMARK    5  A    between atoms: C_22  and  C_24
REMARK    6  A    between atoms: N_26  and  C_27
REMARK                            x       y       z     vdW  Elec       q    Type
REMARK                         _______ _______ _______ _____ _____    ______ ____
ROOT
ATOM      1  C   UNL     1      -1.902  -0.510  24.940  0.00  0.00    +0.052 C 
ATOM      2  C   UNL     1      -2.345  -1.198  24.837  0.00  0.00    -0.001 C 
ATOM      3  C   UNL     1      -3.159  -1.149  24.709  0.00  0.00    -0.000 C 
ATOM      4  C   UNL     1      -3.529  -0.413  24.685  0.00  0.00    -0.001 C 
ATOM      5  C   UNL     1      -3.973  -1.101  24.582  0.00  0.00    -0.000 C 
ATOM      6  C   UNL     1      -4.343  -0.363  24.557  0.00  0.00    +0.002 C 
ATOM      7  C   UNL     1      -4.713   0.373  24.533  0.00  0.00    +0.022 C 
ATOM      8  C   UNL     1      -4.270   1.061  24.636  0.00  0.00    +0.095 C 
ATOM     15  C   UNL     1      -3.456   1.013  24.764  0.00  0.00    +0.019 C 
ATOM     16  C   UNL     1      -3.014   1.700  24.866  0.00  0.00    +0.002 C 
ATOM     17  C   UNL     1      -3.086   0.275  24.788  0.00  0.00    +0.045 C 
ATOM     18  C   UNL     1      -2.272   0.227  24.915  0.00  0.00    +0.145 C 
ATOM     19  O   UNL     1      -1.830   0.915  25.018  0.00  0.00    -0.224 OA
ENDROOT
BRANCH   8   9
ATOM      9  N   UNL     1      -4.640   1.798  24.612  0.00  0.00    -0.205 NA
ATOM     10  C   UNL     1      -5.269   1.960  25.121  0.00  0.00    +0.272 C 
ATOM     11  O   UNL     1      -5.527   1.386  25.654  0.00  0.00    -0.271 OA
BRANCH  10  12
ATOM     12  C   UNL     1      -5.639   2.698  25.097  0.00  0.00    +0.229 C 
BRANCH  12  13
ATOM     13  O   UNL     1      -5.698   3.152  25.784  0.00  0.00    -0.342 OA
ATOM     14  C   UNL     1      -5.809   3.967  25.730  0.00  0.00    +0.175 C 
ENDBRANCH  12  13
ENDBRANCH  10  12
ENDBRANCH   8   9
BRANCH   1  20
ATOM     20  C   UNL     1      -1.088  -0.558  25.067  0.00  0.00    +0.077 C 
ATOM     21  C   UNL     1      -0.785  -0.489  25.830  0.00  0.00    +0.009 C 
BRANCH  20  22
ATOM     22  C   UNL     1      -0.578  -0.676  24.429  0.00  0.00    +0.241 C 
ATOM     23  O   UNL     1      -0.555  -1.407  24.048  0.00  0.00    -0.273 OA
ATOM     24  N   UNL     1      -0.090  -0.061  24.173  0.00  0.00    -0.207 NA
BRANCH  24  25
ATOM     25  C   UNL     1       0.421  -0.179  23.535  0.00  0.00    +0.095 C 
ATOM     26  C   UNL     1       1.186  -0.207  23.229  0.00  0.00    +0.023 C 
ATOM     27  C   UNL     1       0.539  -0.354  22.738  0.00  0.00    +0.023 C 
ENDBRANCH  24  25
ENDBRANCH  20  22
ENDBRANCH   1  20
TORSDOF 6
ENDMDL
MODEL 6
REMARK VINA RESULT:      -9.6      1.937      5.409
REMARK  Name = 
REMARK  6 active torsions:
REMARK  status: ('A' for Active; 'I' for Inactive)
REMARK    1  A    between atoms: C_2  and  C_22
REMARK    2  A    between atoms: C_9  and  N_10
REMARK    3  A    between atoms: C_11  and  C_13
REMARK    4  A    between atoms: C_13  and  O_14
REMARK    5  A    between atoms: C_22  and  C_24
REMARK    6  A    between atoms: N_26  and  C_27
REMARK                            x       y       z     vdW  Elec       q    Type
REMARK                         _______ _______ _______ _____ _____    ______ ____
ROOT
ATOM      1  C   UNL     1      -2.163  -0.547  25.261  0.00  0.00    +0.052 C 
ATOM      2  C   UNL     1      -1.389  -0.805  25.141  0.00  0.00    -0.001 C 
ATOM      3  C   UNL     1      -0.809  -0.269  24.899  0.00  0.00    -0.000 C 
ATOM      4  C   UNL     1      -1.004   0.523  24.779  0.00  0.00    -0.001 C 
ATOM      5  C   UNL     1      -0.229   0.265  24.658  0.00  0.00    -0.000 C 
ATOM      6  C   UNL     1      -0.424   1.058  24.537  0.00  0.00    +0.002 C 
ATOM      7  C   UNL     1      -0.619   1.850  24.417  0.00  0.00    +0.022 C 
ATOM      8  C   UNL     1      -1.393   2.108  24.537  0.00  0.00    +0.095 C 
ATOM     15  C   UNL     1      -1.973   1.574  24.779  0.00  0.00    +0.019 C 
ATOM     16  C   UNL     1      -2.747   1.831  24.899  0.00  0.00    +0.002 C 
ATOM     17  C   UNL     1      -1.778   0.780  24.899  0.00  0.00    +0.045 C 
ATOM     18  C   UNL     1      -2.358   0.246  25.141  0.00  0.00    +0.145 C 
ATOM     19  O   UNL     1      -3.132   0.503  25.261  0.00  0.00    -0.224 OA
ENDROOT
BRANCH   8   9
ATOM      9  N   UNL     1      -1.588   2.900  24.417  0.00  0.00    -0.205 NA
ATOM     10  C   UNL     1      -1.136   3.494  24.770  0.00  0.00    +0.272 C 
ATOM     11  O   UNL     1      -0.490   3.295  25.242  0.00  0.00    -0.271 OA
BRANCH  10  12
ATOM     12  C   UNL     1      -1.331   4.288  24.649  0.00  0.00    +0.229 C 
BRANCH  12  13
ATOM     13  O   UNL     1      -0.966   4.874  25.100  0.00  0.00    -0.342 OA
ATOM     14  C   UNL     1      -1.178   5.665  24.996  0.00  0.00    +0.175 C 
ENDBRANCH  12  13
ENDBRANCH  10  12
ENDBRANCH   8   9
BRANCH   1  20
ATOM     20  C   UNL     1      -2.743  -1.082  25.503  0.00  0.00    +0.077 C 
ATOM     21  C   UNL     1      -3.071  -1.023  26.257  0.00  0.00    +0.009 C 
BRANCH  20  22
ATOM     22  C   UNL     1      -2.996  -1.676  24.988  0.00  0.00    +0.241 C 
ATOM     23  O   UNL     1      -2.484  -2.289  24.783  0.00  0.00    -0.273 OA
ATOM     24  N   UNL     1      -3.761  -1.656  24.680  0.00  0.00    -0.207 NA
BRANCH  24  25
ATOM     25  C   UNL     1      -4.013  -2.250  24.165  0.00  0.00    +0.095 C 
ATOM     26  C   UNL     1      -4.453  -2.487  23.508  0.00  0.00    +0.023 C 
ATOM     27  C   UNL     1      -4.012  -3.040  23.931  0.00  0.00    +0.023 C 
ENDBRANCH  24  25
ENDBRANCH  20  22
ENDBRANCH   1  20
TORSDOF 6
ENDMDL
MODEL 7
REMARK VINA RESULT:      -9.6      2.616      3.449
REMARK  Name = 
REMARK  6 active torsions:
REMARK  status: ('A' for Active; 'I' for Inactive)
REMARK    1  A    between atoms: C_2  and  C_22
REMARK    2  A    between atoms: C_9  and  N_10
REMARK    3  A    between atoms: C_11  and  C_13
REMARK    4  A    between atoms: C_13  and  O_14
REMARK    5  A    between atoms: C_22  and  C_24
REMARK    6  A    between atoms: N_26  and  C_27
REMARK                            x       y       z     vdW  Elec       q    Type
REMARK                         _______ _______ _______ _____ _____    ______ ____
ROOT
ATOM      1  C   UNL     1      -0.198   1.915  25.185  0.00  0.00    +0.052 C 
ATOM      2  C   UNL     1       0.227   1.909  24.478  0.00  0.00    -0.001 C 
ATOM      3  C   UNL     1       0.243   1.228  24.012  0.00  0.00    -0.000 C 
ATOM      4  C   UNL     1      -0.165   0.553  24.253  0.00  0.00    -0.001 C 
ATOM      5  C   UNL     1       0.260   0.548  23.546  0.00  0.00    -0.000 C 
ATOM      6  C   UNL     1      -0.149  -0.128  23.788  0.00  0.00    +0.002 C 
ATOM      7  C   UNL     1      -0.557  -0.802  24.029  0.00  0.00    +0.022 C 
ATOM      8  C   UNL     1      -0.982  -0.797  24.736  0.00  0.00    +0.095 C 
ATOM     15  C   UNL     1      -0.999  -0.116  25.202  0.00  0.00    +0.019 C 
ATOM     16  C   UNL     1      -1.423  -0.110  25.908  0.00  0.00    +0.002 C 
ATOM     17  C   UNL     1      -0.590   0.559  24.960  0.00  0.00    +0.045 C 
ATOM     18  C   UNL     1      -0.607   1.240  25.426  0.00  0.00    +0.145 C 
ATOM     19  O   UNL     1      -1.032   1.246  26.133  0.00  0.00    -0.224 OA
ENDROOT
BRANCH   8   9
ATOM      9  N   UNL     1      -1.390  -1.471  24.978  0.00  0.00    -0.205 NA
ATOM     10  C   UNL     1      -1.952  -1.814  24.479  0.00  0.00    +0.272 C 
ATOM     11  O   UNL     1      -2.104  -1.482  23.740  0.00  0.00    -0.271 OA
BRANCH  10  12
ATOM     12  C   UNL     1      -2.361  -2.489  24.721  0.00  0.00    +0.229 C 
BRANCH  12  13
ATOM     13  O   UNL     1      -3.060  -2.705  24.340  0.00  0.00    -0.342 OA
ATOM     14  C   UNL     1      -3.627  -3.150  24.742  0.00  0.00    +0.175 C 
ENDBRANCH  12  13
ENDBRANCH  10  12
ENDBRANCH   8   9
BRANCH   1  20
ATOM     20  C   UNL     1      -0.215   2.596  25.651  0.00  0.00    +0.077 C 
ATOM     21  C   UNL     1       0.140   2.595  26.394  0.00  0.00    +0.009 C 
BRANCH  20  22
ATOM     22  C   UNL     1      -0.589   3.277  25.372  0.00  0.00    +0.241 C 
ATOM     23  O   UNL     1      -0.267   3.693  24.736  0.00  0.00    -0.273 OA
ATOM     24  N   UNL     1      -1.284   3.541  25.729  0.00  0.00    -0.207 NA
BRANCH  24  25
ATOM     25  C   UNL     1      -1.657   4.223  25.450  0.00  0.00    +0.095 C 
ATOM     26  C   UNL     1      -2.348   4.637  25.273  0.00  0.00    +0.023 C 
ATOM     27  C   UNL     1      -1.613   4.987  25.145  0.00  0.00    +0.023 C 
ENDBRANCH  24  25
ENDBRANCH  20  22
ENDBRANCH   1  20
TORSDOF 6
ENDMDL
MODEL 8
REMARK VINA RESULT:      -9.3      2.013      4.962
REMARK  Name = 
REMARK  6 active torsions:
REMARK  status: ('A' for Active; 'I' for Inactive)
REMARK    1  A    between atoms: C_2  and  C_22
REMARK    2  A    between atoms: C_9  and  N_10
REMARK    3  A    between atoms: C_11  and  C_13
REMARK    4  A    between atoms: C_13  and  O_14
REMARK    5  A    between atoms: C_22  and  C_24
REMARK    6  A    between atoms: N_26  and  C_27
REMARK                            x       y       z     vdW  Elec       q    Type
REMARK                         _______ _______ _______ _____ _____    ______ ____
ROOT
ATOM      1  C   UNL     1      -0.761   1.021  24.690  0.00  0.00    +0.052 C 
ATOM      2  C   UNL     1      -0.275   1.352  25.269  0.00  0.00    -0.001 C 
ATOM      3  C   UNL     1      -0.501   2.051  25.645  0.00  0.00    -0.000 C 
ATOM      4  C   UNL     1      -1.211   2.418  25.444  0.00  0.00    -0.001 C 
ATOM      5  C   UNL     1      -0.725   2.749  26.023  0.00  0.00    -0.000 C 
ATOM      6  C   UNL     1      -1.436   3.117  25.820  0.00  0.00    +0.002 C 
ATOM      7  C   UNL     1      -2.146   3.484  25.619  0.00  0.00    +0.022 C 
ATOM      8  C   UNL     1      -2.632   3.152  25.040  0.00  0.00    +0.095 C 
ATOM     15  C   UNL     1      -2.408   2.454  24.663  0.00  0.00    +0.019 C 
ATOM     16  C   UNL     1      -2.893   2.123  24.085  0.00  0.00    +0.002 C 
ATOM     17  C   UNL     1      -1.696   2.087  24.865  0.00  0.00    +0.045 C 
ATOM     18  C   UNL     1      -1.472   1.388  24.488  0.00  0.00    +0.145 C 
ATOM     19  O   UNL     1      -1.957   1.057  23.910  0.00  0.00    -0.224 OA
ENDROOT
BRANCH   8   9
ATOM      9  N   UNL     1      -3.343   3.519  24.837  0.00  0.00    -0.205 NA
ATOM     10  C   UNL     1      -3.885   3.720  25.427  0.00  0.00    +0.272 C 
ATOM     11  O   UNL     1      -3.716   3.555  26.217  0.00  0.00    -0.271 OA
BRANCH  10  12
ATOM     12  C   UNL     1      -4.596   4.087  25.225  0.00  0.00    +0.229 C 
BRANCH  12  13
ATOM     13  O   UNL     1      -5.276   3.940  25.668  0.00  0.00    -0.342 OA
ATOM     14  C   UNL     1      -5.995   4.277  25.443  0.00  0.00    +0.175 C 
ENDBRANCH  12  13
ENDBRANCH  10  12
ENDBRANCH   8   9
BRANCH   1  20
ATOM     20  C   UNL     1      -0.536   0.322  24.313  0.00  0.00    +0.077 C 
ATOM     21  C   UNL     1      -0.133   0.352  23.595  0.00  0.00    +0.009 C 
BRANCH  20  22
ATOM     22  C   UNL     1      -0.716  -0.407  24.655  0.00  0.00    +0.241 C 
ATOM     23  O   UNL     1      -0.505  -0.559  25.438  0.00  0.00    -0.273 OA
ATOM     24  N   UNL     1      -1.107  -0.984  24.214  0.00  0.00    -0.207 NA
BRANCH  24  25
ATOM     25  C   UNL     1      -1.288  -1.713  24.556  0.00  0.00    +0.095 C 
ATOM     26  C   UNL     1      -1.819  -2.332  24.681  0.00  0.00    +0.023 C 
ATOM     27  C   UNL     1      -1.068  -2.356  25.022  0.00  0.00    +0.023 C 
ENDBRANCH  24  25
ENDBRANCH  20  22
ENDBRANCH   1  20
TORSDOF 6
ENDMDL
