MODEL 1
REMARK VINA RESULT:     -13.2      0.000      0.000
REMARK  Name = 
REMARK  5 active torsions:
REMARK  status: ('A' for Active; 'I' for Inactive)
REMARK    1  A    between atoms: C_2  and  N_3
REMARK    2  A    between atoms: N_6  and  C_7
REMARK    3  A    between atoms: C_9  and  C_12
REMARK    4  A    between atoms: N_15  and  C_19
REMARK    5  A    between atoms: C_22  and  C_25
REMARK                            x       y       z     vdW  Elec       q    Type
REMARK                         _______ _______ _______ _____ _____    ______ ____
ROOT
ATOM     12  C   UNL     1      -4.354   1.773  24.881  0.00  0.00    +0.010 A 
ATOM     13  C   UNL     1      -3.937   1.093  24.670  0.00  0.00    +0.058 A 
ATOM     14  C   UNL     1      -3.202   1.070  24.297  0.00  0.00    +0.052 C 
ATOM     15  N   UNL     1      -4.387   0.439  24.897  0.00  0.00    -0.234 N 
ATOM     16  N   UNL     1      -5.080   0.714  25.249  0.00  0.00    -0.170 NA
ATOM     17  C   UNL     1      -5.059   1.539  25.239  0.00  0.00    +0.077 A 
ATOM     18  C   UNL     1      -5.642   2.043  25.535  0.00  0.00    +0.054 C 
ENDROOT
BRANCH  15  19
ATOM     19  C   UNL     1      -4.179  -0.353  24.791  0.00  0.00    +0.082 A 
ATOM     20  C   UNL     1      -3.794  -0.762  25.395  0.00  0.00    +0.019 A 
ATOM     21  C   UNL     1      -3.586  -1.554  25.290  0.00  0.00    -0.003 A 
ATOM     22  C   UNL     1      -3.764  -1.936  24.581  0.00  0.00    -0.023 A 
ATOM     23  C   UNL     1      -4.149  -1.527  23.977  0.00  0.00    -0.003 A 
ATOM     24  C   UNL     1      -4.357  -0.735  24.082  0.00  0.00    +0.019 A 
BRANCH  22  25
ATOM     25  C   UNL     1      -3.557  -2.728  24.475  0.00  0.00    +0.019 C 
ATOM     26  C   UNL     1      -3.349  -3.519  24.370  0.00  0.00    +0.004 C 
ATOM     27  C   UNL     1      -2.904  -2.622  24.969  0.00  0.00    +0.004 C 
ATOM     28  C   UNL     1      -4.209  -2.833  23.982  0.00  0.00    +0.004 C 
ENDBRANCH  22  25
ENDBRANCH  15  19
BRANCH  12   9
ATOM      7  C   UNL     1      -3.485   3.722  24.897  0.00  0.00    +0.119 C 
ATOM      8  C   UNL     1      -3.569   2.969  25.222  0.00  0.00    +0.035 C 
ATOM      9  C   UNL     1      -4.107   2.550  24.757  0.00  0.00    +0.048 C 
ATOM     10  C   UNL     1      -4.354   3.045  24.144  0.00  0.00    -0.025 C 
ATOM     11  C   UNL     1      -3.969   3.770  24.232  0.00  0.00    -0.009 C 
BRANCH   7   6
ATOM      3  N   UNL     1      -1.728   4.975  25.234  0.00  0.00    -0.187 NA
ATOM      4  C   UNL     1      -2.214   4.374  24.943  0.00  0.00    +0.339 C 
ATOM      5  O   UNL     1      -1.913   3.823  24.409  0.00  0.00    -0.249 OA
ATOM      6  N   UNL     1      -3.000   4.324  25.188  0.00  0.00    -0.184 NA
BRANCH   3   2
ATOM      1  C   UNL     1      -0.596   5.763  24.863  0.00  0.00    +0.025 C 
ATOM      2  C   UNL     1      -0.942   5.025  24.989  0.00  0.00    +0.117 C 
ENDBRANCH   3   2
ENDBRANCH   7   6
ENDBRANCH  12   9
TORSDOF 5
ENDMDL
MODEL 2
REMARK VINA RESULT:     -10.7      2.618      6.301
REMARK  Name = 
REMARK  5 active torsions:
REMARK  status: ('A' for Active; 'I' for Inactive)
REMARK    1  A    between atoms: C_2  and  N_3
REMARK    2  A    between atoms: N_6  and  C_7
REMARK    3  A    between atoms: C_9  and  C_12
REMARK    4  A    between atoms: N_15  and  C_19
REMARK    5  A    between atoms: C_22  and  C_25
REMARK                            x       y       z     vdW  Elec       q    Type
REMARK                         _______ _______ _______ _____ _____    ______ ____
ROOT
ATOM     12  C   UNL     1      -0.603   0.319  24.519  0.00  0.00    +0.010 A 
ATOM     13  C   UNL     1      -0.976   0.992  24.816  0.00  0.00    +0.058 A 
ATOM     14  C   UNL     1      -1.614   1.003  25.338  0.00  0.00    +0.052 C 
ATOM     15  N   UNL     1      -0.598   1.653  24.499  0.00  0.00    -0.234 N 
ATOM     16  N   UNL     1       0.008   1.389  24.006  0.00  0.00    -0.170 NA
ATOM     17  C   UNL     1       0.005   0.564  24.018  0.00  0.00    +0.077 A 
ATOM     18  C   UNL     1       0.519   0.070  23.603  0.00  0.00    +0.054 C 
ENDROOT
BRANCH  15  19
ATOM     19  C   UNL     1      -0.792   2.442  24.648  0.00  0.00    +0.082 A 
ATOM     20  C   UNL     1      -1.332   2.832  24.162  0.00  0.00    +0.019 A 
ATOM     21  C   UNL     1      -1.526   3.620  24.310  0.00  0.00    -0.003 A 
ATOM     22  C   UNL     1      -1.180   4.017  24.945  0.00  0.00    -0.023 A 
ATOM     23  C   UNL     1      -0.639   3.627  25.431  0.00  0.00    -0.003 A 
ATOM     24  C   UNL     1      -0.445   2.839  25.282  0.00  0.00    +0.019 A 
BRANCH  22  25
ATOM     25  C   UNL     1      -1.374   4.805  25.094  0.00  0.00    +0.019 C 
ATOM     26  C   UNL     1      -1.568   5.593  25.242  0.00  0.00    +0.004 C 
ATOM     27  C   UNL     1      -2.066   4.564  25.472  0.00  0.00    +0.004 C 
ATOM     28  C   UNL     1      -0.682   5.047  24.715  0.00  0.00    +0.004 C 
ENDBRANCH  22  25
ENDBRANCH  15  19
BRANCH  12   9
ATOM      7  C   UNL     1      -1.359  -1.675  24.629  0.00  0.00    +0.119 C 
ATOM      8  C   UNL     1      -1.321  -0.939  24.260  0.00  0.00    +0.035 C 
ATOM      9  C   UNL     1      -0.804  -0.462  24.692  0.00  0.00    +0.048 C 
ATOM     10  C   UNL     1      -0.523  -0.905  25.330  0.00  0.00    -0.025 C 
ATOM     11  C   UNL     1      -0.866  -1.654  25.290  0.00  0.00    -0.009 C 
BRANCH   7   6
ATOM      3  N   UNL     1      -3.078  -2.970  24.263  0.00  0.00    -0.187 NA
ATOM      4  C   UNL     1      -2.626  -2.325  24.511  0.00  0.00    +0.339 C 
ATOM      5  O   UNL     1      -2.988  -1.689  24.889  0.00  0.00    -0.249 OA
ATOM      6  N   UNL     1      -1.811  -2.319  24.381  0.00  0.00    -0.184 NA
BRANCH   3   2
ATOM      1  C   UNL     1      -4.408  -3.162  23.775  0.00  0.00    +0.025 C 
ATOM      2  C   UNL     1      -3.893  -2.976  24.393  0.00  0.00    +0.117 C 
ENDBRANCH   3   2
ENDBRANCH   7   6
ENDBRANCH  12   9
TORSDOF 5
ENDMDL
MODEL 3
REMARK VINA RESULT:     -10.4      1.516      5.627
REMARK  Name = 
REMARK  5 active torsions:
REMARK  status: ('A' for Active; 'I' for Inactive)
REMARK    1  A    between atoms: C_2  and  N_3
REMARK    2  A    between atoms: N_6  and  C_7
REMARK    3  A    between atoms: C_9  and  C_12
REMARK    4  A    between atoms: N_15  and  C_19
REMARK    5  A    between atoms: C_22  and  C_25
REMARK                            x       y       z     vdW  Elec       q    Type
REMARK                         _______ _______ _______ _____ _____    ______ ____
ROOT
ATOM     12  C   UNL     1      -4.207   1.700  24.890  0.00  0.00    +0.010 A 
ATOM     13  C   UNL     1      -3.460   2.050  24.921  0.00  0.00    +0.058 A 
ATOM     14  C   UNL     1      -2.740   1.653  24.968  0.00  0.00    +0.052 C 
ATOM     15  N   UNL     1      -3.563   2.869  24.897  0.00  0.00    -0.234 N 
ATOM     16  N   UNL     1      -4.371   3.024  24.851  0.00  0.00    -0.170 NA
ATOM     17  C   UNL     1      -4.770   2.302  24.846  0.00  0.00    +0.077 A 
ATOM     18  C   UNL     1      -5.587   2.198  24.805  0.00  0.00    +0.054 C 
ENDROOT
BRANCH  15  19
ATOM     19  C   UNL     1      -2.961   3.434  24.916  0.00  0.00    +0.082 A 
ATOM     20  C   UNL     1      -2.754   3.791  25.630  0.00  0.00    +0.019 A 
ATOM     21  C   UNL     1      -2.153   4.356  25.650  0.00  0.00    -0.003 A 
ATOM     22  C   UNL     1      -1.760   4.564  24.954  0.00  0.00    -0.023 A 
ATOM     23  C   UNL     1      -1.968   4.207  24.241  0.00  0.00    -0.003 A 
ATOM     24  C   UNL     1      -2.569   3.642  24.221  0.00  0.00    +0.019 A 
BRANCH  22  25
ATOM     25  C   UNL     1      -1.159   5.129  24.974  0.00  0.00    +0.019 C 
ATOM     26  C   UNL     1      -0.558   5.693  24.993  0.00  0.00    +0.004 C 
ATOM     27  C   UNL     1      -0.595   4.532  24.891  0.00  0.00    +0.004 C 
ATOM     28  C   UNL     1      -1.722   5.725  25.056  0.00  0.00    +0.004 C 
ENDBRANCH  22  25
ENDBRANCH  15  19
BRANCH  12   9
ATOM      7  C   UNL     1      -4.406  -0.399  24.557  0.00  0.00    +0.119 C 
ATOM      8  C   UNL     1      -4.136   0.345  24.323  0.00  0.00    +0.035 C 
ATOM      9  C   UNL     1      -4.362   0.890  24.900  0.00  0.00    +0.048 C 
ATOM     10  C   UNL     1      -4.772   0.482  25.490  0.00  0.00    -0.025 C 
ATOM     11  C   UNL     1      -4.798  -0.314  25.277  0.00  0.00    -0.009 C 
BRANCH   7   6
ATOM      3  N   UNL     1      -3.791  -2.438  24.076  0.00  0.00    -0.187 NA
ATOM      4  C   UNL     1      -3.896  -1.732  24.491  0.00  0.00    +0.339 C 
ATOM      5  O   UNL     1      -3.596  -1.655  25.255  0.00  0.00    -0.249 OA
ATOM      6  N   UNL     1      -4.301  -1.105  24.141  0.00  0.00    -0.184 NA
BRANCH   3   2
ATOM      1  C   UNL     1      -3.133  -3.702  23.964  0.00  0.00    +0.025 C 
ATOM      2  C   UNL     1      -3.386  -3.066  24.426  0.00  0.00    +0.117 C 
ENDBRANCH   3   2
ENDBRANCH   7   6
ENDBRANCH  12   9
TORSDOF 5
ENDMDL
MODEL 4
REMARK VINA RESULT:     -10.4      2.075      2.811
REMARK  Name = 
REMARK  5 active torsions:
REMARK  status: ('A' for Active; 'I' for Inactive)
REMARK    1  A    between atoms: C_2  and  N_3
REMARK    2  A    between atoms: N_6  and  C_7
REMARK    3  A    between atoms: C_9  and  C_12
REMARK    4  A    between atoms: N_15  and  C_19
REMARK    5  A    between atoms: C_22  and  C_25
REMARK                            x       y       z     vdW  Elec       q    Type
REMARK                         _______ _______ _______ _____ _____    ______ ____
ROOT
ATOM     12  C   UNL     1      -0.795   0.860  24.788  0.00  0.00    +0.010 A 
ATOM     13  C   UNL     1      -1.496   0.440  24.902  0.00  0.00    +0.058 A 
ATOM     14  C   UNL     1      -2.136   0.680  25.363  0.00  0.00    +0.052 C 
ATOM     15  N   UNL     1      -1.443  -0.264  24.475  0.00  0.00    -0.234 N 
ATOM     16  N   UNL     1      -0.710  -0.279  24.096  0.00  0.00    -0.170 NA
ATOM     17  C   UNL     1      -0.310   0.416  24.289  0.00  0.00    +0.077 A 
ATOM     18  C   UNL     1       0.444   0.630  24.030  0.00  0.00    +0.054 C 
ENDROOT
BRANCH  15  19
ATOM     19  C   UNL     1      -2.022  -0.851  24.432  0.00  0.00    +0.082 A 
ATOM     20  C   UNL     1      -1.868  -1.603  24.736  0.00  0.00    +0.019 A 
ATOM     21  C   UNL     1      -2.446  -2.190  24.694  0.00  0.00    -0.003 A 
ATOM     22  C   UNL     1      -3.177  -2.025  24.349  0.00  0.00    -0.023 A 
ATOM     23  C   UNL     1      -3.330  -1.274  24.046  0.00  0.00    -0.003 A 
ATOM     24  C   UNL     1      -2.752  -0.686  24.087  0.00  0.00    +0.019 A 
BRANCH  22  25
ATOM     25  C   UNL     1      -3.755  -2.613  24.307  0.00  0.00    +0.019 C 
ATOM     26  C   UNL     1      -4.333  -3.200  24.265  0.00  0.00    +0.004 C 
ATOM     27  C   UNL     1      -3.291  -3.104  24.780  0.00  0.00    +0.004 C 
ATOM     28  C   UNL     1      -4.220  -2.122  23.834  0.00  0.00    +0.004 C 
ENDBRANCH  22  25
ENDBRANCH  15  19
BRANCH  12   9
ATOM      7  C   UNL     1      -0.436   2.910  25.264  0.00  0.00    +0.119 C 
ATOM      8  C   UNL     1      -0.675   2.325  24.734  0.00  0.00    +0.035 C 
ATOM      9  C   UNL     1      -0.612   1.595  25.114  0.00  0.00    +0.048 C 
ATOM     10  C   UNL     1      -0.334   1.730  25.880  0.00  0.00    -0.025 C 
ATOM     11  C   UNL     1      -0.225   2.543  25.971  0.00  0.00    -0.009 C 
BRANCH   7   6
ATOM      3  N   UNL     1      -1.063   4.992  25.074  0.00  0.00    -0.187 NA
ATOM      4  C   UNL     1      -1.087   4.181  25.226  0.00  0.00    +0.339 C 
ATOM      5  O   UNL     1      -1.785   3.832  25.492  0.00  0.00    -0.249 OA
ATOM      6  N   UNL     1      -0.412   3.721  25.112  0.00  0.00    -0.184 NA
BRANCH   3   2
ATOM      1  C   UNL     1      -1.756   6.232  24.918  0.00  0.00    +0.025 C 
ATOM      2  C   UNL     1      -1.738   5.453  25.189  0.00  0.00    +0.117 C 
ENDBRANCH   3   2
ENDBRANCH   7   6
ENDBRANCH  12   9
TORSDOF 5
ENDMDL
MODEL 5
REMARK VINA RESULT:     -10.2      2.720      4.735
REMARK  Name = 
REMARK  5 active torsions:
REMARK  status: ('A' for Active; 'I' for Inactive)
REMARK    1  A    between atoms: C_2  and  N_3
REMARK    2  A    between atoms: N_6  and  C_7
REMARK    3  A    between atoms: C_9  and  C_12
REMARK    4  A    between atoms: N_15  and  C_19
REMARK    5  A    between atoms: C_22  and  C_25
REMARK                            x       y       z     vdW  Elec       q    Type
REMARK                         _______ _______ _______ _____ _____    ______ ____
ROOT
ATOM     12  C   UNL     1      -2.569  -0.239  24.630  0.00  0.00    +0.010 A 
ATOM     13  C   UNL     1      -2.832   0.515  24.840  0.00  0.00    +0.058 A 
ATOM     14  C   UNL     1      -2.359   1.145  25.081  0.00  0.00    +0.052 C 
ATOM     15  N   UNL     1      -3.654   0.526  24.766  0.00  0.00    -0.234 N 
ATOM     16  N   UNL     1      -3.898  -0.219  24.511  0.00  0.00    -0.170 NA
ATOM     17  C   UNL     1      -3.227  -0.692  24.427  0.00  0.00    +0.077 A 
ATOM     18  C   UNL     1      -3.216  -1.480  24.183  0.00  0.00    +0.054 C 
ENDROOT
BRANCH  15  19
ATOM     19  C   UNL     1      -4.146   1.170  24.920  0.00  0.00    +0.082 A 
ATOM     20  C   UNL     1      -4.689   1.134  25.541  0.00  0.00    +0.019 A 
ATOM     21  C   UNL     1      -5.182   1.778  25.695  0.00  0.00    -0.003 A 
ATOM     22  C   UNL     1      -5.131   2.457  25.229  0.00  0.00    -0.023 A 
ATOM     23  C   UNL     1      -4.588   2.492  24.609  0.00  0.00    -0.003 A 
ATOM     24  C   UNL     1      -4.096   1.849  24.455  0.00  0.00    +0.019 A 
BRANCH  22  25
ATOM     25  C   UNL     1      -5.624   3.101  25.384  0.00  0.00    +0.019 C 
ATOM     26  C   UNL     1      -6.116   3.744  25.539  0.00  0.00    +0.004 C 
ATOM     27  C   UNL     1      -6.277   2.598  25.397  0.00  0.00    +0.004 C 
ATOM     28  C   UNL     1      -4.970   3.604  25.372  0.00  0.00    +0.004 C 
ENDBRANCH  22  25
ENDBRANCH  15  19
BRANCH  12   9
ATOM      7  C   UNL     1      -0.556  -0.814  24.211  0.00  0.00    +0.119 C 
ATOM      8  C   UNL     1      -1.289  -0.528  23.965  0.00  0.00    +0.035 C 
ATOM      9  C   UNL     1      -1.784  -0.493  24.625  0.00  0.00    +0.048 C 
ATOM     10  C   UNL     1      -1.355  -0.757  25.279  0.00  0.00    -0.025 C 
ATOM     11  C   UNL     1      -0.596  -0.955  25.023  0.00  0.00    -0.009 C 
BRANCH   7   6
ATOM      3  N   UNL     1       1.244  -0.423  23.040  0.00  0.00    -0.187 NA
ATOM      4  C   UNL     1       0.585  -0.300  23.521  0.00  0.00    +0.339 C 
ATOM      5  O   UNL     1       0.409   0.457  23.794  0.00  0.00    -0.249 OA
ATOM      6  N   UNL     1       0.103  -0.936  23.730  0.00  0.00    -0.184 NA
BRANCH   3   2
ATOM      1  C   UNL     1       2.441   0.079  22.440  0.00  0.00    +0.025 C 
ATOM      2  C   UNL     1       1.726   0.213  22.832  0.00  0.00    +0.117 C 
ENDBRANCH   3   2
ENDBRANCH   7   6
ENDBRANCH  12   9
TORSDOF 5
ENDMDL
MODEL 6
REMARK VINA RESULT:     -10.0      3.721      4.950
REMARK  Name = 
REMARK  5 active torsions:
REMARK  status: ('A' for Active; 'I' for Inactive)
REMARK    1  A    between atoms: C_2  and  N_3
REMARK    2  A    between atoms: N_6  and  C_7
REMARK    3  A    between atoms: C_9  and  C_12
REMARK    4  A    between atoms: N_15  and  C_19
REMARK    5  A    between atoms: C_22  and  C_25
REMARK                            x       y       z     vdW  Elec       q    Type
REMARK                         _______ _______ _______ _____ _____    ______ ____
ROOT
ATOM     12  C   UNL     1      -0.755   0.197  24.103  0.00  0.00    +0.010 A 
ATOM     13  C   UNL     1      -1.403   0.697  23.998  0.00  0.00    +0.058 A 
ATOM     14  C   UNL     1      -1.451   1.323  23.464  0.00  0.00    +0.052 C 
ATOM     15  N   UNL     1      -1.995   0.460  24.521  0.00  0.00    -0.234 N 
ATOM     16  N   UNL     1      -1.714  -0.186  24.950  0.00  0.00    -0.170 NA
ATOM     17  C   UNL     1      -0.947  -0.349  24.691  0.00  0.00    +0.077 A 
ATOM     18  C   UNL     1      -0.458  -0.951  24.972  0.00  0.00    +0.054 C 
ENDROOT
BRANCH  15  19
ATOM     19  C   UNL     1      -2.740   0.807  24.602  0.00  0.00    +0.082 A 
ATOM     20  C   UNL     1      -3.404   0.438  24.280  0.00  0.00    +0.019 A 
ATOM     21  C   UNL     1      -4.148   0.785  24.360  0.00  0.00    -0.003 A 
ATOM     22  C   UNL     1      -4.228   1.501  24.763  0.00  0.00    -0.023 A 
ATOM     23  C   UNL     1      -3.563   1.869  25.085  0.00  0.00    -0.003 A 
ATOM     24  C   UNL     1      -2.819   1.522  25.005  0.00  0.00    +0.019 A 
BRANCH  22  25
ATOM     25  C   UNL     1      -4.972   1.848  24.844  0.00  0.00    +0.019 C 
ATOM     26  C   UNL     1      -5.716   2.195  24.925  0.00  0.00    +0.004 C 
ATOM     27  C   UNL     1      -4.719   2.495  24.398  0.00  0.00    +0.004 C 
ATOM     28  C   UNL     1      -5.225   1.202  25.289  0.00  0.00    +0.004 C 
ENDBRANCH  22  25
ENDBRANCH  15  19
BRANCH  12   9
ATOM      7  C   UNL     1       1.191   0.587  23.319  0.00  0.00    +0.119 C 
ATOM      8  C   UNL     1       0.595   0.730  23.871  0.00  0.00    +0.035 C 
ATOM      9  C   UNL     1      -0.042   0.236  23.692  0.00  0.00    +0.048 C 
ATOM     10  C   UNL     1       0.162  -0.212  23.029  0.00  0.00    -0.025 C 
ATOM     11  C   UNL     1       0.924   0.006  22.799  0.00  0.00    -0.009 C 
BRANCH   7   6
ATOM      3  N   UNL     1       3.325   0.923  22.999  0.00  0.00    -0.187 NA
ATOM      4  C   UNL     1       2.589   0.549  23.026  0.00  0.00    +0.339 C 
ATOM      5  O   UNL     1       2.517  -0.236  22.786  0.00  0.00    -0.249 OA
ATOM      6  N   UNL     1       1.927   0.962  23.293  0.00  0.00    -0.184 NA
BRANCH   3   2
ATOM      1  C   UNL     1       4.732   0.680  23.045  0.00  0.00    +0.025 C 
ATOM      2  C   UNL     1       3.987   0.511  22.732  0.00  0.00    +0.117 C 
ENDBRANCH   3   2
ENDBRANCH   7   6
ENDBRANCH  12   9
TORSDOF 5
ENDMDL
MODEL 7
REMARK VINA RESULT:      -9.7      2.751      4.606
REMARK  Name = 
REMARK  5 active torsions:
REMARK  status: ('A' for Active; 'I' for Inactive)
REMARK    1  A    between atoms: C_2  and  N_3
REMARK    2  A    between atoms: N_6  and  C_7
REMARK    3  A    between atoms: C_9  and  C_12
REMARK    4  A    between atoms: N_15  and  C_19
REMARK    5  A    between atoms: C_22  and  C_25
REMARK                            x       y       z     vdW  Elec       q    Type
REMARK                         _______ _______ _______ _____ _____    ______ ____
ROOT
ATOM     12  C   UNL     1      -1.447   2.977  25.004  0.00  0.00    +0.010 A 
ATOM     13  C   UNL     1      -2.154   2.553  25.043  0.00  0.00    +0.058 A 
ATOM     14  C   UNL     1      -2.227   1.732  25.060  0.00  0.00    +0.052 C 
ATOM     15  N   UNL     1      -2.775   3.096  25.062  0.00  0.00    -0.234 N 
ATOM     16  N   UNL     1      -2.452   3.854  25.035  0.00  0.00    -0.170 NA
ATOM     17  C   UNL     1      -1.631   3.781  24.999  0.00  0.00    +0.077 A 
ATOM     18  C   UNL     1      -1.089   4.402  24.965  0.00  0.00    +0.054 C 
ENDROOT
BRANCH  15  19
ATOM     19  C   UNL     1      -3.579   2.913  25.101  0.00  0.00    +0.082 A 
ATOM     20  C   UNL     1      -4.002   3.062  25.794  0.00  0.00    +0.019 A 
ATOM     21  C   UNL     1      -4.805   2.880  25.833  0.00  0.00    -0.003 A 
ATOM     22  C   UNL     1      -5.186   2.547  25.180  0.00  0.00    -0.023 A 
ATOM     23  C   UNL     1      -4.762   2.398  24.489  0.00  0.00    -0.003 A 
ATOM     24  C   UNL     1      -3.959   2.581  24.449  0.00  0.00    +0.019 A 
BRANCH  22  25
ATOM     25  C   UNL     1      -5.989   2.365  25.220  0.00  0.00    +0.019 C 
ATOM     26  C   UNL     1      -6.793   2.182  25.260  0.00  0.00    +0.004 C 
ATOM     27  C   UNL     1      -5.848   1.656  24.822  0.00  0.00    +0.004 C 
ATOM     28  C   UNL     1      -6.131   3.073  25.618  0.00  0.00    +0.004 C 
ENDBRANCH  22  25
ENDBRANCH  15  19
BRANCH  12   9
ATOM      7  C   UNL     1       0.467   2.164  24.520  0.00  0.00    +0.119 C 
ATOM      8  C   UNL     1      -0.260   2.479  24.292  0.00  0.00    +0.035 C 
ATOM      9  C   UNL     1      -0.689   2.652  24.976  0.00  0.00    +0.048 C 
ATOM     10  C   UNL     1      -0.226   2.443  25.626  0.00  0.00    -0.025 C 
ATOM     11  C   UNL     1       0.488   2.142  25.344  0.00  0.00    -0.009 C 
BRANCH   7   6
ATOM      3  N   UNL     1       1.658   0.899  23.198  0.00  0.00    -0.187 NA
ATOM      4  C   UNL     1       1.057   1.149  23.706  0.00  0.00    +0.339 C 
ATOM      5  O   UNL     1       0.447   0.633  23.908  0.00  0.00    -0.249 OA
ATOM      6  N   UNL     1       1.068   1.915  24.012  0.00  0.00    -0.184 NA
BRANCH   3   2
ATOM      1  C   UNL     1       2.260  -0.124  22.403  0.00  0.00    +0.025 C 
ATOM      2  C   UNL     1       1.647   0.133  22.893  0.00  0.00    +0.117 C 
ENDBRANCH   3   2
ENDBRANCH   7   6
ENDBRANCH  12   9
TORSDOF 5
ENDMDL
MODEL 8
REMARK VINA RESULT:      -9.4      2.646      3.172
REMARK  Name = 
REMARK  5 active torsions:
REMARK  status: ('A' for Active; 'I' for Inactive)
REMARK    1  A    between atoms: C_2  and  N_3
REMARK    2  A    between atoms: N_6  and  C_7
REMARK    3  A    between atoms: C_9  and  C_12
REMARK    4  A    between atoms: N_15  and  C_19
REMARK    5  A    between atoms: C_22  and  C_25
REMARK                            x       y       z     vdW  Elec       q    Type
REMARK                         _______ _______ _______ _____ _____    ______ ____
ROOT
ATOM     12  C   UNL     1      -1.466   1.518  24.892  0.00  0.00    +0.010 A 
ATOM     13  C   UNL     1      -1.790   0.791  25.108  0.00  0.00    +0.058 A 
ATOM     14  C   UNL     1      -1.743   0.441  25.853  0.00  0.00    +0.052 C 
ATOM     15  N   UNL     1      -2.168   0.475  24.447  0.00  0.00    -0.234 N 
ATOM     16  N   UNL     1      -2.079   1.006  23.822  0.00  0.00    -0.170 NA
ATOM     17  C   UNL     1      -1.645   1.652  24.098  0.00  0.00    +0.077 A 
ATOM     18  C   UNL     1      -1.427   2.314  23.657  0.00  0.00    +0.054 C 
ENDROOT
BRANCH  15  19
ATOM     19  C   UNL     1      -2.568  -0.247  24.414  0.00  0.00    +0.082 A 
ATOM     20  C   UNL     1      -2.141  -0.950  24.343  0.00  0.00    +0.019 A 
ATOM     21  C   UNL     1      -2.540  -1.672  24.311  0.00  0.00    -0.003 A 
ATOM     22  C   UNL     1      -3.364  -1.691  24.350  0.00  0.00    -0.023 A 
ATOM     23  C   UNL     1      -3.789  -0.987  24.422  0.00  0.00    -0.003 A 
ATOM     24  C   UNL     1      -3.391  -0.266  24.454  0.00  0.00    +0.019 A 
BRANCH  22  25
ATOM     25  C   UNL     1      -3.762  -2.413  24.318  0.00  0.00    +0.019 C 
ATOM     26  C   UNL     1      -4.160  -3.134  24.286  0.00  0.00    +0.004 C 
ATOM     27  C   UNL     1      -4.205  -2.140  23.678  0.00  0.00    +0.004 C 
ATOM     28  C   UNL     1      -3.319  -2.685  24.958  0.00  0.00    +0.004 C 
ENDBRANCH  22  25
ENDBRANCH  15  19
BRANCH  12   9
ATOM      7  C   UNL     1      -0.059   2.544  26.127  0.00  0.00    +0.119 C 
ATOM      8  C   UNL     1      -0.266   1.905  25.649  0.00  0.00    +0.035 C 
ATOM      9  C   UNL     1      -1.039   2.023  25.384  0.00  0.00    +0.048 C 
ATOM     10  C   UNL     1      -1.309   2.737  25.699  0.00  0.00    -0.025 C 
ATOM     11  C   UNL     1      -0.703   3.059  26.158  0.00  0.00    -0.009 C 
BRANCH   7   6
ATOM      3  N   UNL     1       1.442   2.675  27.707  0.00  0.00    -0.187 NA
ATOM      4  C   UNL     1       0.717   2.568  27.327  0.00  0.00    +0.339 C 
ATOM      5  O   UNL     1       0.045   2.380  27.765  0.00  0.00    -0.249 OA
ATOM      6  N   UNL     1       0.666   2.651  26.507  0.00  0.00    -0.184 NA
BRANCH   3   2
ATOM      1  C   UNL     1       2.214   2.717  28.909  0.00  0.00    +0.025 C 
ATOM      2  C   UNL     1       1.493   2.592  28.526  0.00  0.00    +0.117 C 
ENDBRANCH   3   2
ENDBRANCH   7   6
ENDBRANCH  12   9
TORSDOF 5
ENDMDL
