MODEL 1
REMARK VINA RESULT:     -12.0      0.000      0.000
REMARK  Name = 
REMARK  7 active torsions:
REMARK  status: ('A' for Active; 'I' for Inactive)
REMARK    1  A    between atoms: C_2  and  C_4
REMARK    2  A    between atoms: C_6  and  C_7
REMARK    3  A    between atoms: C_7  and  C_8
REMARK    4  A    between atoms: C_11  and  C_13
REMARK    5  A    between atoms: C_23  and  C_24
REMARK    6  A    between atoms: C_24  and  N_25
REMARK    7  A    between atoms: C_26  and  C_28
REMARK                            x       y       z     vdW  Elec       q    Type
REMARK                         _______ _______ _______ _____ _____    ______ ____
ROOT
ATOM      4  C   UNL     1      -2.554   0.731  24.300  0.00  0.00    +0.006 C 
ATOM      5  C   UNL     1      -1.870   1.189  24.372  0.00  0.00    +0.005 C 
ATOM      6  C   UNL     1      -1.158   0.835  24.590  0.00  0.00    +0.027 C 
ATOM     20  C   UNL     1      -1.129   0.024  24.737  0.00  0.00    -0.048 C 
ATOM     21  C   UNL     1      -0.416  -0.331  24.955  0.00  0.00    +0.026 C 
ATOM     22  C   UNL     1      -1.811  -0.434  24.665  0.00  0.00    -0.033 C 
ATOM     23  C   UNL     1      -2.524  -0.080  24.447  0.00  0.00    +0.043 C 
ENDROOT
BRANCH   4   2
ATOM      1  C   UNL     1      -3.817   1.294  24.659  0.00  0.00    +0.000 C 
ATOM      2  C   UNL     1      -3.266   1.085  24.082  0.00  0.00    +0.000 C 
ATOM      3  C   UNL     1      -3.428   1.230  23.286  0.00  0.00    +0.000 C 
ENDBRANCH   4   2
BRANCH   6   7
ATOM      7  C   UNL     1      -0.475   1.293  24.662  0.00  0.00    +0.091 C 
BRANCH   7   8
ATOM      8  C   UNL     1      -0.510   2.030  25.034  0.00  0.00    +0.227 A 
ATOM      9  N   UNL     1      -0.250   2.198  25.798  0.00  0.00    -0.111 NA
ATOM     10  N   UNL     1      -0.390   2.999  25.944  0.00  0.00    -0.107 NA
ATOM     11  C   UNL     1      -0.736   3.324  25.269  0.00  0.00    +0.252 A 
ATOM     12  O   UNL     1      -0.811   2.724  24.707  0.00  0.00    -0.419 OA
BRANCH  11  13
ATOM     13  C   UNL     1      -0.968   4.110  25.174  0.00  0.00    +0.083 A 
ATOM     14  C   UNL     1      -0.492   4.631  24.747  0.00  0.00    +0.007 A 
ATOM     15  C   UNL     1      -0.724   5.417  24.652  0.00  0.00    +0.000 A 
ATOM     16  C   UNL     1      -1.432   5.681  24.985  0.00  0.00    +0.002 A 
ATOM     17  C   UNL     1      -1.907   5.160  25.411  0.00  0.00    +0.030 A 
ATOM     18  C   UNL     1      -1.675   4.374  25.506  0.00  0.00    +0.145 A 
ATOM     19  F   UNL     1      -2.151   3.853  25.933  0.00  0.00    -0.204 F 
ENDBRANCH  11  13
ENDBRANCH   7   8
ENDBRANCH   6   7
BRANCH  23  24
ATOM     24  C   UNL     1      -3.207  -0.536  24.375  0.00  0.00    +0.119 C 
BRANCH  24  25
ATOM     25  N   UNL     1      -3.154  -1.360  24.380  0.00  0.00    -0.205 NA
ATOM     26  C   UNL     1      -3.840  -1.817  24.340  0.00  0.00    +0.240 C 
ATOM     27  O   UNL     1      -4.577  -1.452  24.296  0.00  0.00    -0.273 OA
BRANCH  26  28
ATOM     28  C   UNL     1      -3.787  -2.641  24.346  0.00  0.00    +0.071 C 
ATOM     29  C   UNL     1      -3.734  -3.464  24.351  0.00  0.00    +0.009 C 
ATOM     30  C   UNL     1      -4.045  -2.662  23.562  0.00  0.00    +0.009 C 
ATOM     31  C   UNL     1      -3.529  -2.619  25.129  0.00  0.00    +0.009 C 
ENDBRANCH  26  28
ENDBRANCH  24  25
ENDBRANCH  23  24
TORSDOF 7
ENDMDL
MODEL 2
REMARK VINA RESULT:     -11.9      1.462      5.898
REMARK  Name = 
REMARK  7 active torsions:
REMARK  status: ('A' for Active; 'I' for Inactive)
REMARK    1  A    between atoms: C_2  and  C_4
REMARK    2  A    between atoms: C_6  and  C_7
REMARK    3  A    between atoms: C_7  and  C_8
REMARK    4  A    between atoms: C_11  and  C_13
REMARK    5  A    between atoms: C_23  and  C_24
REMARK    6  A    between atoms: C_24  and  N_25
REMARK    7  A    between atoms: C_26  and  C_28
REMARK                            x       y       z     vdW  Elec       q    Type
REMARK                         _______ _______ _______ _____ _____    ______ ____
ROOT
ATOM      4  C   UNL     1      -2.043   1.728  24.507  0.00  0.00    +0.006 C 
ATOM      5  C   UNL     1      -2.664   1.238  24.268  0.00  0.00    +0.005 C 
ATOM      6  C   UNL     1      -3.411   1.558  24.125  0.00  0.00    +0.027 C 
ATOM     20  C   UNL     1      -3.537   2.368  24.221  0.00  0.00    -0.048 C 
ATOM     21  C   UNL     1      -4.285   2.688  24.077  0.00  0.00    +0.026 C 
ATOM     22  C   UNL     1      -2.918   2.858  24.459  0.00  0.00    -0.033 C 
ATOM     23  C   UNL     1      -2.171   2.538  24.602  0.00  0.00    +0.043 C 
ENDROOT
BRANCH   4   2
ATOM      1  C   UNL     1      -1.089   1.172  25.411  0.00  0.00    +0.000 C 
ATOM      2  C   UNL     1      -1.297   1.409  24.649  0.00  0.00    +0.000 C 
ATOM      3  C   UNL     1      -0.758   1.325  24.030  0.00  0.00    +0.000 C 
ENDBRANCH   4   2
BRANCH   6   7
ATOM      7  C   UNL     1      -4.030   1.068  23.886  0.00  0.00    +0.091 C 
BRANCH   7   8
ATOM      8  C   UNL     1      -4.146   0.340  24.259  0.00  0.00    +0.227 A 
ATOM      9  N   UNL     1      -4.613   0.206  24.925  0.00  0.00    -0.111 NA
ATOM     10  N   UNL     1      -4.571  -0.598  25.107  0.00  0.00    -0.107 NA
ATOM     11  C   UNL     1      -4.078  -0.960  24.553  0.00  0.00    +0.252 A 
ATOM     12  O   UNL     1      -3.816  -0.380  24.028  0.00  0.00    -0.419 OA
BRANCH  11  13
ATOM     13  C   UNL     1      -3.883  -1.762  24.528  0.00  0.00    +0.083 A 
ATOM     14  C   UNL     1      -4.149  -2.231  23.905  0.00  0.00    +0.007 A 
ATOM     15  C   UNL     1      -3.953  -3.033  23.880  0.00  0.00    +0.000 A 
ATOM     16  C   UNL     1      -3.492  -3.363  24.479  0.00  0.00    +0.002 A 
ATOM     17  C   UNL     1      -3.226  -2.893  25.102  0.00  0.00    +0.030 A 
ATOM     18  C   UNL     1      -3.422  -2.092  25.127  0.00  0.00    +0.145 A 
ATOM     19  F   UNL     1      -3.156  -1.622  25.750  0.00  0.00    -0.204 F 
ENDBRANCH  11  13
ENDBRANCH   7   8
ENDBRANCH   6   7
BRANCH  23  24
ATOM     24  C   UNL     1      -1.551   3.027  24.840  0.00  0.00    +0.119 C 
BRANCH  24  25
ATOM     25  N   UNL     1      -1.608   3.844  24.738  0.00  0.00    -0.205 NA
ATOM     26  C   UNL     1      -1.036   4.341  25.063  0.00  0.00    +0.240 C 
ATOM     27  O   UNL     1      -0.407   4.022  25.490  0.00  0.00    -0.273 OA
BRANCH  26  28
ATOM     28  C   UNL     1      -1.092   5.158  24.960  0.00  0.00    +0.071 C 
ATOM     29  C   UNL     1      -1.149   5.974  24.858  0.00  0.00    +0.009 C 
ATOM     30  C   UNL     1      -1.766   5.170  25.437  0.00  0.00    +0.009 C 
ATOM     31  C   UNL     1      -0.419   5.144  24.484  0.00  0.00    +0.009 C 
ENDBRANCH  26  28
ENDBRANCH  24  25
ENDBRANCH  23  24
TORSDOF 7
ENDMDL
MODEL 3
REMARK VINA RESULT:     -11.8      1.434      2.241
REMARK  Name = 
REMARK  7 active torsions:
REMARK  status: ('A' for Active; 'I' for Inactive)
REMARK    1  A    between atoms: C_2  and  C_4
REMARK    2  A    between atoms: C_6  and  C_7
REMARK    3  A    between atoms: C_7  and  C_8
REMARK    4  A    between atoms: C_11  and  C_13
REMARK    5  A    between atoms: C_23  and  C_24
REMARK    6  A    between atoms: C_24  and  N_25
REMARK    7  A    between atoms: C_26  and  C_28
REMARK                            x       y       z     vdW  Elec       q    Type
REMARK                         _______ _______ _______ _____ _____    ______ ____
ROOT
ATOM      4  C   UNL     1      -3.440   1.323  23.887  0.00  0.00    +0.006 C 
ATOM      5  C   UNL     1      -3.630   2.062  24.202  0.00  0.00    +0.005 C 
ATOM      6  C   UNL     1      -4.237   2.132  24.755  0.00  0.00    +0.027 C 
ATOM     20  C   UNL     1      -4.656   1.462  24.994  0.00  0.00    -0.048 C 
ATOM     21  C   UNL     1      -5.264   1.532  25.549  0.00  0.00    +0.026 C 
ATOM     22  C   UNL     1      -4.467   0.723  24.680  0.00  0.00    -0.033 C 
ATOM     23  C   UNL     1      -3.859   0.654  24.127  0.00  0.00    +0.043 C 
ENDROOT
BRANCH   4   2
ATOM      1  C   UNL     1      -2.071   1.057  23.580  0.00  0.00    +0.000 C 
ATOM      2  C   UNL     1      -2.833   1.253  23.334  0.00  0.00    +0.000 C 
ATOM      3  C   UNL     1      -2.988   1.380  22.533  0.00  0.00    +0.000 C 
ENDBRANCH   4   2
BRANCH   6   7
ATOM      7  C   UNL     1      -4.426   2.871  25.069  0.00  0.00    +0.091 C 
BRANCH   7   8
ATOM      8  C   UNL     1      -3.830   3.352  25.379  0.00  0.00    +0.227 A 
ATOM      9  N   UNL     1      -3.771   3.607  26.161  0.00  0.00    -0.111 NA
ATOM     10  N   UNL     1      -3.094   4.074  26.226  0.00  0.00    -0.107 NA
ATOM     11  C   UNL     1      -2.734   4.107  25.484  0.00  0.00    +0.252 A 
ATOM     12  O   UNL     1      -3.190   3.660  24.960  0.00  0.00    -0.419 OA
BRANCH  11  13
ATOM     13  C   UNL     1      -2.041   4.515  25.298  0.00  0.00    +0.083 A 
ATOM     14  C   UNL     1      -2.079   5.300  25.049  0.00  0.00    +0.007 A 
ATOM     15  C   UNL     1      -1.386   5.708  24.864  0.00  0.00    +0.000 A 
ATOM     16  C   UNL     1      -0.655   5.329  24.928  0.00  0.00    +0.002 A 
ATOM     17  C   UNL     1      -0.618   4.544  25.177  0.00  0.00    +0.030 A 
ATOM     18  C   UNL     1      -1.311   4.136  25.363  0.00  0.00    +0.145 A 
ATOM     19  F   UNL     1      -1.273   3.351  25.612  0.00  0.00    -0.204 F 
ENDBRANCH  11  13
ENDBRANCH   7   8
ENDBRANCH   6   7
BRANCH  23  24
ATOM     24  C   UNL     1      -3.670  -0.085  23.812  0.00  0.00    +0.119 C 
BRANCH  24  25
ATOM     25  N   UNL     1      -3.666  -0.751  24.299  0.00  0.00    -0.205 NA
ATOM     26  C   UNL     1      -3.694  -1.505  23.966  0.00  0.00    +0.240 C 
ATOM     27  O   UNL     1      -3.725  -1.593  23.147  0.00  0.00    -0.273 OA
BRANCH  26  28
ATOM     28  C   UNL     1      -3.690  -2.172  24.453  0.00  0.00    +0.071 C 
ATOM     29  C   UNL     1      -3.685  -2.838  24.940  0.00  0.00    +0.009 C 
ATOM     30  C   UNL     1      -4.426  -2.394  24.153  0.00  0.00    +0.009 C 
ATOM     31  C   UNL     1      -2.954  -1.949  24.752  0.00  0.00    +0.009 C 
ENDBRANCH  26  28
ENDBRANCH  24  25
ENDBRANCH  23  24
TORSDOF 7
ENDMDL
MODEL 4
REMARK VINA RESULT:     -10.6      1.513      5.603
REMARK  Name = 
REMARK  7 active torsions:
REMARK  status: ('A' for Active; 'I' for Inactive)
REMARK    1  A    between atoms: C_2  and  C_4
REMARK    2  A    between atoms: C_6  and  C_7
REMARK    3  A    between atoms: C_7  and  C_8
REMARK    4  A    between atoms: C_11  and  C_13
REMARK    5  A    between atoms: C_23  and  C_24
REMARK    6  A    between atoms: C_24  and  N_25
REMARK    7  A    between atoms: C_26  and  C_28
REMARK                            x       y       z     vdW  Elec       q    Type
REMARK                         _______ _______ _______ _____ _____    ______ ____
ROOT
ATOM      4  C   UNL     1      -2.303   1.750  24.246  0.00  0.00    +0.006 C 
ATOM      5  C   UNL     1      -2.128   0.963  24.423  0.00  0.00    +0.005 C 
ATOM      6  C   UNL     1      -1.563   0.785  24.996  0.00  0.00    +0.027 C 
ATOM     20  C   UNL     1      -1.172   1.394  25.393  0.00  0.00    -0.048 C 
ATOM     21  C   UNL     1      -0.607   1.215  25.968  0.00  0.00    +0.026 C 
ATOM     22  C   UNL     1      -1.347   2.180  25.217  0.00  0.00    -0.033 C 
ATOM     23  C   UNL     1      -1.912   2.358  24.643  0.00  0.00    +0.043 C 
ENDROOT
BRANCH   4   2
ATOM      1  C   UNL     1      -2.654   1.952  22.876  0.00  0.00    +0.000 C 
ATOM      2  C   UNL     1      -2.868   1.928  23.672  0.00  0.00    +0.000 C 
ATOM      3  C   UNL     1      -3.647   2.083  23.895  0.00  0.00    +0.000 C 
ENDBRANCH   4   2
BRANCH   6   7
ATOM      7  C   UNL     1      -1.389  -0.003  25.173  0.00  0.00    +0.091 C 
BRANCH   7   8
ATOM      8  C   UNL     1      -2.000  -0.551  25.258  0.00  0.00    +0.227 A 
ATOM      9  N   UNL     1      -2.411  -0.713  25.954  0.00  0.00    -0.111 NA
ATOM     10  N   UNL     1      -2.972  -1.295  25.789  0.00  0.00    -0.107 NA
ATOM     11  C   UNL     1      -2.907  -1.493  24.991  0.00  0.00    +0.252 A 
ATOM     12  O   UNL     1      -2.306  -1.032  24.662  0.00  0.00    -0.419 OA
BRANCH  11  13
ATOM     13  C   UNL     1      -3.364  -2.052  24.591  0.00  0.00    +0.083 A 
ATOM     14  C   UNL     1      -3.127  -2.842  24.576  0.00  0.00    +0.007 A 
ATOM     15  C   UNL     1      -3.583  -3.402  24.176  0.00  0.00    +0.000 A 
ATOM     16  C   UNL     1      -4.276  -3.170  23.791  0.00  0.00    +0.002 A 
ATOM     17  C   UNL     1      -4.512  -2.380  23.806  0.00  0.00    +0.030 A 
ATOM     18  C   UNL     1      -4.055  -1.821  24.206  0.00  0.00    +0.145 A 
ATOM     19  F   UNL     1      -4.292  -1.031  24.221  0.00  0.00    -0.204 F 
ENDBRANCH  11  13
ENDBRANCH   7   8
ENDBRANCH   6   7
BRANCH  23  24
ATOM     24  C   UNL     1      -2.087   3.144  24.466  0.00  0.00    +0.119 C 
BRANCH  24  25
ATOM     25  N   UNL     1      -1.553   3.741  24.667  0.00  0.00    -0.205 NA
ATOM     26  C   UNL     1      -1.791   4.530  24.650  0.00  0.00    +0.240 C 
ATOM     27  O   UNL     1      -2.562   4.724  24.432  0.00  0.00    -0.273 OA
BRANCH  26  28
ATOM     28  C   UNL     1      -1.257   5.127  24.851  0.00  0.00    +0.071 C 
ATOM     29  C   UNL     1      -0.724   5.723  25.053  0.00  0.00    +0.009 C 
ATOM     30  C   UNL     1      -0.731   4.848  24.280  0.00  0.00    +0.009 C 
ATOM     31  C   UNL     1      -1.784   5.405  25.422  0.00  0.00    +0.009 C 
ENDBRANCH  26  28
ENDBRANCH  24  25
ENDBRANCH  23  24
TORSDOF 7
ENDMDL
