MODEL 1
REMARK VINA RESULT:     -11.1      0.000      0.000
REMARK  Name = 
REMARK  6 active torsions:
REMARK  status: ('A' for Active; 'I' for Inactive)
REMARK    1  A    between atoms: O_2  and  C_3
REMARK    2  A    between atoms: C_3  and  C_4
REMARK    3  A    between atoms: N_6  and  C_7
REMARK    4  A    between atoms: C_7  and  C_8
REMARK    5  A    between atoms: C_15  and  C_16
REMARK    6  A    between atoms: C_18  and  C_22
REMARK                            x       y       z     vdW  Elec       q    Type
REMARK                         _______ _______ _______ _____ _____    ______ ____
ROOT
ATOM     16  C   UNL     1      -1.502   0.239  24.547  0.00  0.00    +0.058 A 
ATOM     17  C   UNL     1      -2.167   0.696  24.378  0.00  0.00    +0.035 A 
ATOM     18  C   UNL     1      -2.775   0.457  24.882  0.00  0.00    +0.102 A 
ATOM     19  N   UNL     1      -2.485  -0.147  25.362  0.00  0.00    -0.170 NA
ATOM     20  N   UNL     1      -1.698  -0.282  25.154  0.00  0.00    -0.253 N 
ATOM     21  C   UNL     1      -1.195  -0.840  25.496  0.00  0.00    +0.153 C 
ENDROOT
BRANCH  18  22
ATOM     22  C   UNL     1      -3.539   0.768  24.902  0.00  0.00    +0.019 A 
ATOM     23  C   UNL     1      -3.656   1.561  25.098  0.00  0.00    +0.002 A 
ATOM     24  C   UNL     1      -4.421   1.872  25.118  0.00  0.00    +0.000 A 
ATOM     25  C   UNL     1      -5.067   1.390  24.942  0.00  0.00    +0.000 A 
ATOM     26  C   UNL     1      -5.831   1.701  24.962  0.00  0.00    +0.000 A 
ATOM     27  C   UNL     1      -5.949   2.494  25.159  0.00  0.00    +0.000 A 
ATOM     28  C   UNL     1      -5.302   2.975  25.335  0.00  0.00    +0.000 A 
ATOM     29  C   UNL     1      -4.538   2.664  25.315  0.00  0.00    +0.000 A 
ATOM     30  C   UNL     1      -4.950   0.597  24.745  0.00  0.00    +0.000 A 
ATOM     31  C   UNL     1      -4.185   0.286  24.725  0.00  0.00    +0.002 A 
ENDBRANCH  18  22
BRANCH  16  15
ATOM      8  C   UNL     1       0.885   0.582  23.391  0.00  0.00    +0.079 C 
ATOM      9  C   UNL     1       0.486   1.111  23.800  0.00  0.00    +0.018 C 
ATOM     10  C   UNL     1      -0.237   0.992  24.144  0.00  0.00    +0.010 C 
ATOM     11  C   UNL     1      -0.529   1.725  24.571  0.00  0.00    +0.018 C 
ATOM     12  C   UNL     1      -0.110   1.369  24.215  0.00  0.00    +0.072 C 
ATOM     13  N   UNL     1       0.148   0.469  23.745  0.00  0.00    -0.272 NA
ATOM     14  C   UNL     1      -0.409  -0.252  23.779  0.00  0.00    +0.078 C 
ATOM     15  C   UNL     1      -0.768   0.294  24.173  0.00  0.00    +0.056 C 
BRANCH   8   7
ATOM      7  C   UNL     1       1.534   0.331  22.950  0.00  0.00    +0.131 C 
BRANCH   7   6
ATOM      4  C   UNL     1       2.925   0.425  22.634  0.00  0.00    +0.272 C 
ATOM      5  O   UNL     1       2.814  -0.091  21.998  0.00  0.00    -0.271 OA
ATOM      6  N   UNL     1       2.284   0.636  23.109  0.00  0.00    -0.202 NA
BRANCH   4   3
ATOM      3  C   UNL     1       3.675   0.728  22.792  0.00  0.00    +0.229 C 
BRANCH   3   2
ATOM      1  C   UNL     1       4.998   0.458  23.257  0.00  0.00    +0.175 C 
ATOM      2  O   UNL     1       4.323   0.221  22.848  0.00  0.00    -0.342 OA
ENDBRANCH   3   2
ENDBRANCH   4   3
ENDBRANCH   7   6
ENDBRANCH   8   7
ENDBRANCH  16  15
TORSDOF 6
ENDMDL
MODEL 2
REMARK VINA RESULT:     -10.4      0.975      1.615
REMARK  Name = 
REMARK  6 active torsions:
REMARK  status: ('A' for Active; 'I' for Inactive)
REMARK    1  A    between atoms: O_2  and  C_3
REMARK    2  A    between atoms: C_3  and  C_4
REMARK    3  A    between atoms: N_6  and  C_7
REMARK    4  A    between atoms: C_7  and  C_8
REMARK    5  A    between atoms: C_15  and  C_16
REMARK    6  A    between atoms: C_18  and  C_22
REMARK                            x       y       z     vdW  Elec       q    Type
REMARK                         _______ _______ _______ _____ _____    ______ ____
ROOT
ATOM     16  C   UNL     1      -1.218   1.826  24.626  0.00  0.00    +0.058 A 
ATOM     17  C   UNL     1      -2.035   1.812  24.517  0.00  0.00    +0.035 A 
ATOM     18  C   UNL     1      -2.372   2.341  25.052  0.00  0.00    +0.102 A 
ATOM     19  N   UNL     1      -1.763   2.681  25.492  0.00  0.00    -0.170 NA
ATOM     20  N   UNL     1      -1.050   2.362  25.228  0.00  0.00    -0.253 N 
ATOM     21  C   UNL     1      -0.299   2.548  25.517  0.00  0.00    +0.153 C 
ENDROOT
BRANCH  18  22
ATOM     22  C   UNL     1      -3.178   2.502  25.133  0.00  0.00    +0.019 A 
ATOM     23  C   UNL     1      -3.731   1.900  25.019  0.00  0.00    +0.002 A 
ATOM     24  C   UNL     1      -4.537   2.061  25.101  0.00  0.00    +0.000 A 
ATOM     25  C   UNL     1      -4.788   2.823  25.295  0.00  0.00    +0.000 A 
ATOM     26  C   UNL     1      -5.593   2.983  25.376  0.00  0.00    +0.000 A 
ATOM     27  C   UNL     1      -6.147   2.382  25.263  0.00  0.00    +0.000 A 
ATOM     28  C   UNL     1      -5.896   1.621  25.068  0.00  0.00    +0.000 A 
ATOM     29  C   UNL     1      -5.090   1.461  24.987  0.00  0.00    +0.000 A 
ATOM     30  C   UNL     1      -4.234   3.424  25.409  0.00  0.00    +0.000 A 
ATOM     31  C   UNL     1      -3.428   3.263  25.328  0.00  0.00    +0.002 A 
ENDBRANCH  18  22
BRANCH  16  15
ATOM      8  C   UNL     1       0.513   0.239  23.346  0.00  0.00    +0.079 C 
ATOM      9  C   UNL     1      -0.021   0.019  23.867  0.00  0.00    +0.018 C 
ATOM     10  C   UNL     1      -0.539   0.513  24.247  0.00  0.00    +0.010 C 
ATOM     11  C   UNL     1      -1.074   0.065  24.810  0.00  0.00    +0.018 C 
ATOM     12  C   UNL     1      -0.598   0.131  24.368  0.00  0.00    +0.072 C 
ATOM     13  N   UNL     1      -0.019   0.735  23.737  0.00  0.00    -0.272 NA
ATOM     14  C   UNL     1      -0.154   1.636  23.699  0.00  0.00    +0.078 C 
ATOM     15  C   UNL     1      -0.665   1.380  24.206  0.00  0.00    +0.056 C 
BRANCH   8   7
ATOM      7  C   UNL     1       1.127   0.092  22.817  0.00  0.00    +0.131 C 
BRANCH   7   6
ATOM      4  C   UNL     1       2.530   0.030  22.550  0.00  0.00    +0.272 C 
ATOM      5  O   UNL     1       2.376   0.053  21.739  0.00  0.00    -0.271 OA
ATOM      6  N   UNL     1       1.905   0.049  23.089  0.00  0.00    -0.202 NA
BRANCH   4   3
ATOM      3  C   UNL     1       3.308  -0.014  22.821  0.00  0.00    +0.229 C 
BRANCH   3   2
ATOM      1  C   UNL     1       4.600   0.581  22.956  0.00  0.00    +0.175 C 
ATOM      2  O   UNL     1       3.852   0.569  22.608  0.00  0.00    -0.342 OA
ENDBRANCH   3   2
ENDBRANCH   4   3
ENDBRANCH   7   6
ENDBRANCH   8   7
ENDBRANCH  16  15
TORSDOF 6
ENDMDL
MODEL 3
REMARK VINA RESULT:      -8.9      1.674      2.579
REMARK  Name = 
REMARK  6 active torsions:
REMARK  status: ('A' for Active; 'I' for Inactive)
REMARK    1  A    between atoms: O_2  and  C_3
REMARK    2  A    between atoms: C_3  and  C_4
REMARK    3  A    between atoms: N_6  and  C_7
REMARK    4  A    between atoms: C_7  and  C_8
REMARK    5  A    between atoms: C_15  and  C_16
REMARK    6  A    between atoms: C_18  and  C_22
REMARK                            x       y       z     vdW  Elec       q    Type
REMARK                         _______ _______ _______ _____ _____    ______ ____
ROOT
ATOM     16  C   UNL     1      -0.217   0.679  24.053  0.00  0.00    +0.058 A 
ATOM     17  C   UNL     1      -0.797   0.121  23.875  0.00  0.00    +0.035 A 
ATOM     18  C   UNL     1      -1.477   0.315  24.300  0.00  0.00    +0.102 A 
ATOM     19  N   UNL     1      -1.316   0.993  24.740  0.00  0.00    -0.170 NA
ATOM     20  N   UNL     1      -0.538   1.218  24.587  0.00  0.00    -0.253 N 
ATOM     21  C   UNL     1      -0.148   1.869  24.913  0.00  0.00    +0.153 C 
ENDROOT
BRANCH  18  22
ATOM     22  C   UNL     1      -2.191  -0.097  24.287  0.00  0.00    +0.019 A 
ATOM     23  C   UNL     1      -2.207  -0.901  24.470  0.00  0.00    +0.002 A 
ATOM     24  C   UNL     1      -2.922  -1.314  24.457  0.00  0.00    +0.000 A 
ATOM     25  C   UNL     1      -3.621  -0.921  24.261  0.00  0.00    +0.000 A 
ATOM     26  C   UNL     1      -4.336  -1.333  24.247  0.00  0.00    +0.000 A 
ATOM     27  C   UNL     1      -4.352  -2.138  24.431  0.00  0.00    +0.000 A 
ATOM     28  C   UNL     1      -3.653  -2.529  24.627  0.00  0.00    +0.000 A 
ATOM     29  C   UNL     1      -2.938  -2.118  24.640  0.00  0.00    +0.000 A 
ATOM     30  C   UNL     1      -3.606  -0.116  24.077  0.00  0.00    +0.000 A 
ATOM     31  C   UNL     1      -2.890   0.296  24.090  0.00  0.00    +0.002 A 
ENDBRANCH  18  22
BRANCH  16  15
ATOM      8  C   UNL     1       2.225   0.596  22.966  0.00  0.00    +0.079 C 
ATOM      9  C   UNL     1       1.626   0.126  22.801  0.00  0.00    +0.018 C 
ATOM     10  C   UNL     1       0.891   0.164  23.140  0.00  0.00    +0.010 C 
ATOM     11  C   UNL     1       0.342  -0.465  22.814  0.00  0.00    +0.018 C 
ATOM     12  C   UNL     1       0.904  -0.137  22.869  0.00  0.00    +0.072 C 
ATOM     13  N   UNL     1       1.473   0.627  23.306  0.00  0.00    -0.272 NA
ATOM     14  C   UNL     1       1.111   1.176  23.939  0.00  0.00    +0.078 C 
ATOM     15  C   UNL     1       0.550   0.695  23.749  0.00  0.00    +0.056 C 
BRANCH   8   7
ATOM      7  C   UNL     1       3.001   0.857  22.874  0.00  0.00    +0.131 C 
BRANCH   7   6
ATOM      4  C   UNL     1       4.397   0.622  23.072  0.00  0.00    +0.272 C 
ATOM      5  O   UNL     1       4.536   1.436  23.051  0.00  0.00    -0.271 OA
ATOM      6  N   UNL     1       3.629   0.333  22.983  0.00  0.00    -0.202 NA
BRANCH   4   3
ATOM      3  C   UNL     1       5.025   0.100  23.180  0.00  0.00    +0.229 C 
BRANCH   3   2
ATOM      1  C   UNL     1       5.811  -0.619  24.133  0.00  0.00    +0.175 C 
ATOM      2  O   UNL     1       5.415   0.068  23.907  0.00  0.00    -0.342 OA
ENDBRANCH   3   2
ENDBRANCH   4   3
ENDBRANCH   7   6
ENDBRANCH   8   7
ENDBRANCH  16  15
TORSDOF 6
ENDMDL
