MODEL 1
REMARK VINA RESULT:     -10.5      0.000      0.000
REMARK  Name = 
REMARK  7 active torsions:
REMARK  status: ('A' for Active; 'I' for Inactive)
REMARK    1  A    between atoms: C_2  and  C_4
REMARK    2  A    between atoms: C_7  and  N_8
REMARK    3  A    between atoms: C_9  and  O_11
REMARK    4  A    between atoms: O_11  and  C_12
REMARK    5  A    between atoms: C_16  and  N_20
REMARK    6  A    between atoms: N_20  and  S_21
REMARK    7  A    between atoms: S_21  and  C_24
REMARK                            x       y       z     vdW  Elec       q    Type
REMARK                         _______ _______ _______ _____ _____    ______ ____
ROOT
ATOM     12  C   UNL     1      -4.873   1.905  25.022  0.00  0.00    +0.229 C 
ATOM     13  C   UNL     1      -4.998   2.125  25.807  0.00  0.00    +0.188 C 
ATOM     14  O   UNL     1      -4.592   2.830  25.942  0.00  0.00    -0.348 OA
ATOM     15  C   UNL     1      -4.217   3.046  25.240  0.00  0.00    +0.166 C 
ATOM     16  C   UNL     1      -3.734   3.616  24.889  0.00  0.00    +0.157 C 
ATOM     17  C   UNL     1      -3.609   3.396  24.104  0.00  0.00    +0.164 C 
ATOM     18  O   UNL     1      -4.014   2.690  23.970  0.00  0.00    -0.348 OA
ATOM     19  C   UNL     1      -4.390   2.474  24.672  0.00  0.00    +0.186 C 
ENDROOT
BRANCH  12  11
ATOM     11  O   UNL     1      -5.177   1.233  24.653  0.00  0.00    -0.432 OA
BRANCH  11   9
ATOM      8  N   UNL     1      -4.434   0.129  24.131  0.00  0.00    -0.142 NA
ATOM      9  C   UNL     1      -4.813   0.500  24.762  0.00  0.00    +0.425 C 
ATOM     10  O   UNL     1      -4.829   0.140  25.505  0.00  0.00    -0.224 OA
BRANCH   8   7
ATOM      4  C   UNL     1      -3.341  -2.067  24.460  0.00  0.00    -0.022 A 
ATOM      5  C   UNL     1      -2.975  -1.379  24.733  0.00  0.00    -0.003 A 
ATOM      6  C   UNL     1      -3.340  -0.647  24.623  0.00  0.00    +0.016 A 
ATOM      7  C   UNL     1      -4.070  -0.603  24.241  0.00  0.00    +0.077 A 
ATOM     29  C   UNL     1      -4.435  -1.290  23.969  0.00  0.00    +0.016 A 
ATOM     30  C   UNL     1      -4.070  -2.023  24.078  0.00  0.00    -0.003 A 
BRANCH   4   2
ATOM      1  C   UNL     1      -3.420  -3.447  24.822  0.00  0.00    +0.005 C 
ATOM      2  C   UNL     1      -2.976  -2.798  24.570  0.00  0.00    +0.022 C 
ATOM      3  C   UNL     1      -2.167  -2.882  24.430  0.00  0.00    +0.005 C 
ENDBRANCH   4   2
ENDBRANCH   8   7
ENDBRANCH  11   9
ENDBRANCH  12  11
BRANCH  16  20
ATOM     20  N   UNL     1      -3.430   4.288  25.258  0.00  0.00    -0.074 NA
BRANCH  20  21
ATOM     21  S   UNL     1      -2.628   4.471  25.186  0.00  0.00    +0.083 S 
ATOM     22  O   UNL     1      -2.497   4.195  25.952  0.00  0.00    -0.151 OA
ATOM     23  O   UNL     1      -2.761   4.748  24.420  0.00  0.00    -0.151 OA
BRANCH  21  24
ATOM     24  C   UNL     1      -1.827   4.655  25.115  0.00  0.00    +0.153 A 
ATOM     25  C   UNL     1      -1.512   5.406  24.987  0.00  0.00    +0.027 A 
ATOM     26  C   UNL     1      -0.690   5.336  24.952  0.00  0.00    +0.009 A 
ATOM     27  C   UNL     1      -0.499   4.541  25.059  0.00  0.00    +0.037 A 
ATOM     28  S   UNL     1      -1.201   4.120  25.160  0.00  0.00    -0.067 S 
ENDBRANCH  21  24
ENDBRANCH  20  21
ENDBRANCH  16  20
TORSDOF 7
ENDMDL
MODEL 2
REMARK VINA RESULT:      -9.9      2.401      3.183
REMARK  Name = 
REMARK  7 active torsions:
REMARK  status: ('A' for Active; 'I' for Inactive)
REMARK    1  A    between atoms: C_2  and  C_4
REMARK    2  A    between atoms: C_7  and  N_8
REMARK    3  A    between atoms: C_9  and  O_11
REMARK    4  A    between atoms: O_11  and  C_12
REMARK    5  A    between atoms: C_16  and  N_20
REMARK    6  A    between atoms: N_20  and  S_21
REMARK    7  A    between atoms: S_21  and  C_24
REMARK                            x       y       z     vdW  Elec       q    Type
REMARK                         _______ _______ _______ _____ _____    ______ ____
ROOT
ATOM     12  C   UNL     1      -0.154   0.491  24.686  0.00  0.00    +0.229 C 
ATOM     13  C   UNL     1       0.055   0.709  23.918  0.00  0.00    +0.188 C 
ATOM     14  O   UNL     1       0.099   1.532  23.890  0.00  0.00    -0.348 OA
ATOM     15  C   UNL     1      -0.082   1.823  24.640  0.00  0.00    +0.166 C 
ATOM     16  C   UNL     1      -0.166   2.511  25.087  0.00  0.00    +0.157 C 
ATOM     17  C   UNL     1      -0.375   2.294  25.855  0.00  0.00    +0.164 C 
ATOM     18  O   UNL     1      -0.419   1.471  25.882  0.00  0.00    -0.348 OA
ATOM     19  C   UNL     1      -0.238   1.180  25.132  0.00  0.00    +0.186 C 
ENDROOT
BRANCH  12  11
ATOM     11  O   UNL     1      -0.260  -0.280  24.960  0.00  0.00    -0.432 OA
BRANCH  11   9
ATOM      8  N   UNL     1      -1.467  -1.001  25.214  0.00  0.00    -0.142 NA
ATOM      9  C   UNL     1      -0.894  -0.732  24.686  0.00  0.00    +0.425 C 
ATOM     10  O   UNL     1      -0.954  -0.914  23.883  0.00  0.00    -0.224 OA
BRANCH   8   7
ATOM      4  C   UNL     1      -3.369  -2.356  24.395  0.00  0.00    -0.022 A 
ATOM      5  C   UNL     1      -2.613  -2.686  24.433  0.00  0.00    -0.003 A 
ATOM      6  C   UNL     1      -1.980  -2.234  24.706  0.00  0.00    +0.016 A 
ATOM      7  C   UNL     1      -2.101  -1.453  24.941  0.00  0.00    +0.077 A 
ATOM     29  C   UNL     1      -2.856  -1.123  24.903  0.00  0.00    +0.016 A 
ATOM     30  C   UNL     1      -3.490  -1.575  24.630  0.00  0.00    -0.003 A 
BRANCH   4   2
ATOM      1  C   UNL     1      -4.602  -2.453  23.680  0.00  0.00    +0.005 C 
ATOM      2  C   UNL     1      -4.002  -2.809  24.121  0.00  0.00    +0.022 C 
ATOM      3  C   UNL     1      -4.037  -3.616  24.289  0.00  0.00    +0.005 C 
ENDBRANCH   4   2
ENDBRANCH   8   7
ENDBRANCH  11   9
ENDBRANCH  12  11
BRANCH  16  20
ATOM     20  N   UNL     1      -0.060   3.283  24.813  0.00  0.00    -0.074 NA
BRANCH  20  21
ATOM     21  S   UNL     1      -0.644   3.851  24.945  0.00  0.00    +0.083 S 
ATOM     22  O   UNL     1      -0.898   3.770  24.164  0.00  0.00    -0.151 OA
ATOM     23  O   UNL     1      -0.389   3.932  25.726  0.00  0.00    -0.151 OA
BRANCH  21  24
ATOM     24  C   UNL     1      -1.227   4.420  25.076  0.00  0.00    +0.153 A 
ATOM     25  C   UNL     1      -1.135   5.236  24.995  0.00  0.00    +0.027 A 
ATOM     26  C   UNL     1      -1.855   5.593  25.180  0.00  0.00    +0.009 A 
ATOM     27  C   UNL     1      -2.392   4.998  25.374  0.00  0.00    +0.037 A 
ATOM     28  S   UNL     1      -2.004   4.272  25.310  0.00  0.00    -0.067 S 
ENDBRANCH  21  24
ENDBRANCH  20  21
ENDBRANCH  16  20
TORSDOF 7
ENDMDL
MODEL 3
REMARK VINA RESULT:      -9.6      2.948      6.379
REMARK  Name = 
REMARK  7 active torsions:
REMARK  status: ('A' for Active; 'I' for Inactive)
REMARK    1  A    between atoms: C_2  and  C_4
REMARK    2  A    between atoms: C_7  and  N_8
REMARK    3  A    between atoms: C_9  and  O_11
REMARK    4  A    between atoms: O_11  and  C_12
REMARK    5  A    between atoms: C_16  and  N_20
REMARK    6  A    between atoms: N_20  and  S_21
REMARK    7  A    between atoms: S_21  and  C_24
REMARK                            x       y       z     vdW  Elec       q    Type
REMARK                         _______ _______ _______ _____ _____    ______ ____
ROOT
ATOM     12  C   UNL     1      -0.522   0.392  25.309  0.00  0.00    +0.229 C 
ATOM     13  C   UNL     1      -0.874   0.320  26.052  0.00  0.00    +0.188 C 
ATOM     14  O   UNL     1      -1.300  -0.386  26.064  0.00  0.00    -0.348 OA
ATOM     15  C   UNL     1      -1.211  -0.751  25.331  0.00  0.00    +0.166 C 
ATOM     16  C   UNL     1      -1.419  -1.413  24.884  0.00  0.00    +0.157 C 
ATOM     17  C   UNL     1      -1.067  -1.341  24.142  0.00  0.00    +0.164 C 
ATOM     18  O   UNL     1      -0.641  -0.635  24.129  0.00  0.00    -0.348 OA
ATOM     19  C   UNL     1      -0.730  -0.270  24.864  0.00  0.00    +0.186 C 
ENDROOT
BRANCH  12  11
ATOM     11  O   UNL     1      -0.045   1.016  25.057  0.00  0.00    -0.432 OA
BRANCH  11   9
ATOM      8  N   UNL     1      -0.606   2.236  24.571  0.00  0.00    -0.142 NA
ATOM      9  C   UNL     1      -0.282   1.796  25.187  0.00  0.00    +0.425 C 
ATOM     10  O   UNL     1      -0.194   2.134  25.935  0.00  0.00    -0.224 OA
BRANCH   8   7
ATOM      4  C   UNL     1      -1.318   4.575  24.960  0.00  0.00    -0.022 A 
ATOM      5  C   UNL     1      -1.857   3.957  25.058  0.00  0.00    -0.003 A 
ATOM      6  C   UNL     1      -1.619   3.178  24.928  0.00  0.00    +0.016 A 
ATOM      7  C   UNL     1      -0.843   3.016  24.700  0.00  0.00    +0.077 A 
ATOM     29  C   UNL     1      -0.305   3.633  24.603  0.00  0.00    +0.016 A 
ATOM     30  C   UNL     1      -0.542   4.413  24.733  0.00  0.00    -0.003 A 
BRANCH   4   2
ATOM      1  C   UNL     1      -2.266   5.508  25.482  0.00  0.00    +0.005 C 
ATOM      2  C   UNL     1      -1.556   5.354  25.090  0.00  0.00    +0.022 C 
ATOM      3  C   UNL     1      -1.085   5.979  24.829  0.00  0.00    +0.005 C 
ENDBRANCH   4   2
ENDBRANCH   8   7
ENDBRANCH  11   9
ENDBRANCH  12  11
BRANCH  16  20
ATOM     20  N   UNL     1      -1.896  -2.037  25.136  0.00  0.00    -0.074 NA
BRANCH  20  21
ATOM     21  S   UNL     1      -2.612  -2.190  24.755  0.00  0.00    +0.083 S 
ATOM     22  O   UNL     1      -3.016  -1.798  25.359  0.00  0.00    -0.151 OA
ATOM     23  O   UNL     1      -2.208  -2.581  24.152  0.00  0.00    -0.151 OA
BRANCH  21  24
ATOM     24  C   UNL     1      -3.328  -2.342  24.375  0.00  0.00    +0.153 A 
ATOM     25  C   UNL     1      -3.894  -1.779  24.165  0.00  0.00    +0.027 A 
ATOM     26  C   UNL     1      -4.520  -2.172  23.798  0.00  0.00    +0.009 A 
ATOM     27  C   UNL     1      -4.341  -2.977  23.782  0.00  0.00    +0.037 A 
ATOM     28  S   UNL     1      -3.604  -3.082  24.138  0.00  0.00    -0.067 S 
ENDBRANCH  21  24
ENDBRANCH  20  21
ENDBRANCH  16  20
TORSDOF 7
ENDMDL
MODEL 4
REMARK VINA RESULT:      -9.1      4.486      5.529
REMARK  Name = 
REMARK  7 active torsions:
REMARK  status: ('A' for Active; 'I' for Inactive)
REMARK    1  A    between atoms: C_2  and  C_4
REMARK    2  A    between atoms: C_7  and  N_8
REMARK    3  A    between atoms: C_9  and  O_11
REMARK    4  A    between atoms: O_11  and  C_12
REMARK    5  A    between atoms: C_16  and  N_20
REMARK    6  A    between atoms: N_20  and  S_21
REMARK    7  A    between atoms: S_21  and  C_24
REMARK                            x       y       z     vdW  Elec       q    Type
REMARK                         _______ _______ _______ _____ _____    ______ ____
ROOT
ATOM     12  C   UNL     1      -0.374   0.462  24.088  0.00  0.00    +0.229 C 
ATOM     13  C   UNL     1      -0.235   1.270  24.177  0.00  0.00    +0.188 C 
ATOM     14  O   UNL     1       0.467   1.452  23.785  0.00  0.00    -0.348 OA
ATOM     15  C   UNL     1       0.762   0.758  23.453  0.00  0.00    +0.166 C 
ATOM     16  C   UNL     1       1.378   0.440  23.006  0.00  0.00    +0.157 C 
ATOM     17  C   UNL     1       1.239  -0.368  22.916  0.00  0.00    +0.164 C 
ATOM     18  O   UNL     1       0.537  -0.550  23.308  0.00  0.00    -0.348 OA
ATOM     19  C   UNL     1       0.242   0.145  23.640  0.00  0.00    +0.186 C 
ENDROOT
BRANCH  12  11
ATOM     11  O   UNL     1      -1.017   0.044  24.392  0.00  0.00    -0.432 OA
BRANCH  11   9
ATOM      8  N   UNL     1      -2.410   0.289  24.186  0.00  0.00    -0.142 NA
ATOM      9  C   UNL     1      -1.710   0.442  24.595  0.00  0.00    +0.425 C 
ATOM     10  O   UNL     1      -1.703   0.995  25.209  0.00  0.00    -0.224 OA
BRANCH   8   7
ATOM      4  C   UNL     1      -4.489   1.486  24.794  0.00  0.00    -0.022 A 
ATOM      5  C   UNL     1      -3.972   1.812  24.239  0.00  0.00    -0.003 A 
ATOM      6  C   UNL     1      -3.280   1.413  24.037  0.00  0.00    +0.016 A 
ATOM      7  C   UNL     1      -3.103   0.688  24.389  0.00  0.00    +0.077 A 
ATOM     29  C   UNL     1      -3.619   0.363  24.943  0.00  0.00    +0.016 A 
ATOM     30  C   UNL     1      -4.312   0.762  25.146  0.00  0.00    -0.003 A 
BRANCH   4   2
ATOM      1  C   UNL     1      -5.913   1.511  24.915  0.00  0.00    +0.005 C 
ATOM      2  C   UNL     1      -5.182   1.886  24.996  0.00  0.00    +0.022 C 
ATOM      3  C   UNL     1      -5.145   2.659  25.280  0.00  0.00    +0.005 C 
ENDBRANCH   4   2
ENDBRANCH   8   7
ENDBRANCH  11   9
ENDBRANCH  12  11
BRANCH  16  20
ATOM     20  N   UNL     1       2.021   0.858  22.701  0.00  0.00    -0.074 NA
BRANCH  20  21
ATOM     21  S   UNL     1       2.790   0.596  22.846  0.00  0.00    +0.083 S 
ATOM     22  O   UNL     1       2.864   1.150  23.453  0.00  0.00    -0.151 OA
ATOM     23  O   UNL     1       2.716   0.043  22.239  0.00  0.00    -0.151 OA
BRANCH  21  24
ATOM     24  C   UNL     1       3.559   0.335  22.991  0.00  0.00    +0.153 A 
ATOM     25  C   UNL     1       3.769  -0.388  23.329  0.00  0.00    +0.027 A 
ATOM     26  C   UNL     1       4.593  -0.420  23.371  0.00  0.00    +0.009 A 
ATOM     27  C   UNL     1       4.891   0.284  23.060  0.00  0.00    +0.037 A 
ATOM     28  S   UNL     1       4.252   0.751  22.825  0.00  0.00    -0.067 S 
ENDBRANCH  21  24
ENDBRANCH  20  21
ENDBRANCH  16  20
TORSDOF 7
ENDMDL
MODEL 5
REMARK VINA RESULT:      -9.1      4.669      5.913
REMARK  Name = 
REMARK  7 active torsions:
REMARK  status: ('A' for Active; 'I' for Inactive)
REMARK    1  A    between atoms: C_2  and  C_4
REMARK    2  A    between atoms: C_7  and  N_8
REMARK    3  A    between atoms: C_9  and  O_11
REMARK    4  A    between atoms: O_11  and  C_12
REMARK    5  A    between atoms: C_16  and  N_20
REMARK    6  A    between atoms: N_20  and  S_21
REMARK    7  A    between atoms: S_21  and  C_24
REMARK                            x       y       z     vdW  Elec       q    Type
REMARK                         _______ _______ _______ _____ _____    ______ ____
ROOT
ATOM     12  C   UNL     1       0.031   0.293  23.494  0.00  0.00    +0.229 C 
ATOM     13  C   UNL     1       0.063  -0.208  24.149  0.00  0.00    +0.188 C 
ATOM     14  O   UNL     1      -0.615  -0.079  24.601  0.00  0.00    -0.348 OA
ATOM     15  C   UNL     1      -1.065   0.501  24.227  0.00  0.00    +0.166 C 
ATOM     16  C   UNL     1      -1.762   0.941  24.274  0.00  0.00    +0.157 C 
ATOM     17  C   UNL     1      -1.794   1.441  23.619  0.00  0.00    +0.164 C 
ATOM     18  O   UNL     1      -1.116   1.312  23.167  0.00  0.00    -0.348 OA
ATOM     19  C   UNL     1      -0.666   0.731  23.542  0.00  0.00    +0.186 C 
ENDROOT
BRANCH  12  11
ATOM     11  O   UNL     1       0.597   0.346  22.897  0.00  0.00    -0.432 OA
BRANCH  11   9
ATOM      8  N   UNL     1       1.962   0.046  22.596  0.00  0.00    -0.142 NA
ATOM      9  C   UNL     1       1.398   0.391  23.089  0.00  0.00    +0.425 C 
ATOM     10  O   UNL     1       1.635   0.782  23.777  0.00  0.00    -0.224 OA
BRANCH   8   7
ATOM      4  C   UNL     1       4.365   0.182  23.174  0.00  0.00    -0.022 A 
ATOM      5  C   UNL     1       3.988   0.826  22.822  0.00  0.00    -0.003 A 
ATOM      6  C   UNL     1       3.187   0.780  22.629  0.00  0.00    +0.016 A 
ATOM      7  C   UNL     1       2.763   0.091  22.789  0.00  0.00    +0.077 A 
ATOM     29  C   UNL     1       3.140  -0.552  23.141  0.00  0.00    +0.016 A 
ATOM     30  C   UNL     1       3.941  -0.507  23.334  0.00  0.00    -0.003 A 
BRANCH   4   2
ATOM      1  C   UNL     1       5.427   0.791  23.911  0.00  0.00    +0.005 C 
ATOM      2  C   UNL     1       5.165   0.228  23.367  0.00  0.00    +0.022 C 
ATOM      3  C   UNL     1       5.705  -0.288  23.016  0.00  0.00    +0.005 C 
ENDBRANCH   4   2
ENDBRANCH   8   7
ENDBRANCH  11   9
ENDBRANCH  12  11
BRANCH  16  20
ATOM     20  N   UNL     1      -2.328   0.888  24.872  0.00  0.00    -0.074 NA
BRANCH  20  21
ATOM     21  S   UNL     1      -3.023   1.330  24.823  0.00  0.00    +0.083 S 
ATOM     22  O   UNL     1      -2.652   1.954  25.215  0.00  0.00    -0.151 OA
ATOM     23  O   UNL     1      -3.393   0.706  24.430  0.00  0.00    -0.151 OA
BRANCH  21  24
ATOM     24  C   UNL     1      -3.717   1.774  24.774  0.00  0.00    +0.153 A 
ATOM     25  C   UNL     1      -3.774   2.593  24.849  0.00  0.00    +0.027 A 
ATOM     26  C   UNL     1      -4.568   2.802  24.763  0.00  0.00    +0.009 A 
ATOM     27  C   UNL     1      -5.001   2.111  24.636  0.00  0.00    +0.037 A 
ATOM     28  S   UNL     1      -4.475   1.476  24.643  0.00  0.00    -0.067 S 
ENDBRANCH  21  24
ENDBRANCH  20  21
ENDBRANCH  16  20
TORSDOF 7
ENDMDL
MODEL 6
REMARK VINA RESULT:      -8.9      1.892      5.736
REMARK  Name = 
REMARK  7 active torsions:
REMARK  status: ('A' for Active; 'I' for Inactive)
REMARK    1  A    between atoms: C_2  and  C_4
REMARK    2  A    between atoms: C_7  and  N_8
REMARK    3  A    between atoms: C_9  and  O_11
REMARK    4  A    between atoms: O_11  and  C_12
REMARK    5  A    between atoms: C_16  and  N_20
REMARK    6  A    between atoms: N_20  and  S_21
REMARK    7  A    between atoms: S_21  and  C_24
REMARK                            x       y       z     vdW  Elec       q    Type
REMARK                         _______ _______ _______ _____ _____    ______ ____
ROOT
ATOM     12  C   UNL     1      -4.658   1.735  25.089  0.00  0.00    +0.229 C 
ATOM     13  C   UNL     1      -5.092   1.688  24.389  0.00  0.00    +0.188 C 
ATOM     14  O   UNL     1      -5.075   0.904  24.131  0.00  0.00    -0.348 OA
ATOM     15  C   UNL     1      -4.631   0.467  24.671  0.00  0.00    +0.166 C 
ATOM     16  C   UNL     1      -4.345  -0.286  24.846  0.00  0.00    +0.157 C 
ATOM     17  C   UNL     1      -3.911  -0.240  25.545  0.00  0.00    +0.164 C 
ATOM     18  O   UNL     1      -3.928   0.544  25.803  0.00  0.00    -0.348 OA
ATOM     19  C   UNL     1      -4.373   0.981  25.263  0.00  0.00    +0.186 C 
ENDROOT
BRANCH  12  11
ATOM     11  O   UNL     1      -4.531   2.417  25.536  0.00  0.00    -0.432 OA
BRANCH  11   9
ATOM      8  N   UNL     1      -3.294   3.081  25.798  0.00  0.00    -0.142 NA
ATOM      9  C   UNL     1      -3.947   2.955  25.311  0.00  0.00    +0.425 C 
ATOM     10  O   UNL     1      -4.017   3.366  24.599  0.00  0.00    -0.224 OA
BRANCH   8   7
ATOM      4  C   UNL     1      -1.541   4.694  25.125  0.00  0.00    -0.022 A 
ATOM      5  C   UNL     1      -1.417   3.885  25.024  0.00  0.00    -0.003 A 
ATOM      6  C   UNL     1      -2.002   3.347  25.248  0.00  0.00    +0.016 A 
ATOM      7  C   UNL     1      -2.709   3.619  25.574  0.00  0.00    +0.077 A 
ATOM     29  C   UNL     1      -2.833   4.428  25.675  0.00  0.00    +0.016 A 
ATOM     30  C   UNL     1      -2.248   4.966  25.451  0.00  0.00    -0.003 A 
BRANCH   4   2
ATOM      1  C   UNL     1      -0.205   4.960  24.694  0.00  0.00    +0.005 C 
ATOM      2  C   UNL     1      -0.956   5.231  24.900  0.00  0.00    +0.022 C 
ATOM      3  C   UNL     1      -1.123   6.039  24.882  0.00  0.00    +0.005 C 
ENDBRANCH   4   2
ENDBRANCH   8   7
ENDBRANCH  11   9
ENDBRANCH  12  11
BRANCH  16  20
ATOM     20  N   UNL     1      -4.472  -0.969  24.399  0.00  0.00    -0.074 NA
BRANCH  20  21
ATOM     21  S   UNL     1      -3.903  -1.566  24.386  0.00  0.00    +0.083 S 
ATOM     22  O   UNL     1      -3.657  -1.315  23.640  0.00  0.00    -0.151 OA
ATOM     23  O   UNL     1      -4.150  -1.817  25.133  0.00  0.00    -0.151 OA
BRANCH  21  24
ATOM     24  C   UNL     1      -3.334  -2.163  24.373  0.00  0.00    +0.153 A 
ATOM     25  C   UNL     1      -3.481  -2.973  24.427  0.00  0.00    +0.027 A 
ATOM     26  C   UNL     1      -2.756  -3.366  24.390  0.00  0.00    +0.009 A 
ATOM     27  C   UNL     1      -2.162  -2.799  24.315  0.00  0.00    +0.037 A 
ATOM     28  S   UNL     1      -2.519  -2.055  24.304  0.00  0.00    -0.067 S 
ENDBRANCH  21  24
ENDBRANCH  20  21
ENDBRANCH  16  20
TORSDOF 7
ENDMDL
MODEL 7
REMARK VINA RESULT:      -8.8      5.134      6.917
REMARK  Name = 
REMARK  7 active torsions:
REMARK  status: ('A' for Active; 'I' for Inactive)
REMARK    1  A    between atoms: C_2  and  C_4
REMARK    2  A    between atoms: C_7  and  N_8
REMARK    3  A    between atoms: C_9  and  O_11
REMARK    4  A    between atoms: O_11  and  C_12
REMARK    5  A    between atoms: C_16  and  N_20
REMARK    6  A    between atoms: N_20  and  S_21
REMARK    7  A    between atoms: S_21  and  C_24
REMARK                            x       y       z     vdW  Elec       q    Type
REMARK                         _______ _______ _______ _____ _____    ______ ____
ROOT
ATOM     12  C   UNL     1       0.486   0.526  23.415  0.00  0.00    +0.229 C 
ATOM     13  C   UNL     1       0.270   1.153  23.906  0.00  0.00    +0.188 C 
ATOM     14  O   UNL     1      -0.341   0.894  24.395  0.00  0.00    -0.348 OA
ATOM     15  C   UNL     1      -0.505   0.109  24.207  0.00  0.00    +0.166 C 
ATOM     16  C   UNL     1      -0.983  -0.537  24.392  0.00  0.00    +0.157 C 
ATOM     17  C   UNL     1      -0.768  -1.164  23.901  0.00  0.00    +0.164 C 
ATOM     18  O   UNL     1      -0.156  -0.906  23.412  0.00  0.00    -0.348 OA
ATOM     19  C   UNL     1       0.007  -0.119  23.601  0.00  0.00    +0.186 C 
ENDROOT
BRANCH  12  11
ATOM     11  O   UNL     1       1.076   0.542  22.839  0.00  0.00    -0.432 OA
BRANCH  11   9
ATOM      8  N   UNL     1       2.420   0.088  22.668  0.00  0.00    -0.142 NA
ATOM      9  C   UNL     1       1.871   0.559  23.062  0.00  0.00    +0.425 C 
ATOM     10  O   UNL     1       2.114   1.047  23.682  0.00  0.00    -0.224 OA
BRANCH   8   7
ATOM      4  C   UNL     1       4.802   0.137  23.338  0.00  0.00    -0.022 A 
ATOM      5  C   UNL     1       4.335  -0.517  23.523  0.00  0.00    -0.003 A 
ATOM      6  C   UNL     1       3.541  -0.533  23.300  0.00  0.00    +0.016 A 
ATOM      7  C   UNL     1       3.215   0.105  22.891  0.00  0.00    +0.077 A 
ATOM     29  C   UNL     1       3.682   0.758  22.706  0.00  0.00    +0.016 A 
ATOM     30  C   UNL     1       4.476   0.775  22.930  0.00  0.00    -0.003 A 
BRANCH   4   2
ATOM      1  C   UNL     1       6.160  -0.245  23.109  0.00  0.00    +0.005 C 
ATOM      2  C   UNL     1       5.596   0.153  23.562  0.00  0.00    +0.022 C 
ATOM      3  C   UNL     1       5.827   0.566  24.238  0.00  0.00    +0.005 C 
ENDBRANCH   4   2
ENDBRANCH   8   7
ENDBRANCH  11   9
ENDBRANCH  12  11
BRANCH  16  20
ATOM     20  N   UNL     1      -1.574  -0.553  24.968  0.00  0.00    -0.074 NA
BRANCH  20  21
ATOM     21  S   UNL     1      -2.264  -0.987  24.839  0.00  0.00    +0.083 S 
ATOM     22  O   UNL     1      -1.892  -1.664  25.128  0.00  0.00    -0.151 OA
ATOM     23  O   UNL     1      -2.636  -0.309  24.550  0.00  0.00    -0.151 OA
BRANCH  21  24
ATOM     24  C   UNL     1      -2.954  -1.420  24.711  0.00  0.00    +0.153 A 
ATOM     25  C   UNL     1      -3.602  -1.177  24.263  0.00  0.00    +0.027 A 
ATOM     26  C   UNL     1      -4.166  -1.780  24.283  0.00  0.00    +0.009 A 
ATOM     27  C   UNL     1      -3.865  -2.394  24.744  0.00  0.00    +0.037 A 
ATOM     28  S   UNL     1      -3.116  -2.173  25.009  0.00  0.00    -0.067 S 
ENDBRANCH  21  24
ENDBRANCH  20  21
ENDBRANCH  16  20
TORSDOF 7
ENDMDL
MODEL 8
REMARK VINA RESULT:      -7.7     14.431     16.461
REMARK  Name = 
REMARK  7 active torsions:
REMARK  status: ('A' for Active; 'I' for Inactive)
REMARK    1  A    between atoms: C_2  and  C_4
REMARK    2  A    between atoms: C_7  and  N_8
REMARK    3  A    between atoms: C_9  and  O_11
REMARK    4  A    between atoms: O_11  and  C_12
REMARK    5  A    between atoms: C_16  and  N_20
REMARK    6  A    between atoms: N_20  and  S_21
REMARK    7  A    between atoms: S_21  and  C_24
REMARK                            x       y       z     vdW  Elec       q    Type
REMARK                         _______ _______ _______ _____ _____    ______ ____
ROOT
ATOM     12  C   UNL     1      -6.156 -10.385  14.524  0.00  0.00    +0.229 C 
ATOM     13  C   UNL     1      -5.564 -10.021  14.968  0.00  0.00    +0.188 C 
ATOM     14  O   UNL     1      -5.914  -9.694  15.640  0.00  0.00    -0.348 OA
ATOM     15  C   UNL     1      -6.722  -9.855  15.611  0.00  0.00    +0.166 C 
ATOM     16  C   UNL     1      -7.438  -9.754  16.008  0.00  0.00    +0.157 C 
ATOM     17  C   UNL     1      -8.030 -10.118  15.564  0.00  0.00    +0.164 C 
ATOM     18  O   UNL     1      -7.680 -10.444  14.892  0.00  0.00    -0.348 OA
ATOM     19  C   UNL     1      -6.872 -10.282  14.921  0.00  0.00    +0.186 C 
ENDROOT
BRANCH  12  11
ATOM     11  O   UNL     1      -6.051 -10.781  13.808  0.00  0.00    -0.432 OA
BRANCH  11   9
ATOM      8  N   UNL     1      -5.738 -10.448  12.455  0.00  0.00    -0.142 NA
ATOM      9  C   UNL     1      -5.520 -10.489  13.249  0.00  0.00    +0.425 C 
ATOM     10  O   UNL     1      -4.769 -10.238  13.485  0.00  0.00    -0.224 OA
BRANCH   8   7
ATOM      4  C   UNL     1      -4.144  -9.572  10.776  0.00  0.00    -0.022 A 
ATOM      5  C   UNL     1      -4.071 -10.347  11.049  0.00  0.00    -0.003 A 
ATOM      6  C   UNL     1      -4.603 -10.639  11.608  0.00  0.00    +0.016 A 
ATOM      7  C   UNL     1      -5.207 -10.155  11.895  0.00  0.00    +0.077 A 
ATOM     29  C   UNL     1      -5.279  -9.381  11.622  0.00  0.00    +0.016 A 
ATOM     30  C   UNL     1      -4.748  -9.088  11.062  0.00  0.00    -0.003 A 
BRANCH   4   2
ATOM      1  C   UNL     1      -2.809  -9.233  10.397  0.00  0.00    +0.005 C 
ATOM      2  C   UNL     1      -3.612  -9.280  10.216  0.00  0.00    +0.022 C 
ATOM      3  C   UNL     1      -3.884  -9.037   9.476  0.00  0.00    +0.005 C 
ENDBRANCH   4   2
ENDBRANCH   8   7
ENDBRANCH  11   9
ENDBRANCH  12  11
BRANCH  16  20
ATOM     20  N   UNL     1      -7.544  -9.357  16.724  0.00  0.00    -0.074 NA
BRANCH  20  21
ATOM     21  S   UNL     1      -8.302  -9.258  17.033  0.00  0.00    +0.083 S 
ATOM     22  O   UNL     1      -8.214  -9.952  17.470  0.00  0.00    -0.151 OA
ATOM     23  O   UNL     1      -8.389  -8.563  16.596  0.00  0.00    -0.151 OA
BRANCH  21  24
ATOM     24  C   UNL     1      -9.060  -9.159  17.343  0.00  0.00    +0.153 A 
ATOM     25  C   UNL     1      -9.543  -8.498  17.241  0.00  0.00    +0.027 A 
ATOM     26  C   UNL     1     -10.250  -8.634  17.644  0.00  0.00    +0.009 A 
ATOM     27  C   UNL     1     -10.204  -9.379  17.994  0.00  0.00    +0.037 A 
ATOM     28  S   UNL     1      -9.469  -9.704  17.809  0.00  0.00    -0.067 S 
ENDBRANCH  21  24
ENDBRANCH  20  21
ENDBRANCH  16  20
TORSDOF 7
ENDMDL
MODEL 9
REMARK VINA RESULT:      -7.6     17.890     18.733
REMARK  Name = 
REMARK  7 active torsions:
REMARK  status: ('A' for Active; 'I' for Inactive)
REMARK    1  A    between atoms: C_2  and  C_4
REMARK    2  A    between atoms: C_7  and  N_8
REMARK    3  A    between atoms: C_9  and  O_11
REMARK    4  A    between atoms: O_11  and  C_12
REMARK    5  A    between atoms: C_16  and  N_20
REMARK    6  A    between atoms: N_20  and  S_21
REMARK    7  A    between atoms: S_21  and  C_24
REMARK                            x       y       z     vdW  Elec       q    Type
REMARK                         _______ _______ _______ _____ _____    ______ ____
ROOT
ATOM     12  C   UNL     1      -6.279  -9.078   9.661  0.00  0.00    +0.229 C 
ATOM     13  C   UNL     1      -5.830  -8.921   8.988  0.00  0.00    +0.188 C 
ATOM     14  O   UNL     1      -6.280  -8.444   8.488  0.00  0.00    -0.348 OA
ATOM     15  C   UNL     1      -7.006  -8.305   8.852  0.00  0.00    +0.166 C 
ATOM     16  C   UNL     1      -7.734  -7.925   8.769  0.00  0.00    +0.157 C 
ATOM     17  C   UNL     1      -8.183  -8.082   9.442  0.00  0.00    +0.164 C 
ATOM     18  O   UNL     1      -7.733  -8.559   9.942  0.00  0.00    -0.348 OA
ATOM     19  C   UNL     1      -7.006  -8.697   9.577  0.00  0.00    +0.186 C 
ENDROOT
BRANCH  12  11
ATOM     11  O   UNL     1      -6.043  -9.535  10.306  0.00  0.00    -0.432 OA
BRANCH  11   9
ATOM      8  N   UNL     1      -4.825 -10.187  10.674  0.00  0.00    -0.142 NA
ATOM      9  C   UNL     1      -5.264  -9.496  10.577  0.00  0.00    +0.425 C 
ATOM     10  O   UNL     1      -4.925  -8.763  10.751  0.00  0.00    -0.224 OA
BRANCH   8   7
ATOM      4  C   UNL     1      -2.490 -10.069  11.487  0.00  0.00    -0.022 A 
ATOM      5  C   UNL     1      -3.089 -10.337  11.988  0.00  0.00    -0.003 A 
ATOM      6  C   UNL     1      -3.867 -10.376  11.716  0.00  0.00    +0.016 A 
ATOM      7  C   UNL     1      -4.047 -10.147  10.944  0.00  0.00    +0.077 A 
ATOM     29  C   UNL     1      -3.449  -9.879  10.444  0.00  0.00    +0.016 A 
ATOM     30  C   UNL     1      -2.670  -9.840  10.715  0.00  0.00    -0.003 A 
BRANCH   4   2
ATOM      1  C   UNL     1      -1.180  -9.504  11.409  0.00  0.00    +0.005 C 
ATOM      2  C   UNL     1      -1.712 -10.030  11.758  0.00  0.00    +0.022 C 
ATOM      3  C   UNL     1      -1.466 -10.515  12.378  0.00  0.00    +0.005 C 
ENDBRANCH   4   2
ENDBRANCH   8   7
ENDBRANCH  11   9
ENDBRANCH  12  11
BRANCH  16  20
ATOM     20  N   UNL     1      -7.970  -7.468   8.124  0.00  0.00    -0.074 NA
BRANCH  20  21
ATOM     21  S   UNL     1      -8.505  -6.848   8.230  0.00  0.00    +0.083 S 
ATOM     22  O   UNL     1      -9.133  -7.374   8.129  0.00  0.00    -0.151 OA
ATOM     23  O   UNL     1      -7.877  -6.323   8.331  0.00  0.00    -0.151 OA
BRANCH  21  24
ATOM     24  C   UNL     1      -9.040  -6.230   8.337  0.00  0.00    +0.153 A 
ATOM     25  C   UNL     1      -8.847  -5.448   8.517  0.00  0.00    +0.027 A 
ATOM     26  C   UNL     1      -9.550  -5.019   8.574  0.00  0.00    +0.009 A 
ATOM     27  C   UNL     1     -10.176  -5.536   8.429  0.00  0.00    +0.037 A 
ATOM     28  S   UNL     1      -9.862  -6.284   8.283  0.00  0.00    -0.067 S 
ENDBRANCH  21  24
ENDBRANCH  20  21
ENDBRANCH  16  20
TORSDOF 7
ENDMDL
MODEL 10
REMARK VINA RESULT:      -7.3     14.252     16.688
REMARK  Name = 
REMARK  7 active torsions:
REMARK  status: ('A' for Active; 'I' for Inactive)
REMARK    1  A    between atoms: C_2  and  C_4
REMARK    2  A    between atoms: C_7  and  N_8
REMARK    3  A    between atoms: C_9  and  O_11
REMARK    4  A    between atoms: O_11  and  C_12
REMARK    5  A    between atoms: C_16  and  N_20
REMARK    6  A    between atoms: N_20  and  S_21
REMARK    7  A    between atoms: S_21  and  C_24
REMARK                            x       y       z     vdW  Elec       q    Type
REMARK                         _______ _______ _______ _____ _____    ______ ____
ROOT
ATOM     12  C   UNL     1      -5.541 -10.328  14.077  0.00  0.00    +0.229 C 
ATOM     13  C   UNL     1      -6.284 -10.124  13.782  0.00  0.00    +0.188 C 
ATOM     14  O   UNL     1      -6.771  -9.943  14.422  0.00  0.00    -0.348 OA
ATOM     15  C   UNL     1      -6.331 -10.034  15.112  0.00  0.00    +0.166 C 
ATOM     16  C   UNL     1      -6.359  -9.979  15.935  0.00  0.00    +0.157 C 
ATOM     17  C   UNL     1      -5.616 -10.182  16.231  0.00  0.00    +0.164 C 
ATOM     18  O   UNL     1      -5.129 -10.364  15.591  0.00  0.00    -0.348 OA
ATOM     19  C   UNL     1      -5.570 -10.272  14.899  0.00  0.00    +0.186 C 
ENDROOT
BRANCH  12  11
ATOM     11  O   UNL     1      -4.884 -10.548  13.629  0.00  0.00    -0.432 OA
BRANCH  11   9
ATOM      8  N   UNL     1      -4.296  -9.976  12.459  0.00  0.00    -0.142 NA
ATOM      9  C   UNL     1      -4.885 -10.433  12.812  0.00  0.00    +0.425 C 
ATOM     10  O   UNL     1      -5.475 -10.776  12.348  0.00  0.00    -0.224 OA
BRANCH   8   7
ATOM      4  C   UNL     1      -4.298  -9.630  10.008  0.00  0.00    -0.022 A 
ATOM      5  C   UNL     1      -4.729  -9.123  10.497  0.00  0.00    -0.003 A 
ATOM      6  C   UNL     1      -4.728  -9.239  11.314  0.00  0.00    +0.016 A 
ATOM      7  C   UNL     1      -4.297  -9.861  11.642  0.00  0.00    +0.077 A 
ATOM     29  C   UNL     1      -3.867 -10.367  11.153  0.00  0.00    +0.016 A 
ATOM     30  C   UNL     1      -3.867 -10.252  10.336  0.00  0.00    -0.003 A 
BRANCH   4   2
ATOM      1  C   UNL     1      -4.549 -10.119   8.689  0.00  0.00    +0.005 C 
ATOM      2  C   UNL     1      -4.299  -9.514   9.191  0.00  0.00    +0.022 C 
ATOM      3  C   UNL     1      -4.050  -8.793   8.876  0.00  0.00    +0.005 C 
ENDBRANCH   4   2
ENDBRANCH   8   7
ENDBRANCH  11   9
ENDBRANCH  12  11
BRANCH  16  20
ATOM     20  N   UNL     1      -7.016  -9.759  16.384  0.00  0.00    -0.074 NA
BRANCH  20  21
ATOM     21  S   UNL     1      -7.077  -9.997  17.171  0.00  0.00    +0.083 S 
ATOM     22  O   UNL     1      -7.428 -10.703  16.930  0.00  0.00    -0.151 OA
ATOM     23  O   UNL     1      -6.725  -9.290  17.412  0.00  0.00    -0.151 OA
BRANCH  21  24
ATOM     24  C   UNL     1      -7.138 -10.236  17.959  0.00  0.00    +0.153 A 
ATOM     25  C   UNL     1      -6.580 -10.098  18.551  0.00  0.00    +0.027 A 
ATOM     26  C   UNL     1      -6.864 -10.431  19.251  0.00  0.00    +0.009 A 
ATOM     27  C   UNL     1      -7.597 -10.774  19.090  0.00  0.00    +0.037 A 
ATOM     28  S   UNL     1      -7.766 -10.653  18.291  0.00  0.00    -0.067 S 
ENDBRANCH  21  24
ENDBRANCH  20  21
ENDBRANCH  16  20
TORSDOF 7
ENDMDL
