MODEL 1
REMARK VINA RESULT:     -11.8      0.000      0.000
REMARK  Name = 
REMARK  5 active torsions:
REMARK  status: ('A' for Active; 'I' for Inactive)
REMARK    1  A    between atoms: O_2  and  C_3
REMARK    2  A    between atoms: C_8  and  C_9
REMARK    3  A    between atoms: C_12  and  C_14
REMARK    4  A    between atoms: N_17  and  C_18
REMARK    5  A    between atoms: C_18  and  C_19
REMARK                            x       y       z     vdW  Elec       q    Type
REMARK                         _______ _______ _______ _____ _____    ______ ____
ROOT
ATOM     14  C   UNL     1      -0.768   0.933  25.290  0.00  0.00    +0.096 C 
ATOM     15  C   UNL     1      -0.474   0.574  24.608  0.00  0.00    +0.028 C 
ATOM     16  C   UNL     1      -0.694  -0.221  24.623  0.00  0.00    +0.073 C 
ATOM     17  N   UNL     1      -1.125  -0.353  25.314  0.00  0.00    -0.268 NA
ATOM     28  C   UNL     1      -1.170   0.361  25.726  0.00  0.00    +0.082 C 
ENDROOT
BRANCH  14  12
ATOM      9  C   UNL     1      -0.786   3.056  25.511  0.00  0.00    +0.252 A 
ATOM     10  N   UNL     1      -0.283   2.836  26.128  0.00  0.00    -0.107 NA
ATOM     11  N   UNL     1      -0.216   2.014  26.119  0.00  0.00    -0.111 NA
ATOM     12  C   UNL     1      -0.676   1.726  25.499  0.00  0.00    +0.227 A 
ATOM     13  O   UNL     1      -1.028   2.370  25.123  0.00  0.00    -0.419 OA
BRANCH   9   8
ATOM      3  C   UNL     1      -1.742   4.116  25.551  0.00  0.00    +0.143 A 
ATOM      4  C   UNL     1      -1.964   4.887  25.358  0.00  0.00    +0.037 A 
ATOM      5  C   UNL     1      -1.449   5.369  24.931  0.00  0.00    +0.003 A 
ATOM      6  C   UNL     1      -0.712   5.080  24.697  0.00  0.00    +0.000 A 
ATOM      7  C   UNL     1      -0.490   4.310  24.890  0.00  0.00    +0.008 A 
ATOM      8  C   UNL     1      -1.007   3.827  25.318  0.00  0.00    +0.089 A 
BRANCH   3   2
ATOM      1  C   UNL     1      -3.007   3.913  26.187  0.00  0.00    +0.252 C 
ATOM      2  O   UNL     1      -2.259   3.634  25.978  0.00  0.00    -0.471 OA
ENDBRANCH   3   2
ENDBRANCH   9   8
ENDBRANCH  14  12
BRANCH  17  18
ATOM     18  C   UNL     1      -1.452  -1.072  25.551  0.00  0.00    +0.099 C 
BRANCH  18  19
ATOM     19  C   UNL     1      -2.211  -1.283  25.301  0.00  0.00    -0.003 A 
ATOM     20  C   UNL     1      -2.872  -0.973  25.685  0.00  0.00    +0.000 A 
ATOM     21  C   UNL     1      -3.629  -1.184  25.435  0.00  0.00    +0.040 A 
ATOM     22  C   UNL     1      -3.726  -1.704  24.802  0.00  0.00    +0.176 A 
ATOM     23  O   UNL     1      -4.398  -2.010  24.436  0.00  0.00    -0.435 OA
ATOM     24  C   UNL     1      -4.153  -2.508  23.826  0.00  0.00    +0.429 C 
ATOM     25  O   UNL     1      -3.328  -2.510  23.816  0.00  0.00    -0.435 OA
ATOM     26  C   UNL     1      -3.064  -2.014  24.418  0.00  0.00    +0.176 A 
ATOM     27  C   UNL     1      -2.306  -1.803  24.668  0.00  0.00    +0.037 A 
ENDBRANCH  18  19
ENDBRANCH  17  18
TORSDOF 5
ENDMDL
MODEL 2
REMARK VINA RESULT:     -11.8      1.774      2.484
REMARK  Name = 
REMARK  5 active torsions:
REMARK  status: ('A' for Active; 'I' for Inactive)
REMARK    1  A    between atoms: O_2  and  C_3
REMARK    2  A    between atoms: C_8  and  C_9
REMARK    3  A    between atoms: C_12  and  C_14
REMARK    4  A    between atoms: N_17  and  C_18
REMARK    5  A    between atoms: C_18  and  C_19
REMARK                            x       y       z     vdW  Elec       q    Type
REMARK                         _______ _______ _______ _____ _____    ______ ____
ROOT
ATOM     14  C   UNL     1      -3.870   1.338  24.744  0.00  0.00    +0.096 C 
ATOM     15  C   UNL     1      -4.671   1.167  24.645  0.00  0.00    +0.028 C 
ATOM     16  C   UNL     1      -4.810   0.413  24.949  0.00  0.00    +0.073 C 
ATOM     17  N   UNL     1      -4.096   0.118  25.236  0.00  0.00    -0.268 NA
ATOM     28  C   UNL     1      -3.514   0.690  25.109  0.00  0.00    +0.082 C 
ENDROOT
BRANCH  14  12
ATOM      9  C   UNL     1      -2.709   3.117  24.529  0.00  0.00    +0.252 A 
ATOM     10  N   UNL     1      -3.108   3.099  23.806  0.00  0.00    -0.107 NA
ATOM     11  N   UNL     1      -3.591   2.430  23.800  0.00  0.00    -0.111 NA
ATOM     12  C   UNL     1      -3.491   2.035  24.517  0.00  0.00    +0.227 A 
ATOM     13  O   UNL     1      -2.946   2.460  24.968  0.00  0.00    -0.419 OA
BRANCH   9   8
ATOM      3  C   UNL     1      -1.363   3.578  24.644  0.00  0.00    +0.143 A 
ATOM      4  C   UNL     1      -0.821   4.152  24.884  0.00  0.00    +0.037 A 
ATOM      5  C   UNL     1      -1.087   4.841  25.252  0.00  0.00    +0.003 A 
ATOM      6  C   UNL     1      -1.895   4.955  25.378  0.00  0.00    +0.000 A 
ATOM      7  C   UNL     1      -2.436   4.381  25.138  0.00  0.00    +0.008 A 
ATOM      8  C   UNL     1      -2.169   3.691  24.770  0.00  0.00    +0.089 A 
BRANCH   3   2
ATOM      1  C   UNL     1      -0.286   2.755  24.186  0.00  0.00    +0.252 C 
ATOM      2  O   UNL     1      -1.095   2.888  24.276  0.00  0.00    -0.471 OA
ENDBRANCH   3   2
ENDBRANCH   9   8
ENDBRANCH  14  12
BRANCH  17  18
ATOM     18  C   UNL     1      -3.982  -0.619  25.588  0.00  0.00    +0.099 C 
BRANCH  18  19
ATOM     19  C   UNL     1      -3.557  -1.205  25.190  0.00  0.00    -0.003 A 
ATOM     20  C   UNL     1      -3.947  -1.726  24.683  0.00  0.00    +0.000 A 
ATOM     21  C   UNL     1      -3.522  -2.311  24.287  0.00  0.00    +0.040 A 
ATOM     22  C   UNL     1      -2.707  -2.376  24.396  0.00  0.00    +0.176 A 
ATOM     23  O   UNL     1      -2.147  -2.893  24.083  0.00  0.00    -0.435 OA
ATOM     24  C   UNL     1      -1.411  -2.693  24.396  0.00  0.00    +0.429 C 
ATOM     25  O   UNL     1      -1.516  -2.051  24.903  0.00  0.00    -0.435 OA
ATOM     26  C   UNL     1      -2.317  -1.856  24.904  0.00  0.00    +0.176 A 
ATOM     27  C   UNL     1      -2.742  -1.270  25.301  0.00  0.00    +0.037 A 
ENDBRANCH  18  19
ENDBRANCH  17  18
TORSDOF 5
ENDMDL
MODEL 3
REMARK VINA RESULT:     -11.8      1.935      5.918
REMARK  Name = 
REMARK  5 active torsions:
REMARK  status: ('A' for Active; 'I' for Inactive)
REMARK    1  A    between atoms: O_2  and  C_3
REMARK    2  A    between atoms: C_8  and  C_9
REMARK    3  A    between atoms: C_12  and  C_14
REMARK    4  A    between atoms: N_17  and  C_18
REMARK    5  A    between atoms: C_18  and  C_19
REMARK                            x       y       z     vdW  Elec       q    Type
REMARK                         _______ _______ _______ _____ _____    ______ ____
ROOT
ATOM     14  C   UNL     1      -4.402   1.275  24.650  0.00  0.00    +0.096 C 
ATOM     15  C   UNL     1      -5.031   1.324  25.182  0.00  0.00    +0.028 C 
ATOM     16  C   UNL     1      -5.141   2.118  25.373  0.00  0.00    +0.073 C 
ATOM     17  N   UNL     1      -4.581   2.560  24.960  0.00  0.00    -0.268 NA
ATOM     28  C   UNL     1      -4.123   2.038  24.513  0.00  0.00    +0.082 C 
ENDROOT
BRANCH  14  12
ATOM      9  C   UNL     1      -3.736  -0.690  24.145  0.00  0.00    +0.252 A 
ATOM     10  N   UNL     1      -3.554  -0.277  23.453  0.00  0.00    -0.107 NA
ATOM     11  N   UNL     1      -3.782   0.509  23.559  0.00  0.00    -0.111 NA
ATOM     12  C   UNL     1      -4.104   0.582  24.315  0.00  0.00    +0.227 A 
ATOM     13  O   UNL     1      -4.075  -0.159  24.677  0.00  0.00    -0.419 OA
BRANCH   9   8
ATOM      3  C   UNL     1      -2.899  -1.739  24.631  0.00  0.00    +0.143 A 
ATOM      4  C   UNL     1      -2.763  -2.542  24.767  0.00  0.00    +0.037 A 
ATOM      5  C   UNL     1      -3.333  -3.098  24.550  0.00  0.00    +0.003 A 
ATOM      6  C   UNL     1      -4.037  -2.851  24.197  0.00  0.00    +0.000 A 
ATOM      7  C   UNL     1      -4.172  -2.049  24.062  0.00  0.00    +0.008 A 
ATOM      8  C   UNL     1      -3.602  -1.492  24.280  0.00  0.00    +0.089 A 
BRANCH   3   2
ATOM      1  C   UNL     1      -1.606  -1.433  25.160  0.00  0.00    +0.252 C 
ATOM      2  O   UNL     1      -2.328  -1.183  24.849  0.00  0.00    -0.471 OA
ENDBRANCH   3   2
ENDBRANCH   9   8
ENDBRANCH  14  12
BRANCH  17  18
ATOM     18  C   UNL     1      -4.492   3.380  24.989  0.00  0.00    +0.099 C 
BRANCH  18  19
ATOM     19  C   UNL     1      -3.777   3.710  25.237  0.00  0.00    -0.003 A 
ATOM     20  C   UNL     1      -3.640   3.840  26.040  0.00  0.00    +0.000 A 
ATOM     21  C   UNL     1      -2.926   4.169  26.288  0.00  0.00    +0.040 A 
ATOM     22  C   UNL     1      -2.348   4.369  25.733  0.00  0.00    +0.176 A 
ATOM     23  O   UNL     1      -1.597   4.700  25.812  0.00  0.00    -0.435 OA
ATOM     24  C   UNL     1      -1.270   4.774  25.059  0.00  0.00    +0.429 C 
ATOM     25  O   UNL     1      -1.820   4.489  24.514  0.00  0.00    -0.435 OA
ATOM     26  C   UNL     1      -2.486   4.239  24.930  0.00  0.00    +0.176 A 
ATOM     27  C   UNL     1      -3.201   3.909  24.682  0.00  0.00    +0.037 A 
ENDBRANCH  18  19
ENDBRANCH  17  18
TORSDOF 5
ENDMDL
MODEL 4
REMARK VINA RESULT:     -11.4      1.001      5.334
REMARK  Name = 
REMARK  5 active torsions:
REMARK  status: ('A' for Active; 'I' for Inactive)
REMARK    1  A    between atoms: O_2  and  C_3
REMARK    2  A    between atoms: C_8  and  C_9
REMARK    3  A    between atoms: C_12  and  C_14
REMARK    4  A    between atoms: N_17  and  C_18
REMARK    5  A    between atoms: C_18  and  C_19
REMARK                            x       y       z     vdW  Elec       q    Type
REMARK                         _______ _______ _______ _____ _____    ______ ____
ROOT
ATOM     14  C   UNL     1      -0.991   0.506  25.165  0.00  0.00    +0.096 C 
ATOM     15  C   UNL     1      -0.447   0.611  24.553  0.00  0.00    +0.028 C 
ATOM     16  C   UNL     1      -0.061   1.329  24.675  0.00  0.00    +0.073 C 
ATOM     17  N   UNL     1      -0.365   1.668  25.362  0.00  0.00    -0.268 NA
ATOM     28  C   UNL     1      -0.940   1.159  25.665  0.00  0.00    +0.082 C 
ENDROOT
BRANCH  14  12
ATOM      9  C   UNL     1      -2.424  -1.070  25.024  0.00  0.00    +0.252 A 
ATOM     10  N   UNL     1      -2.123  -1.196  25.783  0.00  0.00    -0.107 NA
ATOM     11  N   UNL     1      -1.549  -0.620  25.927  0.00  0.00    -0.111 NA
ATOM     12  C   UNL     1      -1.496  -0.140  25.259  0.00  0.00    +0.227 A 
ATOM     13  O   UNL     1      -2.036  -0.418  24.701  0.00  0.00    -0.419 OA
BRANCH   9   8
ATOM      3  C   UNL     1      -3.743  -1.182  24.489  0.00  0.00    +0.143 A 
ATOM      4  C   UNL     1      -4.329  -1.630  24.119  0.00  0.00    +0.037 A 
ATOM      5  C   UNL     1      -4.181  -2.416  23.917  0.00  0.00    +0.003 A 
ATOM      6  C   UNL     1      -3.446  -2.753  24.084  0.00  0.00    +0.000 A 
ATOM      7  C   UNL     1      -2.861  -2.305  24.453  0.00  0.00    +0.008 A 
ATOM      8  C   UNL     1      -3.009  -1.518  24.655  0.00  0.00    +0.089 A 
BRANCH   3   2
ATOM      1  C   UNL     1      -4.636  -0.067  24.553  0.00  0.00    +0.252 C 
ATOM      2  O   UNL     1      -3.892  -0.395  24.691  0.00  0.00    -0.471 OA
ENDBRANCH   3   2
ENDBRANCH   9   8
ENDBRANCH  14  12
BRANCH  17  18
ATOM     18  C   UNL     1      -0.136   2.390  25.690  0.00  0.00    +0.099 C 
BRANCH  18  19
ATOM     19  C   UNL     1      -0.562   3.076  25.518  0.00  0.00    -0.003 A 
ATOM     20  C   UNL     1      -0.275   3.610  24.958  0.00  0.00    +0.000 A 
ATOM     21  C   UNL     1      -0.701   4.294  24.786  0.00  0.00    +0.040 A 
ATOM     22  C   UNL     1      -1.413   4.447  25.173  0.00  0.00    +0.176 A 
ATOM     23  O   UNL     1      -1.949   5.070  25.119  0.00  0.00    -0.435 OA
ATOM     24  C   UNL     1      -2.567   4.923  25.645  0.00  0.00    +0.429 C 
ATOM     25  O   UNL     1      -2.413   4.207  26.025  0.00  0.00    -0.435 OA
ATOM     26  C   UNL     1      -1.700   3.913  25.733  0.00  0.00    +0.176 A 
ATOM     27  C   UNL     1      -1.274   3.227  25.906  0.00  0.00    +0.037 A 
ENDBRANCH  18  19
ENDBRANCH  17  18
TORSDOF 5
ENDMDL
MODEL 5
REMARK VINA RESULT:     -10.7      2.068      4.510
REMARK  Name = 
REMARK  5 active torsions:
REMARK  status: ('A' for Active; 'I' for Inactive)
REMARK    1  A    between atoms: O_2  and  C_3
REMARK    2  A    between atoms: C_8  and  C_9
REMARK    3  A    between atoms: C_12  and  C_14
REMARK    4  A    between atoms: N_17  and  C_18
REMARK    5  A    between atoms: C_18  and  C_19
REMARK                            x       y       z     vdW  Elec       q    Type
REMARK                         _______ _______ _______ _____ _____    ______ ____
ROOT
ATOM     14  C   UNL     1      -1.773   2.792  25.195  0.00  0.00    +0.096 C 
ATOM     15  C   UNL     1      -1.644   3.543  25.512  0.00  0.00    +0.028 C 
ATOM     16  C   UNL     1      -2.298   4.011  25.330  0.00  0.00    +0.073 C 
ATOM     17  N   UNL     1      -2.831   3.551  24.902  0.00  0.00    -0.268 NA
ATOM     28  C   UNL     1      -2.506   2.796  24.818  0.00  0.00    +0.082 C 
ENDROOT
BRANCH  14  12
ATOM      9  C   UNL     1      -0.771   0.907  25.210  0.00  0.00    +0.252 A 
ATOM     10  N   UNL     1      -0.160   1.414  25.442  0.00  0.00    -0.107 NA
ATOM     11  N   UNL     1      -0.463   2.181  25.464  0.00  0.00    -0.111 NA
ATOM     12  C   UNL     1      -1.258   2.149  25.246  0.00  0.00    +0.227 A 
ATOM     13  O   UNL     1      -1.448   1.362  25.090  0.00  0.00    -0.419 OA
BRANCH   9   8
ATOM      3  C   UNL     1      -0.338  -0.223  24.451  0.00  0.00    +0.143 A 
ATOM      4  C   UNL     1      -0.279  -1.040  24.356  0.00  0.00    +0.037 A 
ATOM      5  C   UNL     1      -0.594  -1.546  24.927  0.00  0.00    +0.003 A 
ATOM      6  C   UNL     1      -0.968  -1.232  25.593  0.00  0.00    +0.000 A 
ATOM      7  C   UNL     1      -1.027  -0.416  25.688  0.00  0.00    +0.008 A 
ATOM      8  C   UNL     1      -0.712   0.090  25.116  0.00  0.00    +0.089 A 
BRANCH   3   2
ATOM      1  C   UNL     1       0.382  -0.029  23.231  0.00  0.00    +0.252 C 
ATOM      2  O   UNL     1      -0.022   0.282  23.879  0.00  0.00    -0.471 OA
ENDBRANCH   3   2
ENDBRANCH   9   8
ENDBRANCH  14  12
BRANCH  17  18
ATOM     18  C   UNL     1      -3.560   3.799  24.608  0.00  0.00    +0.099 C 
BRANCH  18  19
ATOM     19  C   UNL     1      -4.257   3.454  24.885  0.00  0.00    -0.003 A 
ATOM     20  C   UNL     1      -4.654   3.785  25.528  0.00  0.00    +0.000 A 
ATOM     21  C   UNL     1      -5.350   3.439  25.805  0.00  0.00    +0.040 A 
ATOM     22  C   UNL     1      -5.649   2.763  25.440  0.00  0.00    +0.176 A 
ATOM     23  O   UNL     1      -6.317   2.304  25.589  0.00  0.00    -0.435 OA
ATOM     24  C   UNL     1      -6.334   1.690  25.039  0.00  0.00    +0.429 C 
ATOM     25  O   UNL     1      -5.675   1.769  24.549  0.00  0.00    -0.435 OA
ATOM     26  C   UNL     1      -5.252   2.432  24.797  0.00  0.00    +0.176 A 
ATOM     27  C   UNL     1      -4.556   2.778  24.519  0.00  0.00    +0.037 A 
ENDBRANCH  18  19
ENDBRANCH  17  18
TORSDOF 5
ENDMDL
MODEL 6
REMARK VINA RESULT:      -8.4     15.757     17.993
REMARK  Name = 
REMARK  5 active torsions:
REMARK  status: ('A' for Active; 'I' for Inactive)
REMARK    1  A    between atoms: O_2  and  C_3
REMARK    2  A    between atoms: C_8  and  C_9
REMARK    3  A    between atoms: C_12  and  C_14
REMARK    4  A    between atoms: N_17  and  C_18
REMARK    5  A    between atoms: C_18  and  C_19
REMARK                            x       y       z     vdW  Elec       q    Type
REMARK                         _______ _______ _______ _____ _____    ______ ____
ROOT
ATOM     14  C   UNL     1      13.539   7.745  19.049  0.00  0.00    +0.096 C 
ATOM     15  C   UNL     1      13.106   7.233  18.568  0.00  0.00    +0.028 C 
ATOM     16  C   UNL     1      12.310   7.440  18.626  0.00  0.00    +0.073 C 
ATOM     17  N   UNL     1      12.251   8.080  19.142  0.00  0.00    -0.268 NA
ATOM     28  C   UNL     1      13.011   8.269  19.403  0.00  0.00    +0.082 C 
ENDROOT
BRANCH  14  12
ATOM      9  C   UNL     1      15.572   7.443  19.625  0.00  0.00    +0.252 A 
ATOM     10  N   UNL     1      15.660   7.993  19.014  0.00  0.00    -0.107 NA
ATOM     11  N   UNL     1      14.908   8.172  18.725  0.00  0.00    -0.111 NA
ATOM     12  C   UNL     1      14.357   7.734  19.155  0.00  0.00    +0.227 A 
ATOM     13  O   UNL     1      14.768   7.284  19.711  0.00  0.00    -0.419 OA
BRANCH   9   8
ATOM      3  C   UNL     1      16.669   6.535  19.737  0.00  0.00    +0.143 A 
ATOM      4  C   UNL     1      17.280   6.203  20.181  0.00  0.00    +0.037 A 
ATOM      5  C   UNL     1      17.405   6.450  20.959  0.00  0.00    +0.003 A 
ATOM      6  C   UNL     1      16.919   7.028  21.291  0.00  0.00    +0.000 A 
ATOM      7  C   UNL     1      16.308   7.359  20.848  0.00  0.00    +0.008 A 
ATOM      8  C   UNL     1      16.183   7.112  20.069  0.00  0.00    +0.089 A 
BRANCH   3   2
ATOM      1  C   UNL     1      17.019   5.698  18.632  0.00  0.00    +0.252 C 
ATOM      2  O   UNL     1      16.544   6.288  18.959  0.00  0.00    -0.471 OA
ENDBRANCH   3   2
ENDBRANCH   9   8
ENDBRANCH  14  12
BRANCH  17  18
ATOM     18  C   UNL     1      11.554   8.465  19.359  0.00  0.00    +0.099 C 
BRANCH  18  19
ATOM     19  C   UNL     1      11.288   8.429  20.140  0.00  0.00    -0.003 A 
ATOM     20  C   UNL     1      11.343   9.094  20.626  0.00  0.00    +0.000 A 
ATOM     21  C   UNL     1      11.077   9.057  21.405  0.00  0.00    +0.040 A 
ATOM     22  C   UNL     1      10.758   8.356  21.701  0.00  0.00    +0.176 A 
ATOM     23  O   UNL     1      10.453   8.156  22.440  0.00  0.00    -0.435 OA
ATOM     24  C   UNL     1      10.211   7.368  22.412  0.00  0.00    +0.429 C 
ATOM     25  O   UNL     1      10.366   7.081  21.655  0.00  0.00    -0.435 OA
ATOM     26  C   UNL     1      10.703   7.691  21.215  0.00  0.00    +0.176 A 
ATOM     27  C   UNL     1      10.969   7.728  20.434  0.00  0.00    +0.037 A 
ENDBRANCH  18  19
ENDBRANCH  17  18
TORSDOF 5
ENDMDL
