MODEL 1
REMARK VINA RESULT:     -11.2      0.000      0.000
REMARK  Name = 
REMARK  7 active torsions:
REMARK  status: ('A' for Active; 'I' for Inactive)
REMARK    1  A    between atoms: C_2  and  C_23
REMARK    2  A    between atoms: C_9  and  N_10
REMARK    3  A    between atoms: C_11  and  C_13
REMARK    4  A    between atoms: C_13  and  C_14
REMARK    5  A    between atoms: C_14  and  O_15
REMARK    6  A    between atoms: C_23  and  C_25
REMARK    7  A    between atoms: N_27  and  C_28
REMARK                            x       y       z     vdW  Elec       q    Type
REMARK                         _______ _______ _______ _____ _____    ______ ____
ROOT
ATOM      1  C   UNL     1      -4.160   2.800  24.462  0.00  0.00    +0.052 C 
ATOM      2  C   UNL     1      -4.752   2.838  25.036  0.00  0.00    -0.001 C 
ATOM      3  C   UNL     1      -5.084   2.143  25.332  0.00  0.00    -0.000 C 
ATOM      4  C   UNL     1      -4.825   1.411  25.055  0.00  0.00    -0.001 C 
ATOM      5  C   UNL     1      -5.417   1.450  25.629  0.00  0.00    -0.000 C 
ATOM      6  C   UNL     1      -5.157   0.717  25.352  0.00  0.00    +0.002 C 
ATOM      7  C   UNL     1      -4.898  -0.016  25.075  0.00  0.00    +0.022 C 
ATOM      8  C   UNL     1      -4.307  -0.054  24.501  0.00  0.00    +0.095 C 
ATOM     16  C   UNL     1      -3.974   0.641  24.204  0.00  0.00    +0.019 C 
ATOM     17  C   UNL     1      -3.383   0.603  23.631  0.00  0.00    +0.002 C 
ATOM     18  C   UNL     1      -4.233   1.373  24.481  0.00  0.00    +0.045 C 
ATOM     19  C   UNL     1      -3.901   2.067  24.184  0.00  0.00    +0.145 C 
ATOM     20  O   UNL     1      -3.310   2.029  23.611  0.00  0.00    -0.224 OA
ENDROOT
BRANCH   8   9
ATOM      9  N   UNL     1      -4.047  -0.787  24.224  0.00  0.00    -0.207 NA
ATOM     10  C   UNL     1      -3.799  -1.365  24.758  0.00  0.00    +0.244 C 
ATOM     11  O   UNL     1      -3.810  -1.211  25.568  0.00  0.00    -0.273 OA
BRANCH  10  12
ATOM     12  C   UNL     1      -3.540  -2.097  24.480  0.00  0.00    +0.119 C 
BRANCH  12  13
ATOM     13  C   UNL     1      -2.830  -2.415  24.757  0.00  0.00    +0.152 C 
BRANCH  13  14
ATOM     14  O   UNL     1      -2.374  -2.895  24.264  0.00  0.00    -0.351 OA
ATOM     15  C   UNL     1      -1.550  -2.845  24.287  0.00  0.00    +0.174 C 
ENDBRANCH  13  14
ENDBRANCH  12  13
ENDBRANCH  10  12
ENDBRANCH   8   9
BRANCH   1  21
ATOM     21  C   UNL     1      -3.827   3.494  24.165  0.00  0.00    +0.077 C 
ATOM     22  C   UNL     1      -4.099   3.811  23.454  0.00  0.00    +0.009 C 
BRANCH  21  23
ATOM     23  C   UNL     1      -3.221   3.871  24.580  0.00  0.00    +0.241 C 
ATOM     24  O   UNL     1      -3.362   4.167  25.337  0.00  0.00    -0.273 OA
ATOM     25  N   UNL     1      -2.475   3.950  24.237  0.00  0.00    -0.207 NA
BRANCH  25  26
ATOM     26  C   UNL     1      -1.869   4.327  24.652  0.00  0.00    +0.095 C 
ATOM     27  C   UNL     1      -1.244   3.955  25.041  0.00  0.00    +0.022 C 
ATOM     28  C   UNL     1      -0.771   4.539  25.380  0.00  0.00    +0.002 C 
ATOM     29  C   UNL     1      -1.103   5.273  25.200  0.00  0.00    +0.002 C 
ATOM     30  C   UNL     1      -1.782   5.142  24.750  0.00  0.00    +0.022 C 
ENDBRANCH  25  26
ENDBRANCH  21  23
ENDBRANCH   1  21
TORSDOF 7
ENDMDL
MODEL 2
REMARK VINA RESULT:     -11.0      2.488      6.122
REMARK  Name = 
REMARK  7 active torsions:
REMARK  status: ('A' for Active; 'I' for Inactive)
REMARK    1  A    between atoms: C_2  and  C_23
REMARK    2  A    between atoms: C_9  and  N_10
REMARK    3  A    between atoms: C_11  and  C_13
REMARK    4  A    between atoms: C_13  and  C_14
REMARK    5  A    between atoms: C_14  and  O_15
REMARK    6  A    between atoms: C_23  and  C_25
REMARK    7  A    between atoms: N_27  and  C_28
REMARK                            x       y       z     vdW  Elec       q    Type
REMARK                         _______ _______ _______ _____ _____    ______ ____
ROOT
ATOM      1  C   UNL     1      -0.756  -0.807  24.753  0.00  0.00    +0.052 C 
ATOM      2  C   UNL     1      -0.303  -0.882  24.067  0.00  0.00    -0.001 C 
ATOM      3  C   UNL     1       0.065  -0.219  23.741  0.00  0.00    -0.000 C 
ATOM      4  C   UNL     1      -0.019   0.518  24.101  0.00  0.00    -0.001 C 
ATOM      5  C   UNL     1       0.433   0.443  23.415  0.00  0.00    -0.000 C 
ATOM      6  C   UNL     1       0.348   1.180  23.775  0.00  0.00    +0.002 C 
ATOM      7  C   UNL     1       0.265   1.918  24.135  0.00  0.00    +0.022 C 
ATOM      8  C   UNL     1      -0.188   1.993  24.821  0.00  0.00    +0.095 C 
ATOM     16  C   UNL     1      -0.556   1.330  25.147  0.00  0.00    +0.019 C 
ATOM     17  C   UNL     1      -1.008   1.405  25.832  0.00  0.00    +0.002 C 
ATOM     18  C   UNL     1      -0.472   0.593  24.787  0.00  0.00    +0.045 C 
ATOM     19  C   UNL     1      -0.840  -0.069  25.113  0.00  0.00    +0.145 C 
ATOM     20  O   UNL     1      -1.292   0.006  25.798  0.00  0.00    -0.224 OA
ENDROOT
BRANCH   8   9
ATOM      9  N   UNL     1      -0.272   2.731  25.181  0.00  0.00    -0.207 NA
ATOM     10  C   UNL     1      -0.464   3.392  24.727  0.00  0.00    +0.244 C 
ATOM     11  O   UNL     1      -0.572   3.316  23.912  0.00  0.00    -0.273 OA
BRANCH  10  12
ATOM     12  C   UNL     1      -0.548   4.129  25.087  0.00  0.00    +0.119 C 
BRANCH  12  13
ATOM     13  C   UNL     1      -1.152   4.639  24.847  0.00  0.00    +0.152 C 
BRANCH  13  14
ATOM     14  O   UNL     1      -1.276   5.348  25.250  0.00  0.00    -0.351 OA
ATOM     15  C   UNL     1      -2.023   5.701  25.241  0.00  0.00    +0.174 C 
ENDBRANCH  13  14
ENDBRANCH  12  13
ENDBRANCH  10  12
ENDBRANCH   8   9
BRANCH   1  21
ATOM     21  C   UNL     1      -1.124  -1.469  25.079  0.00  0.00    +0.077 C 
ATOM     22  C   UNL     1      -0.850  -1.786  25.789  0.00  0.00    +0.009 C 
BRANCH  21  23
ATOM     23  C   UNL     1      -1.767  -1.815  24.694  0.00  0.00    +0.241 C 
ATOM     24  O   UNL     1      -1.647  -2.268  24.015  0.00  0.00    -0.273 OA
ATOM     25  N   UNL     1      -2.530  -1.706  24.988  0.00  0.00    -0.207 NA
BRANCH  25  26
ATOM     26  C   UNL     1      -3.174  -2.052  24.603  0.00  0.00    +0.095 C 
ATOM     27  C   UNL     1      -3.380  -2.850  24.626  0.00  0.00    +0.022 C 
ATOM     28  C   UNL     1      -4.057  -2.951  24.165  0.00  0.00    +0.002 C 
ATOM     29  C   UNL     1      -4.268  -2.215  23.857  0.00  0.00    +0.002 C 
ATOM     30  C   UNL     1      -3.722  -1.659  24.128  0.00  0.00    +0.022 C 
ENDBRANCH  25  26
ENDBRANCH  21  23
ENDBRANCH   1  21
TORSDOF 7
ENDMDL
MODEL 3
REMARK VINA RESULT:     -10.9      2.762      4.234
REMARK  Name = 
REMARK  7 active torsions:
REMARK  status: ('A' for Active; 'I' for Inactive)
REMARK    1  A    between atoms: C_2  and  C_23
REMARK    2  A    between atoms: C_9  and  N_10
REMARK    3  A    between atoms: C_11  and  C_13
REMARK    4  A    between atoms: C_13  and  C_14
REMARK    5  A    between atoms: C_14  and  O_15
REMARK    6  A    between atoms: C_23  and  C_25
REMARK    7  A    between atoms: N_27  and  C_28
REMARK                            x       y       z     vdW  Elec       q    Type
REMARK                         _______ _______ _______ _____ _____    ______ ____
ROOT
ATOM      1  C   UNL     1      -3.341  -0.068  24.763  0.00  0.00    +0.052 C 
ATOM      2  C   UNL     1      -3.156  -0.535  25.418  0.00  0.00    -0.001 C 
ATOM      3  C   UNL     1      -2.367  -0.691  25.603  0.00  0.00    -0.000 C 
ATOM      4  C   UNL     1      -1.764  -0.380  25.134  0.00  0.00    -0.001 C 
ATOM      5  C   UNL     1      -1.579  -0.847  25.789  0.00  0.00    -0.000 C 
ATOM      6  C   UNL     1      -0.976  -0.536  25.320  0.00  0.00    +0.002 C 
ATOM      7  C   UNL     1      -0.372  -0.226  24.851  0.00  0.00    +0.022 C 
ATOM      8  C   UNL     1      -0.557   0.240  24.196  0.00  0.00    +0.095 C 
ATOM     16  C   UNL     1      -1.346   0.397  24.010  0.00  0.00    +0.019 C 
ATOM     17  C   UNL     1      -1.531   0.863  23.356  0.00  0.00    +0.002 C 
ATOM     18  C   UNL     1      -1.949   0.086  24.480  0.00  0.00    +0.045 C 
ATOM     19  C   UNL     1      -2.737   0.243  24.294  0.00  0.00    +0.145 C 
ATOM     20  O   UNL     1      -2.922   0.709  23.640  0.00  0.00    -0.224 OA
ENDROOT
BRANCH   8   9
ATOM      9  N   UNL     1       0.047   0.551  23.727  0.00  0.00    -0.207 NA
ATOM     10  C   UNL     1       0.627   0.052  23.418  0.00  0.00    +0.244 C 
ATOM     11  O   UNL     1       0.603  -0.757  23.578  0.00  0.00    -0.273 OA
BRANCH  10  12
ATOM     12  C   UNL     1       1.230   0.363  22.949  0.00  0.00    +0.119 C 
BRANCH  12  13
ATOM     13  C   UNL     1       1.943  -0.045  22.871  0.00  0.00    +0.152 C 
BRANCH  13  14
ATOM     14  O   UNL     1       2.492   0.190  22.301  0.00  0.00    -0.351 OA
ATOM     15  C   UNL     1       3.260   0.392  22.527  0.00  0.00    +0.174 C 
ENDBRANCH  13  14
ENDBRANCH  12  13
ENDBRANCH  10  12
ENDBRANCH   8   9
BRANCH   1  21
ATOM     21  C   UNL     1      -4.129   0.088  24.577  0.00  0.00    +0.077 C 
ATOM     22  C   UNL     1      -4.499  -0.325  23.968  0.00  0.00    +0.009 C 
BRANCH  21  23
ATOM     23  C   UNL     1      -4.547   0.660  25.002  0.00  0.00    +0.241 C 
ATOM     24  O   UNL     1      -4.753   0.521  25.788  0.00  0.00    -0.273 OA
ATOM     25  N   UNL     1      -4.759   1.369  24.638  0.00  0.00    -0.207 NA
BRANCH  25  26
ATOM     26  C   UNL     1      -5.177   1.941  25.063  0.00  0.00    +0.095 C 
ATOM     27  C   UNL     1      -5.973   1.900  25.276  0.00  0.00    +0.022 C 
ATOM     28  C   UNL     1      -6.160   2.587  25.693  0.00  0.00    +0.002 C 
ATOM     29  C   UNL     1      -5.480   3.052  25.738  0.00  0.00    +0.002 C 
ATOM     30  C   UNL     1      -4.872   2.653  25.349  0.00  0.00    +0.022 C 
ENDBRANCH  25  26
ENDBRANCH  21  23
ENDBRANCH   1  21
TORSDOF 7
ENDMDL
MODEL 4
REMARK VINA RESULT:     -10.6      0.914      4.903
REMARK  Name = 
REMARK  7 active torsions:
REMARK  status: ('A' for Active; 'I' for Inactive)
REMARK    1  A    between atoms: C_2  and  C_23
REMARK    2  A    between atoms: C_9  and  N_10
REMARK    3  A    between atoms: C_11  and  C_13
REMARK    4  A    between atoms: C_13  and  C_14
REMARK    5  A    between atoms: C_14  and  O_15
REMARK    6  A    between atoms: C_23  and  C_25
REMARK    7  A    between atoms: N_27  and  C_28
REMARK                            x       y       z     vdW  Elec       q    Type
REMARK                         _______ _______ _______ _____ _____    ______ ____
ROOT
ATOM      1  C   UNL     1      -4.121   0.134  24.410  0.00  0.00    +0.052 C 
ATOM      2  C   UNL     1      -4.785   0.164  24.899  0.00  0.00    -0.001 C 
ATOM      3  C   UNL     1      -5.028   0.884  25.221  0.00  0.00    -0.000 C 
ATOM      4  C   UNL     1      -4.608   1.573  25.054  0.00  0.00    -0.001 C 
ATOM      5  C   UNL     1      -5.272   1.603  25.543  0.00  0.00    -0.000 C 
ATOM      6  C   UNL     1      -4.851   2.292  25.376  0.00  0.00    +0.002 C 
ATOM      7  C   UNL     1      -4.431   2.982  25.209  0.00  0.00    +0.022 C 
ATOM      8  C   UNL     1      -3.767   2.953  24.720  0.00  0.00    +0.095 C 
ATOM     16  C   UNL     1      -3.523   2.233  24.398  0.00  0.00    +0.019 C 
ATOM     17  C   UNL     1      -2.860   2.203  23.909  0.00  0.00    +0.002 C 
ATOM     18  C   UNL     1      -3.944   1.543  24.565  0.00  0.00    +0.045 C 
ATOM     19  C   UNL     1      -3.700   0.824  24.243  0.00  0.00    +0.145 C 
ATOM     20  O   UNL     1      -3.037   0.794  23.754  0.00  0.00    -0.224 OA
ENDROOT
BRANCH   8   9
ATOM      9  N   UNL     1      -3.346   3.643  24.553  0.00  0.00    -0.207 NA
ATOM     10  C   UNL     1      -3.011   4.080  25.167  0.00  0.00    +0.244 C 
ATOM     11  O   UNL     1      -3.097   3.828  25.948  0.00  0.00    -0.273 OA
BRANCH  10  12
ATOM     12  C   UNL     1      -2.591   4.770  24.999  0.00  0.00    +0.119 C 
BRANCH  12  13
ATOM     13  C   UNL     1      -1.835   4.879  25.314  0.00  0.00    +0.152 C 
BRANCH  13  14
ATOM     14  O   UNL     1      -1.367   5.506  25.054  0.00  0.00    -0.351 OA
ATOM     15  C   UNL     1      -0.599   5.363  24.785  0.00  0.00    +0.174 C 
ENDBRANCH  13  14
ENDBRANCH  12  13
ENDBRANCH  10  12
ENDBRANCH   8   9
BRANCH   1  21
ATOM     21  C   UNL     1      -3.878  -0.585  24.088  0.00  0.00    +0.077 C 
ATOM     22  C   UNL     1      -4.173  -0.832  23.359  0.00  0.00    +0.009 C 
BRANCH  21  23
ATOM     23  C   UNL     1      -3.338  -1.058  24.496  0.00  0.00    +0.241 C 
ATOM     24  O   UNL     1      -3.504  -1.304  25.266  0.00  0.00    -0.273 OA
ATOM     25  N   UNL     1      -2.632  -1.284  24.134  0.00  0.00    -0.207 NA
BRANCH  25  26
ATOM     26  C   UNL     1      -2.092  -1.757  24.543  0.00  0.00    +0.095 C 
ATOM     27  C   UNL     1      -2.102  -2.581  24.581  0.00  0.00    +0.022 C 
ATOM     28  C   UNL     1      -1.465  -2.821  25.046  0.00  0.00    +0.002 C 
ATOM     29  C   UNL     1      -1.060  -2.146  25.294  0.00  0.00    +0.002 C 
ATOM     30  C   UNL     1      -1.448  -1.488  24.983  0.00  0.00    +0.022 C 
ENDBRANCH  25  26
ENDBRANCH  21  23
ENDBRANCH   1  21
TORSDOF 7
ENDMDL
MODEL 5
REMARK VINA RESULT:     -10.6      2.711      4.230
REMARK  Name = 
REMARK  7 active torsions:
REMARK  status: ('A' for Active; 'I' for Inactive)
REMARK    1  A    between atoms: C_2  and  C_23
REMARK    2  A    between atoms: C_9  and  N_10
REMARK    3  A    between atoms: C_11  and  C_13
REMARK    4  A    between atoms: C_13  and  C_14
REMARK    5  A    between atoms: C_14  and  O_15
REMARK    6  A    between atoms: C_23  and  C_25
REMARK    7  A    between atoms: N_27  and  C_28
REMARK                            x       y       z     vdW  Elec       q    Type
REMARK                         _______ _______ _______ _____ _____    ______ ____
ROOT
ATOM      1  C   UNL     1      -2.584   3.190  24.883  0.00  0.00    +0.052 C 
ATOM      2  C   UNL     1      -2.205   3.511  25.542  0.00  0.00    -0.001 C 
ATOM      3  C   UNL     1      -1.445   3.261  25.743  0.00  0.00    -0.000 C 
ATOM      4  C   UNL     1      -1.063   2.692  25.285  0.00  0.00    -0.001 C 
ATOM      5  C   UNL     1      -0.684   3.013  25.944  0.00  0.00    -0.000 C 
ATOM      6  C   UNL     1      -0.303   2.443  25.485  0.00  0.00    +0.002 C 
ATOM      7  C   UNL     1       0.079   1.873  25.027  0.00  0.00    +0.022 C 
ATOM      8  C   UNL     1      -0.299   1.552  24.368  0.00  0.00    +0.095 C 
ATOM     16  C   UNL     1      -1.060   1.801  24.167  0.00  0.00    +0.019 C 
ATOM     17  C   UNL     1      -1.439   1.480  23.509  0.00  0.00    +0.002 C 
ATOM     18  C   UNL     1      -1.442   2.371  24.626  0.00  0.00    +0.045 C 
ATOM     19  C   UNL     1      -2.202   2.619  24.425  0.00  0.00    +0.145 C 
ATOM     20  O   UNL     1      -2.580   2.299  23.767  0.00  0.00    -0.224 OA
ENDROOT
BRANCH   8   9
ATOM      9  N   UNL     1       0.083   0.982  23.910  0.00  0.00    -0.207 NA
ATOM     10  C   UNL     1       0.880   1.073  23.720  0.00  0.00    +0.244 C 
ATOM     11  O   UNL     1       1.296   1.733  23.988  0.00  0.00    -0.273 OA
BRANCH  10  12
ATOM     12  C   UNL     1       1.262   0.502  23.261  0.00  0.00    +0.119 C 
BRANCH  12  13
ATOM     13  C   UNL     1       2.050   0.611  23.041  0.00  0.00    +0.152 C 
BRANCH  13  14
ATOM     14  O   UNL     1       2.385   0.129  22.461  0.00  0.00    -0.351 OA
ATOM     15  C   UNL     1       3.200   0.147  22.330  0.00  0.00    +0.174 C 
ENDBRANCH  13  14
ENDBRANCH  12  13
ENDBRANCH  10  12
ENDBRANCH   8   9
BRANCH   1  21
ATOM     21  C   UNL     1      -3.345   3.438  24.682  0.00  0.00    +0.077 C 
ATOM     22  C   UNL     1      -3.459   3.935  24.035  0.00  0.00    +0.009 C 
BRANCH  21  23
ATOM     23  C   UNL     1      -3.992   3.189  25.130  0.00  0.00    +0.241 C 
ATOM     24  O   UNL     1      -4.062   3.421  25.919  0.00  0.00    -0.273 OA
ATOM     25  N   UNL     1      -4.568   2.707  24.789  0.00  0.00    -0.207 NA
BRANCH  25  26
ATOM     26  C   UNL     1      -5.215   2.458  25.237  0.00  0.00    +0.095 C 
ATOM     27  C   UNL     1      -5.783   2.947  25.580  0.00  0.00    +0.022 C 
ATOM     28  C   UNL     1      -6.326   2.467  25.975  0.00  0.00    +0.002 C 
ATOM     29  C   UNL     1      -6.093   1.682  25.876  0.00  0.00    +0.002 C 
ATOM     30  C   UNL     1      -5.406   1.676  25.420  0.00  0.00    +0.022 C 
ENDBRANCH  25  26
ENDBRANCH  21  23
ENDBRANCH   1  21
TORSDOF 7
ENDMDL
MODEL 6
REMARK VINA RESULT:      -9.6      2.540      3.504
REMARK  Name = 
REMARK  7 active torsions:
REMARK  status: ('A' for Active; 'I' for Inactive)
REMARK    1  A    between atoms: C_2  and  C_23
REMARK    2  A    between atoms: C_9  and  N_10
REMARK    3  A    between atoms: C_11  and  C_13
REMARK    4  A    between atoms: C_13  and  C_14
REMARK    5  A    between atoms: C_14  and  O_15
REMARK    6  A    between atoms: C_23  and  C_25
REMARK    7  A    between atoms: N_27  and  C_28
REMARK                            x       y       z     vdW  Elec       q    Type
REMARK                         _______ _______ _______ _____ _____    ______ ____
ROOT
ATOM      1  C   UNL     1      -0.101   1.884  25.108  0.00  0.00    +0.052 C 
ATOM      2  C   UNL     1       0.357   1.841  24.423  0.00  0.00    -0.001 C 
ATOM      3  C   UNL     1       0.375   1.144  23.983  0.00  0.00    -0.000 C 
ATOM      4  C   UNL     1      -0.063   0.490  24.226  0.00  0.00    -0.001 C 
ATOM      5  C   UNL     1       0.395   0.447  23.541  0.00  0.00    -0.000 C 
ATOM      6  C   UNL     1      -0.044  -0.207  23.786  0.00  0.00    +0.002 C 
ATOM      7  C   UNL     1      -0.483  -0.862  24.029  0.00  0.00    +0.022 C 
ATOM      8  C   UNL     1      -0.941  -0.819  24.715  0.00  0.00    +0.095 C 
ATOM     16  C   UNL     1      -0.960  -0.122  25.156  0.00  0.00    +0.019 C 
ATOM     17  C   UNL     1      -1.417  -0.079  25.840  0.00  0.00    +0.002 C 
ATOM     18  C   UNL     1      -0.521   0.532  24.911  0.00  0.00    +0.045 C 
ATOM     19  C   UNL     1      -0.540   1.229  25.353  0.00  0.00    +0.145 C 
ATOM     20  O   UNL     1      -0.997   1.271  26.037  0.00  0.00    -0.224 OA
ENDROOT
BRANCH   8   9
ATOM      9  N   UNL     1      -1.380  -1.474  24.959  0.00  0.00    -0.207 NA
ATOM     10  C   UNL     1      -1.902  -1.839  24.434  0.00  0.00    +0.244 C 
ATOM     11  O   UNL     1      -1.984  -1.550  23.666  0.00  0.00    -0.273 OA
BRANCH  10  12
ATOM     12  C   UNL     1      -2.340  -2.494  24.679  0.00  0.00    +0.119 C 
BRANCH  12  13
ATOM     13  C   UNL     1      -2.976  -2.758  24.223  0.00  0.00    +0.152 C 
BRANCH  13  14
ATOM     14  O   UNL     1      -3.624  -3.114  24.587  0.00  0.00    -0.351 OA
ATOM     15  C   UNL     1      -4.324  -3.227  24.164  0.00  0.00    +0.174 C 
ENDBRANCH  13  14
ENDBRANCH  12  13
ENDBRANCH  10  12
ENDBRANCH   8   9
BRANCH   1  21
ATOM     21  C   UNL     1      -0.120   2.580  25.550  0.00  0.00    +0.077 C 
ATOM     22  C   UNL     1       0.257   2.616  26.281  0.00  0.00    +0.009 C 
BRANCH  21  23
ATOM     23  C   UNL     1      -0.518   3.242  25.258  0.00  0.00    +0.241 C 
ATOM     24  O   UNL     1      -0.332   3.540  24.511  0.00  0.00    -0.273 OA
ATOM     25  N   UNL     1      -1.102   3.606  25.713  0.00  0.00    -0.207 NA
BRANCH  25  26
ATOM     26  C   UNL     1      -1.500   4.268  25.421  0.00  0.00    +0.095 C 
ATOM     27  C   UNL     1      -2.310   4.323  25.281  0.00  0.00    +0.022 C 
ATOM     28  C   UNL     1      -2.468   5.079  24.991  0.00  0.00    +0.002 C 
ATOM     29  C   UNL     1      -1.754   5.492  24.953  0.00  0.00    +0.002 C 
ATOM     30  C   UNL     1      -1.155   4.990  25.218  0.00  0.00    +0.022 C 
ENDBRANCH  25  26
ENDBRANCH  21  23
ENDBRANCH   1  21
TORSDOF 7
ENDMDL
MODEL 7
REMARK VINA RESULT:      -9.4      2.367      4.605
REMARK  Name = 
REMARK  7 active torsions:
REMARK  status: ('A' for Active; 'I' for Inactive)
REMARK    1  A    between atoms: C_2  and  C_23
REMARK    2  A    between atoms: C_9  and  N_10
REMARK    3  A    between atoms: C_11  and  C_13
REMARK    4  A    between atoms: C_13  and  C_14
REMARK    5  A    between atoms: C_14  and  O_15
REMARK    6  A    between atoms: C_23  and  C_25
REMARK    7  A    between atoms: N_27  and  C_28
REMARK                            x       y       z     vdW  Elec       q    Type
REMARK                         _______ _______ _______ _____ _____    ______ ____
ROOT
ATOM      1  C   UNL     1      -1.807  -0.587  24.862  0.00  0.00    +0.052 C 
ATOM      2  C   UNL     1      -2.203  -1.297  24.724  0.00  0.00    -0.001 C 
ATOM      3  C   UNL     1      -3.016  -1.296  24.584  0.00  0.00    -0.000 C 
ATOM      4  C   UNL     1      -3.434  -0.585  24.582  0.00  0.00    -0.001 C 
ATOM      5  C   UNL     1      -3.829  -1.296  24.444  0.00  0.00    -0.000 C 
ATOM      6  C   UNL     1      -4.246  -0.584  24.442  0.00  0.00    +0.002 C 
ATOM      7  C   UNL     1      -4.664   0.127  24.440  0.00  0.00    +0.022 C 
ATOM      8  C   UNL     1      -4.269   0.838  24.578  0.00  0.00    +0.095 C 
ATOM     16  C   UNL     1      -3.455   0.837  24.718  0.00  0.00    +0.019 C 
ATOM     17  C   UNL     1      -3.060   1.547  24.856  0.00  0.00    +0.002 C 
ATOM     18  C   UNL     1      -3.038   0.126  24.720  0.00  0.00    +0.045 C 
ATOM     19  C   UNL     1      -2.225   0.126  24.860  0.00  0.00    +0.145 C 
ATOM     20  O   UNL     1      -1.831   0.836  24.998  0.00  0.00    -0.224 OA
ENDROOT
BRANCH   8   9
ATOM      9  N   UNL     1      -4.687   1.550  24.576  0.00  0.00    -0.207 NA
ATOM     10  C   UNL     1      -5.308   1.664  25.107  0.00  0.00    +0.244 C 
ATOM     11  O   UNL     1      -5.513   1.067  25.638  0.00  0.00    -0.273 OA
BRANCH  10  12
ATOM     12  C   UNL     1      -5.726   2.375  25.104  0.00  0.00    +0.119 C 
BRANCH  12  13
ATOM     13  C   UNL     1      -5.620   2.917  25.718  0.00  0.00    +0.152 C 
BRANCH  13  14
ATOM     14  O   UNL     1      -6.035   3.630  25.715  0.00  0.00    -0.351 OA
ATOM     15  C   UNL     1      -5.625   4.345  25.667  0.00  0.00    +0.174 C 
ENDBRANCH  13  14
ENDBRANCH  12  13
ENDBRANCH  10  12
ENDBRANCH   8   9
BRANCH   1  21
ATOM     21  C   UNL     1      -0.995  -0.587  25.002  0.00  0.00    +0.077 C 
ATOM     22  C   UNL     1      -0.708  -0.497  25.770  0.00  0.00    +0.009 C 
BRANCH  21  23
ATOM     23  C   UNL     1      -0.468  -0.676  24.373  0.00  0.00    +0.241 C 
ATOM     24  O   UNL     1      -0.377  -1.413  24.012  0.00  0.00    -0.273 OA
ATOM     25  N   UNL     1      -0.033  -0.029  24.105  0.00  0.00    -0.207 NA
BRANCH  25  26
ATOM     26  C   UNL     1       0.494  -0.119  23.475  0.00  0.00    +0.095 C 
ATOM     27  C   UNL     1       1.316  -0.155  23.533  0.00  0.00    +0.022 C 
ATOM     28  C   UNL     1       1.621  -0.247  22.772  0.00  0.00    +0.002 C 
ATOM     29  C   UNL     1       0.987  -0.266  22.244  0.00  0.00    +0.002 C 
ATOM     30  C   UNL     1       0.290  -0.187  22.678  0.00  0.00    +0.022 C 
ENDBRANCH  25  26
ENDBRANCH  21  23
ENDBRANCH   1  21
TORSDOF 7
ENDMDL
MODEL 8
REMARK VINA RESULT:      -9.4      1.802      3.237
REMARK  Name = 
REMARK  7 active torsions:
REMARK  status: ('A' for Active; 'I' for Inactive)
REMARK    1  A    between atoms: C_2  and  C_23
REMARK    2  A    between atoms: C_9  and  N_10
REMARK    3  A    between atoms: C_11  and  C_13
REMARK    4  A    between atoms: C_13  and  C_14
REMARK    5  A    between atoms: C_14  and  O_15
REMARK    6  A    between atoms: C_23  and  C_25
REMARK    7  A    between atoms: N_27  and  C_28
REMARK                            x       y       z     vdW  Elec       q    Type
REMARK                         _______ _______ _______ _____ _____    ______ ____
ROOT
ATOM      1  C   UNL     1      -2.132   3.322  25.148  0.00  0.00    +0.052 C 
ATOM      2  C   UNL     1      -1.610   3.532  25.752  0.00  0.00    -0.001 C 
ATOM      3  C   UNL     1      -1.014   3.009  25.981  0.00  0.00    -0.000 C 
ATOM      4  C   UNL     1      -0.941   2.277  25.608  0.00  0.00    -0.001 C 
ATOM      5  C   UNL     1      -0.419   2.487  26.212  0.00  0.00    -0.000 C 
ATOM      6  C   UNL     1      -0.346   1.755  25.838  0.00  0.00    +0.002 C 
ATOM      7  C   UNL     1      -0.272   1.023  25.465  0.00  0.00    +0.022 C 
ATOM      8  C   UNL     1      -0.794   0.813  24.862  0.00  0.00    +0.095 C 
ATOM     16  C   UNL     1      -1.390   1.336  24.631  0.00  0.00    +0.019 C 
ATOM     17  C   UNL     1      -1.911   1.127  24.029  0.00  0.00    +0.002 C 
ATOM     18  C   UNL     1      -1.463   2.068  25.005  0.00  0.00    +0.045 C 
ATOM     19  C   UNL     1      -2.059   2.590  24.775  0.00  0.00    +0.145 C 
ATOM     20  O   UNL     1      -2.580   2.380  24.172  0.00  0.00    -0.224 OA
ENDROOT
BRANCH   8   9
ATOM      9  N   UNL     1      -0.720   0.081  24.488  0.00  0.00    -0.207 NA
ATOM     10  C   UNL     1      -0.777  -0.614  24.929  0.00  0.00    +0.244 C 
ATOM     11  O   UNL     1      -0.906  -0.577  25.743  0.00  0.00    -0.273 OA
BRANCH  10  12
ATOM     12  C   UNL     1      -0.703  -1.346  24.555  0.00  0.00    +0.119 C 
BRANCH  12  13
ATOM     13  C   UNL     1      -1.206  -1.967  24.762  0.00  0.00    +0.152 C 
BRANCH  13  14
ATOM     14  O   UNL     1      -1.434  -2.519  24.194  0.00  0.00    -0.351 OA
ATOM     15  C   UNL     1      -2.150  -2.922  24.274  0.00  0.00    +0.174 C 
ENDBRANCH  13  14
ENDBRANCH  12  13
ENDBRANCH  10  12
ENDBRANCH   8   9
BRANCH   1  21
ATOM     21  C   UNL     1      -2.728   3.844  24.918  0.00  0.00    +0.077 C 
ATOM     22  C   UNL     1      -2.588   4.391  24.318  0.00  0.00    +0.009 C 
BRANCH  21  23
ATOM     23  C   UNL     1      -3.465   3.818  25.289  0.00  0.00    +0.241 C 
ATOM     24  O   UNL     1      -3.532   4.015  26.087  0.00  0.00    -0.273 OA
ATOM     25  N   UNL     1      -4.134   3.594  24.861  0.00  0.00    -0.207 NA
BRANCH  25  26
ATOM     26  C   UNL     1      -4.871   3.568  25.232  0.00  0.00    +0.095 C 
ATOM     27  C   UNL     1      -5.353   4.216  25.398  0.00  0.00    +0.022 C 
ATOM     28  C   UNL     1      -6.034   3.938  25.771  0.00  0.00    +0.002 C 
ATOM     29  C   UNL     1      -5.973   3.118  25.835  0.00  0.00    +0.002 C 
ATOM     30  C   UNL     1      -5.254   2.889  25.503  0.00  0.00    +0.022 C 
ENDBRANCH  25  26
ENDBRANCH  21  23
ENDBRANCH   1  21
TORSDOF 7
ENDMDL
MODEL 9
REMARK VINA RESULT:      -9.1      3.681      5.852
REMARK  Name = 
REMARK  7 active torsions:
REMARK  status: ('A' for Active; 'I' for Inactive)
REMARK    1  A    between atoms: C_2  and  C_23
REMARK    2  A    between atoms: C_9  and  N_10
REMARK    3  A    between atoms: C_11  and  C_13
REMARK    4  A    between atoms: C_13  and  C_14
REMARK    5  A    between atoms: C_14  and  O_15
REMARK    6  A    between atoms: C_23  and  C_25
REMARK    7  A    between atoms: N_27  and  C_28
REMARK                            x       y       z     vdW  Elec       q    Type
REMARK                         _______ _______ _______ _____ _____    ______ ____
ROOT
ATOM      1  C   UNL     1      -1.412  -0.146  25.091  0.00  0.00    +0.052 C 
ATOM      2  C   UNL     1      -1.635   0.648  25.112  0.00  0.00    -0.001 C 
ATOM      3  C   UNL     1      -1.184   1.214  24.716  0.00  0.00    -0.000 C 
ATOM      4  C   UNL     1      -0.511   0.987  24.298  0.00  0.00    -0.001 C 
ATOM      5  C   UNL     1      -0.734   1.781  24.320  0.00  0.00    -0.000 C 
ATOM      6  C   UNL     1      -0.060   1.552  23.902  0.00  0.00    +0.002 C 
ATOM      7  C   UNL     1       0.614   1.325  23.484  0.00  0.00    +0.022 C 
ATOM      8  C   UNL     1       0.837   0.531  23.462  0.00  0.00    +0.095 C 
ATOM     16  C   UNL     1       0.386  -0.035  23.858  0.00  0.00    +0.019 C 
ATOM     17  C   UNL     1       0.609  -0.828  23.836  0.00  0.00    +0.002 C 
ATOM     18  C   UNL     1      -0.287   0.193  24.276  0.00  0.00    +0.045 C 
ATOM     19  C   UNL     1      -0.738  -0.374  24.672  0.00  0.00    +0.145 C 
ATOM     20  O   UNL     1      -0.515  -1.167  24.650  0.00  0.00    -0.224 OA
ENDROOT
BRANCH   8   9
ATOM      9  N   UNL     1       1.511   0.303  23.043  0.00  0.00    -0.207 NA
ATOM     10  C   UNL     1       2.197   0.759  23.088  0.00  0.00    +0.244 C 
ATOM     11  O   UNL     1       2.210   1.442  23.551  0.00  0.00    -0.273 OA
BRANCH  10  12
ATOM     12  C   UNL     1       2.871   0.530  22.670  0.00  0.00    +0.119 C 
BRANCH  12  13
ATOM     13  C   UNL     1       3.618   0.762  22.934  0.00  0.00    +0.152 C 
BRANCH  13  14
ATOM     14  O   UNL     1       4.295   0.437  22.592  0.00  0.00    -0.351 OA
ATOM     15  C   UNL     1       4.959   0.284  23.057  0.00  0.00    +0.174 C 
ENDBRANCH  13  14
ENDBRANCH  12  13
ENDBRANCH  10  12
ENDBRANCH   8   9
BRANCH   1  21
ATOM     21  C   UNL     1      -1.862  -0.712  25.487  0.00  0.00    +0.077 C 
ATOM     22  C   UNL     1      -1.591  -1.031  26.196  0.00  0.00    +0.009 C 
BRANCH  21  23
ATOM     23  C   UNL     1      -2.584  -0.959  25.171  0.00  0.00    +0.241 C 
ATOM     24  O   UNL     1      -3.270  -0.525  25.321  0.00  0.00    -0.273 OA
ATOM     25  N   UNL     1      -2.619  -1.639  24.706  0.00  0.00    -0.207 NA
BRANCH  25  26
ATOM     26  C   UNL     1      -3.341  -1.886  24.391  0.00  0.00    +0.095 C 
ATOM     27  C   UNL     1      -3.871  -1.416  23.969  0.00  0.00    +0.022 C 
ATOM     28  C   UNL     1      -4.516  -1.885  23.759  0.00  0.00    +0.002 C 
ATOM     29  C   UNL     1      -4.385  -2.646  24.052  0.00  0.00    +0.002 C 
ATOM     30  C   UNL     1      -3.658  -2.647  24.443  0.00  0.00    +0.022 C 
ENDBRANCH  25  26
ENDBRANCH  21  23
ENDBRANCH   1  21
TORSDOF 7
ENDMDL
