MODEL 1
REMARK VINA RESULT:      -8.1      0.000      0.000
REMARK  Name = 
REMARK  6 active torsions:
REMARK  status: ('A' for Active; 'I' for Inactive)
REMARK    1  A    between atoms: C_6  and  C_7
REMARK    2  A    between atoms: C_7  and  N_8
REMARK    3  A    between atoms: N_8  and  C_9
REMARK    4  A    between atoms: C_12  and  C_13
REMARK    5  A    between atoms: C_13  and  N_14
REMARK    6  A    between atoms: C_15  and  C_17
REMARK                            x       y       z     vdW  Elec       q    Type
REMARK                         _______ _______ _______ _____ _____    ______ ____
ROOT
ATOM      9  C   UNL     1      -3.617   0.617  24.134  0.00  0.00    +0.136 C 
ATOM     10  C   UNL     1      -3.187   0.954  23.515  0.00  0.00    +0.162 C 
ATOM     11  O   UNL     1      -3.043   1.743  23.705  0.00  0.00    -0.350 OA
ATOM     12  C   UNL     1      -3.384   1.894  24.441  0.00  0.00    +0.169 C 
ATOM     22  C   UNL     1      -3.738   1.198  24.706  0.00  0.00    +0.199 C 
ATOM     23  O   UNL     1      -4.143   1.101  25.418  0.00  0.00    -0.219 OA
ENDROOT
BRANCH   9   8
ATOM      8  N   UNL     1      -3.879  -0.164  24.173  0.00  0.00    -0.206 NA
BRANCH   8   7
ATOM      7  C   UNL     1      -3.334  -0.784  24.160  0.00  0.00    +0.152 C 
BRANCH   7   6
ATOM      1  C   UNL     1      -2.414  -2.226  24.702  0.00  0.00    +0.132 C 
ATOM      2  N   UNL     1      -3.175  -2.228  24.383  0.00  0.00    -0.311 N 
ATOM      3  C   UNL     1      -3.647  -2.893  24.258  0.00  0.00    +0.098 A 
ATOM      4  C   UNL     1      -4.362  -2.640  23.932  0.00  0.00    +0.119 A 
ATOM      5  N   UNL     1      -4.332  -1.820  23.855  0.00  0.00    -0.228 NA
ATOM      6  C   UNL     1      -3.598  -1.565  24.134  0.00  0.00    +0.138 A 
ENDBRANCH   7   6
ENDBRANCH   8   7
ENDBRANCH   9   8
BRANCH  12  13
ATOM     13  C   UNL     1      -3.372   2.616  24.842  0.00  0.00    +0.148 C 
BRANCH  13  14
ATOM     14  N   UNL     1      -2.725   3.120  24.765  0.00  0.00    -0.199 NA
ATOM     15  C   UNL     1      -2.658   3.784  25.251  0.00  0.00    +0.271 C 
ATOM     16  O   UNL     1      -3.240   3.943  25.814  0.00  0.00    -0.268 OA
BRANCH  15  17
ATOM     17  C   UNL     1      -2.010   4.288  25.174  0.00  0.00    +0.084 A 
ATOM     18  C   UNL     1      -2.041   5.109  25.091  0.00  0.00    +0.012 A 
ATOM     19  C   UNL     1      -1.268   5.389  25.031  0.00  0.00    +0.008 A 
ATOM     20  C   UNL     1      -0.759   4.742  25.077  0.00  0.00    +0.036 A 
ATOM     21  S   UNL     1      -1.217   4.062  25.165  0.00  0.00    -0.082 S 
ENDBRANCH  15  17
ENDBRANCH  13  14
ENDBRANCH  12  13
TORSDOF 6
ENDMDL
MODEL 2
REMARK VINA RESULT:      -7.9      2.407      5.829
REMARK  Name = 
REMARK  6 active torsions:
REMARK  status: ('A' for Active; 'I' for Inactive)
REMARK    1  A    between atoms: C_6  and  C_7
REMARK    2  A    between atoms: C_7  and  N_8
REMARK    3  A    between atoms: N_8  and  C_9
REMARK    4  A    between atoms: C_12  and  C_13
REMARK    5  A    between atoms: C_13  and  N_14
REMARK    6  A    between atoms: C_15  and  C_17
REMARK                            x       y       z     vdW  Elec       q    Type
REMARK                         _______ _______ _______ _____ _____    ______ ____
ROOT
ATOM      9  C   UNL     1      -0.964   1.686  25.135  0.00  0.00    +0.136 C 
ATOM     10  C   UNL     1      -0.981   1.329  25.879  0.00  0.00    +0.162 C 
ATOM     11  O   UNL     1      -1.066   0.516  25.770  0.00  0.00    -0.350 OA
ATOM     12  C   UNL     1      -1.101   0.370  24.959  0.00  0.00    +0.169 C 
ATOM     22  C   UNL     1      -1.038   1.093  24.567  0.00  0.00    +0.199 C 
ATOM     23  O   UNL     1      -1.048   1.203  23.749  0.00  0.00    -0.219 OA
ENDROOT
BRANCH   9   8
ATOM      8  N   UNL     1      -0.887   2.493  24.986  0.00  0.00    -0.206 NA
BRANCH   8   7
ATOM      7  C   UNL     1      -1.292   3.040  25.453  0.00  0.00    +0.152 C 
BRANCH   7   6
ATOM      1  C   UNL     1      -2.557   4.264  25.802  0.00  0.00    +0.132 C 
ATOM      2  N   UNL     1      -1.831   4.407  25.437  0.00  0.00    -0.311 N 
ATOM      3  C   UNL     1      -1.560   5.138  25.168  0.00  0.00    +0.098 A 
ATOM      4  C   UNL     1      -0.810   5.027  24.840  0.00  0.00    +0.119 A 
ATOM      5  N   UNL     1      -0.619   4.227  24.907  0.00  0.00    -0.228 NA
ATOM      6  C   UNL     1      -1.250   3.845  25.276  0.00  0.00    +0.138 A 
ENDBRANCH   7   6
ENDBRANCH   8   7
ENDBRANCH   9   8
BRANCH  12  13
ATOM     13  C   UNL     1      -1.185  -0.370  24.602  0.00  0.00    +0.148 C 
BRANCH  13  14
ATOM     14  N   UNL     1      -1.917  -0.748  24.604  0.00  0.00    -0.199 NA
ATOM     15  C   UNL     1      -1.970  -1.547  24.403  0.00  0.00    +0.271 C 
ATOM     16  O   UNL     1      -1.290  -1.967  24.201  0.00  0.00    -0.268 OA
BRANCH  15  17
ATOM     17  C   UNL     1      -2.703  -1.924  24.404  0.00  0.00    +0.084 A 
ATOM     18  C   UNL     1      -3.416  -1.600  24.146  0.00  0.00    +0.012 A 
ATOM     19  C   UNL     1      -4.006  -2.167  24.246  0.00  0.00    +0.008 A 
ATOM     20  C   UNL     1      -3.658  -2.843  24.566  0.00  0.00    +0.036 A 
ATOM     21  S   UNL     1      -2.853  -2.693  24.664  0.00  0.00    -0.082 S 
ENDBRANCH  15  17
ENDBRANCH  13  14
ENDBRANCH  12  13
TORSDOF 6
ENDMDL
MODEL 3
REMARK VINA RESULT:      -7.9      1.638      1.850
REMARK  Name = 
REMARK  6 active torsions:
REMARK  status: ('A' for Active; 'I' for Inactive)
REMARK    1  A    between atoms: C_6  and  C_7
REMARK    2  A    between atoms: C_7  and  N_8
REMARK    3  A    between atoms: N_8  and  C_9
REMARK    4  A    between atoms: C_12  and  C_13
REMARK    5  A    between atoms: C_13  and  N_14
REMARK    6  A    between atoms: C_15  and  C_17
REMARK                            x       y       z     vdW  Elec       q    Type
REMARK                         _______ _______ _______ _____ _____    ______ ____
ROOT
ATOM      9  C   UNL     1      -1.669  -0.040  24.568  0.00  0.00    +0.136 C 
ATOM     10  C   UNL     1      -1.628   0.377  23.856  0.00  0.00    +0.162 C 
ATOM     11  O   UNL     1      -1.309   1.121  24.015  0.00  0.00    -0.350 OA
ATOM     12  C   UNL     1      -1.153   1.164  24.824  0.00  0.00    +0.169 C 
ATOM     22  C   UNL     1      -1.375   0.447  25.165  0.00  0.00    +0.199 C 
ATOM     23  O   UNL     1      -1.315   0.251  25.965  0.00  0.00    -0.219 OA
ENDROOT
BRANCH   9   8
ATOM      8  N   UNL     1      -1.953  -0.808  24.664  0.00  0.00    -0.206 NA
BRANCH   8   7
ATOM      7  C   UNL     1      -2.653  -1.039  24.292  0.00  0.00    +0.152 C 
BRANCH   7   6
ATOM      1  C   UNL     1      -4.329  -1.589  23.964  0.00  0.00    +0.132 C 
ATOM      2  N   UNL     1      -3.710  -2.059  24.243  0.00  0.00    -0.311 N 
ATOM      3  C   UNL     1      -3.753  -2.863  24.419  0.00  0.00    +0.098 A 
ATOM      4  C   UNL     1      -3.009  -3.108  24.679  0.00  0.00    +0.119 A 
ATOM      5  N   UNL     1      -2.506  -2.454  24.663  0.00  0.00    -0.228 NA
ATOM      6  C   UNL     1      -2.940  -1.806  24.393  0.00  0.00    +0.138 A 
ENDBRANCH   7   6
ENDBRANCH   8   7
ENDBRANCH   9   8
BRANCH  12  13
ATOM     13  C   UNL     1      -0.832   1.812  25.222  0.00  0.00    +0.148 C 
BRANCH  13  14
ATOM     14  N   UNL     1      -1.121   2.570  25.078  0.00  0.00    -0.199 NA
ATOM     15  C   UNL     1      -0.786   3.220  25.461  0.00  0.00    +0.271 C 
ATOM     16  O   UNL     1      -0.161   3.110  25.988  0.00  0.00    -0.268 OA
BRANCH  15  17
ATOM     17  C   UNL     1      -1.075   3.978  25.316  0.00  0.00    +0.084 A 
ATOM     18  C   UNL     1      -0.673   4.586  24.930  0.00  0.00    +0.012 A 
ATOM     19  C   UNL     1      -1.167   5.246  24.907  0.00  0.00    +0.008 A 
ATOM     20  C   UNL     1      -1.875   5.046  25.280  0.00  0.00    +0.036 A 
ATOM     21  S   UNL     1      -1.819   4.263  25.533  0.00  0.00    -0.082 S 
ENDBRANCH  15  17
ENDBRANCH  13  14
ENDBRANCH  12  13
TORSDOF 6
ENDMDL
MODEL 4
REMARK VINA RESULT:      -7.8      1.751      5.662
REMARK  Name = 
REMARK  6 active torsions:
REMARK  status: ('A' for Active; 'I' for Inactive)
REMARK    1  A    between atoms: C_6  and  C_7
REMARK    2  A    between atoms: C_7  and  N_8
REMARK    3  A    between atoms: N_8  and  C_9
REMARK    4  A    between atoms: C_12  and  C_13
REMARK    5  A    between atoms: C_13  and  N_14
REMARK    6  A    between atoms: C_15  and  C_17
REMARK                            x       y       z     vdW  Elec       q    Type
REMARK                         _______ _______ _______ _____ _____    ______ ____
ROOT
ATOM      9  C   UNL     1      -2.565   2.143  24.875  0.00  0.00    +0.136 C 
ATOM     10  C   UNL     1      -2.003   1.556  25.021  0.00  0.00    +0.162 C 
ATOM     11  O   UNL     1      -2.359   0.824  24.891  0.00  0.00    -0.350 OA
ATOM     12  C   UNL     1      -3.141   0.957  24.665  0.00  0.00    +0.169 C 
ATOM     22  C   UNL     1      -3.268   1.773  24.655  0.00  0.00    +0.199 C 
ATOM     23  O   UNL     1      -3.975   2.151  24.460  0.00  0.00    -0.219 OA
ENDROOT
BRANCH   9   8
ATOM      8  N   UNL     1      -2.444   2.956  24.938  0.00  0.00    -0.206 NA
BRANCH   8   7
ATOM      7  C   UNL     1      -1.678   3.257  24.997  0.00  0.00    +0.152 C 
BRANCH   7   6
ATOM      1  C   UNL     1      -0.164   4.122  24.571  0.00  0.00    +0.132 C 
ATOM      2  N   UNL     1      -0.861   4.469  24.845  0.00  0.00    -0.311 N 
ATOM      3  C   UNL     1      -0.984   5.275  24.972  0.00  0.00    +0.098 A 
ATOM      4  C   UNL     1      -1.756   5.375  25.246  0.00  0.00    +0.119 A 
ATOM      5  N   UNL     1      -2.110   4.631  25.289  0.00  0.00    -0.228 NA
ATOM      6  C   UNL     1      -1.556   4.072  25.041  0.00  0.00    +0.138 A 
ENDBRANCH   7   6
ENDBRANCH   8   7
ENDBRANCH   9   8
BRANCH  12  13
ATOM     13  C   UNL     1      -3.698   0.377  24.481  0.00  0.00    +0.148 C 
BRANCH  13  14
ATOM     14  N   UNL     1      -3.494  -0.420  24.526  0.00  0.00    -0.199 NA
ATOM     15  C   UNL     1      -4.063  -1.001  24.383  0.00  0.00    +0.271 C 
ATOM     16  O   UNL     1      -4.836  -0.783  24.196  0.00  0.00    -0.268 OA
BRANCH  15  17
ATOM     17  C   UNL     1      -3.858  -1.798  24.428  0.00  0.00    +0.084 A 
ATOM     18  C   UNL     1      -4.015  -2.372  23.856  0.00  0.00    +0.012 A 
ATOM     19  C   UNL     1      -3.714  -3.091  24.126  0.00  0.00    +0.008 A 
ATOM     20  C   UNL     1      -3.372  -2.962  24.865  0.00  0.00    +0.036 A 
ATOM     21  S   UNL     1      -3.461  -2.163  25.052  0.00  0.00    -0.082 S 
ENDBRANCH  15  17
ENDBRANCH  13  14
ENDBRANCH  12  13
TORSDOF 6
ENDMDL
MODEL 5
REMARK VINA RESULT:      -7.1      2.839      3.858
REMARK  Name = 
REMARK  6 active torsions:
REMARK  status: ('A' for Active; 'I' for Inactive)
REMARK    1  A    between atoms: C_6  and  C_7
REMARK    2  A    between atoms: C_7  and  N_8
REMARK    3  A    between atoms: N_8  and  C_9
REMARK    4  A    between atoms: C_12  and  C_13
REMARK    5  A    between atoms: C_13  and  N_14
REMARK    6  A    between atoms: C_15  and  C_17
REMARK                            x       y       z     vdW  Elec       q    Type
REMARK                         _______ _______ _______ _____ _____    ______ ____
ROOT
ATOM      9  C   UNL     1      -1.091   1.982  24.407  0.00  0.00    +0.136 C 
ATOM     10  C   UNL     1      -1.114   2.091  25.225  0.00  0.00    +0.162 C 
ATOM     11  O   UNL     1      -1.810   2.494  25.409  0.00  0.00    -0.350 OA
ATOM     12  C   UNL     1      -2.217   2.633  24.706  0.00  0.00    +0.169 C 
ATOM     22  C   UNL     1      -1.773   2.317  24.087  0.00  0.00    +0.199 C 
ATOM     23  O   UNL     1      -1.975   2.333  23.287  0.00  0.00    -0.219 OA
ENDROOT
BRANCH   9   8
ATOM      8  N   UNL     1      -0.492   1.604  23.986  0.00  0.00    -0.206 NA
BRANCH   8   7
ATOM      7  C   UNL     1      -0.237   0.853  24.213  0.00  0.00    +0.152 C 
BRANCH   7   6
ATOM      1  C   UNL     1      -0.154  -0.932  24.042  0.00  0.00    +0.132 C 
ATOM      2  N   UNL     1       0.331  -0.385  23.659  0.00  0.00    -0.311 N 
ATOM      3  C   UNL     1       0.938  -0.562  23.131  0.00  0.00    +0.098 A 
ATOM      4  C   UNL     1       1.276   0.149  22.883  0.00  0.00    +0.119 A 
ATOM      5  N   UNL     1       0.877   0.766  23.258  0.00  0.00    -0.228 NA
ATOM      6  C   UNL     1       0.293   0.435  23.738  0.00  0.00    +0.138 A 
ENDBRANCH   7   6
ENDBRANCH   8   7
ENDBRANCH   9   8
BRANCH  12  13
ATOM     13  C   UNL     1      -2.942   3.022  24.633  0.00  0.00    +0.148 C 
BRANCH  13  14
ATOM     14  N   UNL     1      -3.633   2.658  24.898  0.00  0.00    -0.199 NA
ATOM     15  C   UNL     1      -4.347   3.071  24.888  0.00  0.00    +0.271 C 
ATOM     16  O   UNL     1      -4.370   3.848  24.613  0.00  0.00    -0.268 OA
BRANCH  15  17
ATOM     17  C   UNL     1      -5.038   2.707  25.153  0.00  0.00    +0.084 A 
ATOM     18  C   UNL     1      -5.433   2.087  24.779  0.00  0.00    +0.012 A 
ATOM     19  C   UNL     1      -6.095   1.895  25.233  0.00  0.00    +0.008 A 
ATOM     20  C   UNL     1      -6.108   2.396  25.888  0.00  0.00    +0.036 A 
ATOM     21  S   UNL     1      -5.455   2.897  25.839  0.00  0.00    -0.082 S 
ENDBRANCH  15  17
ENDBRANCH  13  14
ENDBRANCH  12  13
TORSDOF 6
ENDMDL
MODEL 6
REMARK VINA RESULT:      -6.8      3.058      4.575
REMARK  Name = 
REMARK  6 active torsions:
REMARK  status: ('A' for Active; 'I' for Inactive)
REMARK    1  A    between atoms: C_6  and  C_7
REMARK    2  A    between atoms: C_7  and  N_8
REMARK    3  A    between atoms: N_8  and  C_9
REMARK    4  A    between atoms: C_12  and  C_13
REMARK    5  A    between atoms: C_13  and  N_14
REMARK    6  A    between atoms: C_15  and  C_17
REMARK                            x       y       z     vdW  Elec       q    Type
REMARK                         _______ _______ _______ _____ _____    ______ ____
ROOT
ATOM      9  C   UNL     1      -2.785   1.305  24.318  0.00  0.00    +0.136 C 
ATOM     10  C   UNL     1      -2.384   1.762  23.760  0.00  0.00    +0.162 C 
ATOM     11  O   UNL     1      -1.643   1.420  23.636  0.00  0.00    -0.350 OA
ATOM     12  C   UNL     1      -1.587   0.753  24.117  0.00  0.00    +0.169 C 
ATOM     22  C   UNL     1      -2.293   0.682  24.538  0.00  0.00    +0.199 C 
ATOM     23  O   UNL     1      -2.474   0.090  25.085  0.00  0.00    -0.219 OA
ENDROOT
BRANCH   9   8
ATOM      8  N   UNL     1      -3.545   1.448  24.604  0.00  0.00    -0.206 NA
BRANCH   8   7
ATOM      7  C   UNL     1      -3.809   2.222  24.708  0.00  0.00    +0.152 C 
BRANCH   7   6
ATOM      1  C   UNL     1      -4.328   3.678  25.621  0.00  0.00    +0.132 C 
ATOM      2  N   UNL     1      -4.804   3.033  25.425  0.00  0.00    -0.311 N 
ATOM      3  C   UNL     1      -5.602   2.944  25.614  0.00  0.00    +0.098 A 
ATOM      4  C   UNL     1      -5.857   2.220  25.311  0.00  0.00    +0.119 A 
ATOM      5  N   UNL     1      -5.216   1.862  24.934  0.00  0.00    -0.228 NA
ATOM      6  C   UNL     1      -4.566   2.364  25.005  0.00  0.00    +0.138 A 
ENDBRANCH   7   6
ENDBRANCH   8   7
ENDBRANCH   9   8
BRANCH  12  13
ATOM     13  C   UNL     1      -0.938   0.245  24.169  0.00  0.00    +0.148 C 
BRANCH  13  14
ATOM     14  N   UNL     1      -0.304   0.332  23.650  0.00  0.00    -0.199 NA
ATOM     15  C   UNL     1       0.307  -0.223  23.647  0.00  0.00    +0.271 C 
ATOM     16  O   UNL     1       0.282  -0.865  24.163  0.00  0.00    -0.268 OA
BRANCH  15  17
ATOM     17  C   UNL     1       0.941  -0.135  23.127  0.00  0.00    +0.084 A 
ATOM     18  C   UNL     1       0.967  -0.398  22.345  0.00  0.00    +0.012 A 
ATOM     19  C   UNL     1       1.703  -0.195  22.032  0.00  0.00    +0.008 A 
ATOM     20  C   UNL     1       2.131   0.193  22.620  0.00  0.00    +0.036 A 
ATOM     21  S   UNL     1       1.661   0.230  23.296  0.00  0.00    -0.082 S 
ENDBRANCH  15  17
ENDBRANCH  13  14
ENDBRANCH  12  13
TORSDOF 6
ENDMDL
