MODEL 1
REMARK VINA RESULT:     -12.3      0.000      0.000
REMARK  Name = 
REMARK  7 active torsions:
REMARK  status: ('A' for Active; 'I' for Inactive)
REMARK    1  A    between atoms: C_2  and  C_4
REMARK    2  A    between atoms: C_4  and  C_5
REMARK    3  A    between atoms: C_10  and  C_11
REMARK    4  A    between atoms: C_11  and  C_12
REMARK    5  A    between atoms: C_12  and  N_13
REMARK    6  A    between atoms: N_16  and  C_19
REMARK    7  A    between atoms: C_26  and  C_28
REMARK                            x       y       z     vdW  Elec       q    Type
REMARK                         _______ _______ _______ _____ _____    ______ ____
ROOT
ATOM      5  C   UNL     1      -4.089   3.571  25.249  0.00  0.00    +0.015 C 
ATOM      6  C   UNL     1      -3.876   4.365  25.318  0.00  0.00    +0.022 C 
ATOM      7  C   UNL     1      -3.079   4.578  25.340  0.00  0.00    +0.093 C 
ATOM      8  N   UNL     1      -2.495   3.996  25.292  0.00  0.00    -0.280 N 
ATOM      9  C   UNL     1      -2.710   3.202  25.224  0.00  0.00    +0.093 C 
ATOM     10  C   UNL     1      -3.506   2.990  25.202  0.00  0.00    +0.022 C 
ATOM     26  C   UNL     1      -1.699   4.208  25.314  0.00  0.00    +0.225 C 
ATOM     27  O   UNL     1      -1.485   5.002  25.383  0.00  0.00    -0.275 OA
ENDROOT
BRANCH  26  28
ATOM     28  C   UNL     1      -1.116   3.627  25.267  0.00  0.00    +0.077 C 
ATOM     29  C   UNL     1      -0.880   3.222  25.946  0.00  0.00    +0.009 C 
ATOM     30  C   UNL     1      -0.297   2.641  25.898  0.00  0.00    +0.000 C 
ATOM     31  C   UNL     1       0.052   2.465  25.171  0.00  0.00    +0.000 C 
ATOM     32  C   UNL     1      -0.184   2.870  24.492  0.00  0.00    +0.000 C 
ATOM     33  C   UNL     1      -0.768   3.451  24.540  0.00  0.00    +0.009 C 
ENDBRANCH  26  28
BRANCH   5   4
ATOM      4  C   UNL     1      -4.887   3.359  25.227  0.00  0.00    +0.114 C 
BRANCH   4   2
ATOM      1  O   UNL     1      -5.806   4.438  25.407  0.00  0.00    -0.246 OA
ATOM      2  C   UNL     1      -5.433   3.761  25.697  0.00  0.00    +0.365 C 
ATOM      3  O   UNL     1      -5.607   3.487  26.455  0.00  0.00    -0.246 OA
ENDBRANCH   4   2
ENDBRANCH   5   4
BRANCH  10  11
ATOM     11  C   UNL     1      -3.720   2.197  25.133  0.00  0.00    +0.019 C 
BRANCH  11  12
ATOM     12  C   UNL     1      -3.567   1.787  24.432  0.00  0.00    +0.072 C 
BRANCH  12  13
ATOM     13  N   UNL     1      -3.600   0.963  24.421  0.00  0.00    -0.270 NA
ATOM     14  C   UNL     1      -4.283   0.573  24.668  0.00  0.00    +0.094 C 
ATOM     15  C   UNL     1      -4.316  -0.251  24.657  0.00  0.00    +0.108 C 
ATOM     16  N   UNL     1      -3.664  -0.686  24.398  0.00  0.00    -0.305 N 
ATOM     17  C   UNL     1      -2.980  -0.297  24.150  0.00  0.00    +0.108 C 
ATOM     18  C   UNL     1      -2.948   0.528  24.161  0.00  0.00    +0.094 C 
BRANCH  16  19
ATOM     19  C   UNL     1      -3.695  -1.510  24.386  0.00  0.00    +0.048 A 
ATOM     20  C   UNL     1      -3.281  -1.946  24.951  0.00  0.00    +0.017 A 
ATOM     21  C   UNL     1      -3.312  -2.770  24.939  0.00  0.00    +0.031 A 
ATOM     22  C   UNL     1      -3.757  -3.158  24.364  0.00  0.00    +0.140 A 
ATOM     23  F   UNL     1      -3.788  -3.983  24.353  0.00  0.00    -0.204 F 
ATOM     24  C   UNL     1      -4.172  -2.723  23.799  0.00  0.00    +0.031 A 
ATOM     25  C   UNL     1      -4.140  -1.898  23.811  0.00  0.00    +0.017 A 
ENDBRANCH  16  19
ENDBRANCH  12  13
ENDBRANCH  11  12
ENDBRANCH  10  11
TORSDOF 7
ENDMDL
MODEL 2
REMARK VINA RESULT:     -11.1      3.083      4.930
REMARK  Name = 
REMARK  7 active torsions:
REMARK  status: ('A' for Active; 'I' for Inactive)
REMARK    1  A    between atoms: C_2  and  C_4
REMARK    2  A    between atoms: C_4  and  C_5
REMARK    3  A    between atoms: C_10  and  C_11
REMARK    4  A    between atoms: C_11  and  C_12
REMARK    5  A    between atoms: C_12  and  N_13
REMARK    6  A    between atoms: N_16  and  C_19
REMARK    7  A    between atoms: C_26  and  C_28
REMARK                            x       y       z     vdW  Elec       q    Type
REMARK                         _______ _______ _______ _____ _____    ______ ____
ROOT
ATOM      5  C   UNL     1      -3.581  -0.677  24.585  0.00  0.00    +0.015 C 
ATOM      6  C   UNL     1      -4.347  -0.619  24.888  0.00  0.00    +0.022 C 
ATOM      7  C   UNL     1      -4.688   0.122  25.006  0.00  0.00    +0.093 C 
ATOM      8  N   UNL     1      -4.264   0.806  24.822  0.00  0.00    -0.280 N 
ATOM      9  C   UNL     1      -3.499   0.748  24.520  0.00  0.00    +0.093 C 
ATOM     10  C   UNL     1      -3.157   0.006  24.401  0.00  0.00    +0.022 C 
ATOM     26  C   UNL     1      -4.605   1.547  24.941  0.00  0.00    +0.225 C 
ATOM     27  O   UNL     1      -5.371   1.605  25.244  0.00  0.00    -0.275 OA
ENDROOT
BRANCH  26  28
ATOM     28  C   UNL     1      -4.182   2.231  24.757  0.00  0.00    +0.077 C 
ATOM     29  C   UNL     1      -3.752   2.621  25.344  0.00  0.00    +0.009 C 
ATOM     30  C   UNL     1      -3.330   3.304  25.159  0.00  0.00    +0.000 C 
ATOM     31  C   UNL     1      -3.336   3.599  24.389  0.00  0.00    +0.000 C 
ATOM     32  C   UNL     1      -3.766   3.209  23.802  0.00  0.00    +0.000 C 
ATOM     33  C   UNL     1      -4.189   2.524  23.986  0.00  0.00    +0.009 C 
ENDBRANCH  26  28
BRANCH   5   4
ATOM      4  C   UNL     1      -3.239  -1.419  24.466  0.00  0.00    +0.114 C 
BRANCH   4   2
ATOM      1  O   UNL     1      -4.170  -2.378  23.960  0.00  0.00    -0.246 OA
ATOM      2  C   UNL     1      -3.690  -2.102  24.572  0.00  0.00    +0.365 C 
ATOM      3  O   UNL     1      -3.661  -2.509  25.288  0.00  0.00    -0.246 OA
ENDBRANCH   4   2
ENDBRANCH   5   4
BRANCH  10  11
ATOM     11  C   UNL     1      -2.393  -0.051  24.099  0.00  0.00    +0.019 C 
BRANCH  11  12
ATOM     12  C   UNL     1      -1.754   0.246  24.531  0.00  0.00    +0.072 C 
BRANCH  12  13
ATOM     13  N   UNL     1      -1.003   0.270  24.191  0.00  0.00    -0.270 NA
ATOM     14  C   UNL     1      -0.737   0.958  23.822  0.00  0.00    +0.094 C 
ATOM     15  C   UNL     1       0.014   0.982  23.483  0.00  0.00    +0.108 C 
ATOM     16  N   UNL     1       0.501   0.316  23.513  0.00  0.00    -0.305 N 
ATOM     17  C   UNL     1       0.236  -0.373  23.882  0.00  0.00    +0.108 C 
ATOM     18  C   UNL     1      -0.516  -0.396  24.221  0.00  0.00    +0.094 C 
BRANCH  16  19
ATOM     19  C   UNL     1       1.253   0.338  23.174  0.00  0.00    +0.048 A 
ATOM     20  C   UNL     1       1.438  -0.168  22.549  0.00  0.00    +0.017 A 
ATOM     21  C   UNL     1       2.190  -0.146  22.210  0.00  0.00    +0.031 A 
ATOM     22  C   UNL     1       2.755   0.381  22.495  0.00  0.00    +0.140 A 
ATOM     23  F   UNL     1       3.508   0.403  22.156  0.00  0.00    -0.204 F 
ATOM     24  C   UNL     1       2.571   0.887  23.120  0.00  0.00    +0.031 A 
ATOM     25  C   UNL     1       1.818   0.865  23.460  0.00  0.00    +0.017 A 
ENDBRANCH  16  19
ENDBRANCH  12  13
ENDBRANCH  11  12
ENDBRANCH  10  11
TORSDOF 7
ENDMDL
MODEL 3
REMARK VINA RESULT:     -11.0      1.019      3.079
REMARK  Name = 
REMARK  7 active torsions:
REMARK  status: ('A' for Active; 'I' for Inactive)
REMARK    1  A    between atoms: C_2  and  C_4
REMARK    2  A    between atoms: C_4  and  C_5
REMARK    3  A    between atoms: C_10  and  C_11
REMARK    4  A    between atoms: C_11  and  C_12
REMARK    5  A    between atoms: C_12  and  N_13
REMARK    6  A    between atoms: N_16  and  C_19
REMARK    7  A    between atoms: C_26  and  C_28
REMARK                            x       y       z     vdW  Elec       q    Type
REMARK                         _______ _______ _______ _____ _____    ______ ____
ROOT
ATOM      5  C   UNL     1      -1.944   3.408  25.052  0.00  0.00    +0.015 C 
ATOM      6  C   UNL     1      -2.228   4.139  25.308  0.00  0.00    +0.022 C 
ATOM      7  C   UNL     1      -3.033   4.241  25.453  0.00  0.00    +0.093 C 
ATOM      8  N   UNL     1      -3.556   3.611  25.341  0.00  0.00    -0.280 N 
ATOM      9  C   UNL     1      -3.271   2.880  25.086  0.00  0.00    +0.093 C 
ATOM     10  C   UNL     1      -2.465   2.779  24.941  0.00  0.00    +0.022 C 
ATOM     26  C   UNL     1      -4.361   3.713  25.486  0.00  0.00    +0.225 C 
ATOM     27  O   UNL     1      -4.645   4.444  25.742  0.00  0.00    -0.275 OA
ENDROOT
BRANCH  26  28
ATOM     28  C   UNL     1      -4.883   3.084  25.375  0.00  0.00    +0.077 C 
ATOM     29  C   UNL     1      -5.113   2.868  24.612  0.00  0.00    +0.009 C 
ATOM     30  C   UNL     1      -5.635   2.239  24.502  0.00  0.00    +0.000 C 
ATOM     31  C   UNL     1      -5.927   1.825  25.154  0.00  0.00    +0.000 C 
ATOM     32  C   UNL     1      -5.697   2.041  25.916  0.00  0.00    +0.000 C 
ATOM     33  C   UNL     1      -5.174   2.671  26.027  0.00  0.00    +0.009 C 
ENDBRANCH  26  28
BRANCH   5   4
ATOM      4  C   UNL     1      -1.137   3.306  24.908  0.00  0.00    +0.114 C 
BRANCH   4   2
ATOM      1  O   UNL     1      -0.335   4.372  25.421  0.00  0.00    -0.246 OA
ATOM      2  C   UNL     1      -0.655   3.964  24.779  0.00  0.00    +0.365 C 
ATOM      3  O   UNL     1      -0.494   4.213  24.010  0.00  0.00    -0.246 OA
ENDBRANCH   4   2
ENDBRANCH   5   4
BRANCH  10  11
ATOM     11  C   UNL     1      -2.181   2.048  24.686  0.00  0.00    +0.019 C 
BRANCH  11  12
ATOM     12  C   UNL     1      -2.076   1.434  25.227  0.00  0.00    +0.072 C 
BRANCH  12  13
ATOM     13  N   UNL     1      -2.356   0.677  25.052  0.00  0.00    -0.270 NA
ATOM     14  C   UNL     1      -2.434   0.437  24.267  0.00  0.00    +0.094 C 
ATOM     15  C   UNL     1      -2.714  -0.319  24.092  0.00  0.00    +0.108 C 
ATOM     16  N   UNL     1      -2.915  -0.835  24.703  0.00  0.00    -0.305 N 
ATOM     17  C   UNL     1      -2.837  -0.596  25.488  0.00  0.00    +0.108 C 
ATOM     18  C   UNL     1      -2.557   0.161  25.663  0.00  0.00    +0.094 C 
BRANCH  16  19
ATOM     19  C   UNL     1      -3.195  -1.591  24.529  0.00  0.00    +0.048 A 
ATOM     20  C   UNL     1      -3.907  -1.684  24.122  0.00  0.00    +0.017 A 
ATOM     21  C   UNL     1      -4.187  -2.440  23.948  0.00  0.00    +0.031 A 
ATOM     22  C   UNL     1      -3.756  -3.103  24.180  0.00  0.00    +0.140 A 
ATOM     23  F   UNL     1      -4.036  -3.860  24.006  0.00  0.00    -0.204 F 
ATOM     24  C   UNL     1      -3.044  -3.011  24.587  0.00  0.00    +0.031 A 
ATOM     25  C   UNL     1      -2.764  -2.254  24.761  0.00  0.00    +0.017 A 
ENDBRANCH  16  19
ENDBRANCH  12  13
ENDBRANCH  11  12
ENDBRANCH  10  11
TORSDOF 7
ENDMDL
MODEL 4
REMARK VINA RESULT:     -10.8      2.757      4.831
REMARK  Name = 
REMARK  7 active torsions:
REMARK  status: ('A' for Active; 'I' for Inactive)
REMARK    1  A    between atoms: C_2  and  C_4
REMARK    2  A    between atoms: C_4  and  C_5
REMARK    3  A    between atoms: C_10  and  C_11
REMARK    4  A    between atoms: C_11  and  C_12
REMARK    5  A    between atoms: C_12  and  N_13
REMARK    6  A    between atoms: N_16  and  C_19
REMARK    7  A    between atoms: C_26  and  C_28
REMARK                            x       y       z     vdW  Elec       q    Type
REMARK                         _______ _______ _______ _____ _____    ______ ____
ROOT
ATOM      5  C   UNL     1      -3.185   2.174  24.555  0.00  0.00    +0.015 C 
ATOM      6  C   UNL     1      -3.947   2.218  24.868  0.00  0.00    +0.022 C 
ATOM      7  C   UNL     1      -4.358   1.527  25.052  0.00  0.00    +0.093 C 
ATOM      8  N   UNL     1      -4.006   0.791  24.923  0.00  0.00    -0.280 N 
ATOM      9  C   UNL     1      -3.244   0.748  24.610  0.00  0.00    +0.093 C 
ATOM     10  C   UNL     1      -2.833   1.439  24.426  0.00  0.00    +0.022 C 
ATOM     26  C   UNL     1      -4.416   0.100  25.107  0.00  0.00    +0.225 C 
ATOM     27  O   UNL     1      -5.179   0.144  25.420  0.00  0.00    -0.275 OA
ENDROOT
BRANCH  26  28
ATOM     28  C   UNL     1      -4.066  -0.635  24.978  0.00  0.00    +0.077 C 
ATOM     29  C   UNL     1      -3.642  -1.002  25.583  0.00  0.00    +0.009 C 
ATOM     30  C   UNL     1      -3.291  -1.737  25.454  0.00  0.00    +0.000 C 
ATOM     31  C   UNL     1      -3.364  -2.106  24.719  0.00  0.00    +0.000 C 
ATOM     32  C   UNL     1      -3.788  -1.739  24.114  0.00  0.00    +0.000 C 
ATOM     33  C   UNL     1      -4.139  -1.003  24.243  0.00  0.00    +0.009 C 
ENDBRANCH  26  28
BRANCH   5   4
ATOM      4  C   UNL     1      -2.773   2.866  24.371  0.00  0.00    +0.114 C 
BRANCH   4   2
ATOM      1  O   UNL     1      -2.952   4.010  25.208  0.00  0.00    -0.246 OA
ATOM      2  C   UNL     1      -3.120   3.601  24.512  0.00  0.00    +0.365 C 
ATOM      3  O   UNL     1      -3.636   3.928  23.957  0.00  0.00    -0.246 OA
ENDBRANCH   4   2
ENDBRANCH   5   4
BRANCH  10  11
ATOM     11  C   UNL     1      -2.072   1.395  24.113  0.00  0.00    +0.019 C 
BRANCH  11  12
ATOM     12  C   UNL     1      -1.467   1.037  24.547  0.00  0.00    +0.072 C 
BRANCH  12  13
ATOM     13  N   UNL     1      -0.729   0.913  24.200  0.00  0.00    -0.270 NA
ATOM     14  C   UNL     1      -0.550   0.185  23.855  0.00  0.00    +0.094 C 
ATOM     15  C   UNL     1       0.187   0.062  23.509  0.00  0.00    +0.108 C 
ATOM     16  N   UNL     1       0.748   0.667  23.507  0.00  0.00    -0.305 N 
ATOM     17  C   UNL     1       0.571   1.395  23.852  0.00  0.00    +0.108 C 
ATOM     18  C   UNL     1      -0.168   1.518  24.199  0.00  0.00    +0.094 C 
BRANCH  16  19
ATOM     19  C   UNL     1       1.487   0.545  23.161  0.00  0.00    +0.048 A 
ATOM     20  C   UNL     1       2.141   0.976  23.423  0.00  0.00    +0.017 A 
ATOM     21  C   UNL     1       2.880   0.853  23.076  0.00  0.00    +0.031 A 
ATOM     22  C   UNL     1       2.965   0.302  22.470  0.00  0.00    +0.140 A 
ATOM     23  F   UNL     1       3.704   0.180  22.124  0.00  0.00    -0.204 F 
ATOM     24  C   UNL     1       2.312  -0.129  22.209  0.00  0.00    +0.031 A 
ATOM     25  C   UNL     1       1.572  -0.007  22.555  0.00  0.00    +0.017 A 
ENDBRANCH  16  19
ENDBRANCH  12  13
ENDBRANCH  11  12
ENDBRANCH  10  11
TORSDOF 7
ENDMDL
MODEL 5
REMARK VINA RESULT:     -10.6      3.022      5.102
REMARK  Name = 
REMARK  7 active torsions:
REMARK  status: ('A' for Active; 'I' for Inactive)
REMARK    1  A    between atoms: C_2  and  C_4
REMARK    2  A    between atoms: C_4  and  C_5
REMARK    3  A    between atoms: C_10  and  C_11
REMARK    4  A    between atoms: C_11  and  C_12
REMARK    5  A    between atoms: C_12  and  N_13
REMARK    6  A    between atoms: N_16  and  C_19
REMARK    7  A    between atoms: C_26  and  C_28
REMARK                            x       y       z     vdW  Elec       q    Type
REMARK                         _______ _______ _______ _____ _____    ______ ____
ROOT
ATOM      5  C   UNL     1      -2.788  -1.793  24.580  0.00  0.00    +0.015 C 
ATOM      6  C   UNL     1      -2.110  -2.253  24.473  0.00  0.00    +0.022 C 
ATOM      7  C   UNL     1      -1.366  -1.897  24.477  0.00  0.00    +0.093 C 
ATOM      8  N   UNL     1      -1.299  -1.081  24.588  0.00  0.00    -0.280 N 
ATOM      9  C   UNL     1      -1.977  -0.623  24.694  0.00  0.00    +0.093 C 
ATOM     10  C   UNL     1      -2.721  -0.979  24.690  0.00  0.00    +0.022 C 
ATOM     26  C   UNL     1      -0.556  -0.726  24.592  0.00  0.00    +0.225 C 
ATOM     27  O   UNL     1       0.122  -1.185  24.486  0.00  0.00    -0.275 OA
ENDROOT
BRANCH  26  28
ATOM     28  C   UNL     1      -0.488   0.089  24.702  0.00  0.00    +0.077 C 
ATOM     29  C   UNL     1      -0.567   0.412  25.457  0.00  0.00    +0.009 C 
ATOM     30  C   UNL     1      -0.500   1.226  25.566  0.00  0.00    +0.000 C 
ATOM     31  C   UNL     1      -0.353   1.719  24.921  0.00  0.00    +0.000 C 
ATOM     32  C   UNL     1      -0.274   1.396  24.166  0.00  0.00    +0.000 C 
ATOM     33  C   UNL     1      -0.342   0.580  24.056  0.00  0.00    +0.009 C 
ENDBRANCH  26  28
BRANCH   5   4
ATOM      4  C   UNL     1      -3.533  -2.150  24.575  0.00  0.00    +0.114 C 
BRANCH   4   2
ATOM      1  O   UNL     1      -3.544  -3.389  25.287  0.00  0.00    -0.246 OA
ATOM      2  C   UNL     1      -3.596  -2.973  24.576  0.00  0.00    +0.365 C 
ATOM      3  O   UNL     1      -3.711  -3.379  23.868  0.00  0.00    -0.246 OA
ENDBRANCH   4   2
ENDBRANCH   5   4
BRANCH  10  11
ATOM     11  C   UNL     1      -3.398  -0.520  24.796  0.00  0.00    +0.019 C 
BRANCH  11  12
ATOM     12  C   UNL     1      -3.618   0.030  24.220  0.00  0.00    +0.072 C 
BRANCH  12  13
ATOM     13  N   UNL     1      -3.981   0.736  24.443  0.00  0.00    -0.270 NA
ATOM     14  C   UNL     1      -4.486   0.754  25.096  0.00  0.00    +0.094 C 
ATOM     15  C   UNL     1      -4.849   1.460  25.319  0.00  0.00    +0.108 C 
ATOM     16  N   UNL     1      -4.707   2.149  24.888  0.00  0.00    -0.305 N 
ATOM     17  C   UNL     1      -4.203   2.133  24.236  0.00  0.00    +0.108 C 
ATOM     18  C   UNL     1      -3.840   1.426  24.013  0.00  0.00    +0.094 C 
BRANCH  16  19
ATOM     19  C   UNL     1      -5.070   2.856  25.110  0.00  0.00    +0.048 A 
ATOM     20  C   UNL     1      -5.844   2.850  25.399  0.00  0.00    +0.017 A 
ATOM     21  C   UNL     1      -6.207   3.556  25.621  0.00  0.00    +0.031 A 
ATOM     22  C   UNL     1      -5.797   4.268  25.555  0.00  0.00    +0.140 A 
ATOM     23  F   UNL     1      -6.161   4.976  25.777  0.00  0.00    -0.204 F 
ATOM     24  C   UNL     1      -5.024   4.276  25.267  0.00  0.00    +0.031 A 
ATOM     25  C   UNL     1      -4.661   3.568  25.045  0.00  0.00    +0.017 A 
ENDBRANCH  16  19
ENDBRANCH  12  13
ENDBRANCH  11  12
ENDBRANCH  10  11
TORSDOF 7
ENDMDL
MODEL 6
REMARK VINA RESULT:     -10.4      3.036      5.580
REMARK  Name = 
REMARK  7 active torsions:
REMARK  status: ('A' for Active; 'I' for Inactive)
REMARK    1  A    between atoms: C_2  and  C_4
REMARK    2  A    between atoms: C_4  and  C_5
REMARK    3  A    between atoms: C_10  and  C_11
REMARK    4  A    between atoms: C_11  and  C_12
REMARK    5  A    between atoms: C_12  and  N_13
REMARK    6  A    between atoms: N_16  and  C_19
REMARK    7  A    between atoms: C_26  and  C_28
REMARK                            x       y       z     vdW  Elec       q    Type
REMARK                         _______ _______ _______ _____ _____    ______ ____
ROOT
ATOM      5  C   UNL     1      -0.151   0.166  23.881  0.00  0.00    +0.015 C 
ATOM      6  C   UNL     1       0.174  -0.592  23.848  0.00  0.00    +0.022 C 
ATOM      7  C   UNL     1      -0.261  -1.238  24.119  0.00  0.00    +0.093 C 
ATOM      8  N   UNL     1      -1.021  -1.127  24.421  0.00  0.00    -0.280 N 
ATOM      9  C   UNL     1      -1.345  -0.370  24.453  0.00  0.00    +0.093 C 
ATOM     10  C   UNL     1      -0.910   0.277  24.183  0.00  0.00    +0.022 C 
ATOM     26  C   UNL     1      -1.455  -1.773  24.692  0.00  0.00    +0.225 C 
ATOM     27  O   UNL     1      -1.131  -2.532  24.660  0.00  0.00    -0.275 OA
ENDROOT
BRANCH  26  28
ATOM     28  C   UNL     1      -2.215  -1.663  24.994  0.00  0.00    +0.077 C 
ATOM     29  C   UNL     1      -2.316  -1.408  25.772  0.00  0.00    +0.009 C 
ATOM     30  C   UNL     1      -3.076  -1.297  26.074  0.00  0.00    +0.000 C 
ATOM     31  C   UNL     1      -3.734  -1.442  25.598  0.00  0.00    +0.000 C 
ATOM     32  C   UNL     1      -3.633  -1.698  24.821  0.00  0.00    +0.000 C 
ATOM     33  C   UNL     1      -2.872  -1.808  24.518  0.00  0.00    +0.009 C 
ENDBRANCH  26  28
BRANCH   5   4
ATOM      4  C   UNL     1       0.284   0.814  23.610  0.00  0.00    +0.114 C 
BRANCH   4   2
ATOM      1  O   UNL     1       1.652   1.089  23.918  0.00  0.00    -0.246 OA
ATOM      2  C   UNL     1       1.087   0.727  23.438  0.00  0.00    +0.365 C 
ATOM      3  O   UNL     1       1.324   0.281  22.787  0.00  0.00    -0.246 OA
ENDBRANCH   4   2
ENDBRANCH   5   4
BRANCH  10  11
ATOM     11  C   UNL     1      -1.234   1.034  24.215  0.00  0.00    +0.019 C 
BRANCH  11  12
ATOM     12  C   UNL     1      -1.868   1.233  23.724  0.00  0.00    +0.072 C 
BRANCH  12  13
ATOM     13  N   UNL     1      -2.492   1.686  24.020  0.00  0.00    -0.270 NA
ATOM     14  C   UNL     1      -2.394   2.122  24.713  0.00  0.00    +0.094 C 
ATOM     15  C   UNL     1      -3.018   2.574  25.008  0.00  0.00    +0.108 C 
ATOM     16  N   UNL     1      -3.740   2.590  24.609  0.00  0.00    -0.305 N 
ATOM     17  C   UNL     1      -3.839   2.154  23.916  0.00  0.00    +0.108 C 
ATOM     18  C   UNL     1      -3.214   1.701  23.621  0.00  0.00    +0.094 C 
BRANCH  16  19
ATOM     19  C   UNL     1      -4.364   3.042  24.904  0.00  0.00    +0.048 A 
ATOM     20  C   UNL     1      -4.315   3.866  24.896  0.00  0.00    +0.017 A 
ATOM     21  C   UNL     1      -4.940   4.318  25.190  0.00  0.00    +0.031 A 
ATOM     22  C   UNL     1      -5.611   3.947  25.492  0.00  0.00    +0.140 A 
ATOM     23  F   UNL     1      -6.236   4.400  25.786  0.00  0.00    -0.204 F 
ATOM     24  C   UNL     1      -5.660   3.124  25.500  0.00  0.00    +0.031 A 
ATOM     25  C   UNL     1      -5.035   2.671  25.205  0.00  0.00    +0.017 A 
ENDBRANCH  16  19
ENDBRANCH  12  13
ENDBRANCH  11  12
ENDBRANCH  10  11
TORSDOF 7
ENDMDL
MODEL 7
REMARK VINA RESULT:     -10.0      3.149      6.092
REMARK  Name = 
REMARK  7 active torsions:
REMARK  status: ('A' for Active; 'I' for Inactive)
REMARK    1  A    between atoms: C_2  and  C_4
REMARK    2  A    between atoms: C_4  and  C_5
REMARK    3  A    between atoms: C_10  and  C_11
REMARK    4  A    between atoms: C_11  and  C_12
REMARK    5  A    between atoms: C_12  and  N_13
REMARK    6  A    between atoms: N_16  and  C_19
REMARK    7  A    between atoms: C_26  and  C_28
REMARK                            x       y       z     vdW  Elec       q    Type
REMARK                         _______ _______ _______ _____ _____    ______ ____
ROOT
ATOM      5  C   UNL     1      -1.286  -1.493  24.891  0.00  0.00    +0.015 C 
ATOM      6  C   UNL     1      -1.744  -2.161  24.734  0.00  0.00    +0.022 C 
ATOM      7  C   UNL     1      -2.561  -2.088  24.642  0.00  0.00    +0.093 C 
ATOM      8  N   UNL     1      -2.919  -1.347  24.705  0.00  0.00    -0.280 N 
ATOM      9  C   UNL     1      -2.460  -0.680  24.861  0.00  0.00    +0.093 C 
ATOM     10  C   UNL     1      -1.643  -0.753  24.954  0.00  0.00    +0.022 C 
ATOM     26  C   UNL     1      -3.735  -1.274  24.613  0.00  0.00    +0.225 C 
ATOM     27  O   UNL     1      -4.194  -1.942  24.456  0.00  0.00    -0.275 OA
ENDROOT
BRANCH  26  28
ATOM     28  C   UNL     1      -4.093  -0.534  24.676  0.00  0.00    +0.077 C 
ATOM     29  C   UNL     1      -4.301  -0.238  25.417  0.00  0.00    +0.009 C 
ATOM     30  C   UNL     1      -4.659   0.502  25.480  0.00  0.00    +0.000 C 
ATOM     31  C   UNL     1      -4.809   0.947  24.802  0.00  0.00    +0.000 C 
ATOM     32  C   UNL     1      -4.601   0.652  24.060  0.00  0.00    +0.000 C 
ATOM     33  C   UNL     1      -4.242  -0.089  23.997  0.00  0.00    +0.009 C 
ENDBRANCH  26  28
BRANCH   5   4
ATOM      4  C   UNL     1      -0.468  -1.566  24.983  0.00  0.00    +0.114 C 
BRANCH   4   2
ATOM      1  O   UNL     1      -0.174  -2.963  24.928  0.00  0.00    -0.246 OA
ATOM      2  C   UNL     1      -0.152  -2.244  25.332  0.00  0.00    +0.365 C 
ATOM      3  O   UNL     1       0.185  -2.204  26.083  0.00  0.00    -0.246 OA
ENDBRANCH   4   2
ENDBRANCH   5   4
BRANCH  10  11
ATOM     11  C   UNL     1      -1.185  -0.086  25.110  0.00  0.00    +0.019 C 
BRANCH  11  12
ATOM     12  C   UNL     1      -0.976   0.425  24.496  0.00  0.00    +0.072 C 
BRANCH  12  13
ATOM     13  N   UNL     1      -1.037   1.241  24.599  0.00  0.00    -0.270 NA
ATOM     14  C   UNL     1      -1.219   1.727  23.958  0.00  0.00    +0.094 C 
ATOM     15  C   UNL     1      -1.280   2.543  24.062  0.00  0.00    +0.108 C 
ATOM     16  N   UNL     1      -1.159   2.874  24.808  0.00  0.00    -0.305 N 
ATOM     17  C   UNL     1      -0.977   2.389  25.450  0.00  0.00    +0.108 C 
ATOM     18  C   UNL     1      -0.916   1.572  25.345  0.00  0.00    +0.094 C 
BRANCH  16  19
ATOM     19  C   UNL     1      -1.220   3.689  24.913  0.00  0.00    +0.048 A 
ATOM     20  C   UNL     1      -1.897   4.011  25.259  0.00  0.00    +0.017 A 
ATOM     21  C   UNL     1      -1.958   4.827  25.364  0.00  0.00    +0.031 A 
ATOM     22  C   UNL     1      -1.343   5.321  25.124  0.00  0.00    +0.140 A 
ATOM     23  F   UNL     1      -1.405   6.137  25.229  0.00  0.00    -0.204 F 
ATOM     24  C   UNL     1      -0.666   5.000  24.779  0.00  0.00    +0.031 A 
ATOM     25  C   UNL     1      -0.605   4.183  24.674  0.00  0.00    +0.017 A 
ENDBRANCH  16  19
ENDBRANCH  12  13
ENDBRANCH  11  12
ENDBRANCH  10  11
TORSDOF 7
ENDMDL
