MODEL 1
REMARK VINA RESULT:      -8.1      0.000      0.000
REMARK  Name = 
REMARK  8 active torsions:
REMARK  status: ('A' for Active; 'I' for Inactive)
REMARK    1  A    between atoms: O_2  and  C_3
REMARK    2  A    between atoms: C_6  and  C_7
REMARK    3  A    between atoms: C_7  and  N_8
REMARK    4  A    between atoms: C_17  and  C_18
REMARK    5  A    between atoms: C_18  and  C_19
REMARK    6  A    between atoms: C_19  and  C_20
REMARK    7  A    between atoms: N_22  and  C_23
REMARK    8  A    between atoms: C_23  and  C_24
REMARK                            x       y       z     vdW  Elec       q    Type
REMARK                         _______ _______ _______ _____ _____    ______ ____
ROOT
ATOM      8  N   UNL     1      -2.139   1.925  24.561  0.00  0.00    -0.262 NA
ATOM      9  C   UNL     1      -2.462   1.166  24.551  0.00  0.00    +0.074 C 
ATOM     10  C   UNL     1      -1.867   0.638  24.334  0.00  0.00    +0.035 C 
ATOM     11  C   UNL     1      -1.175   1.070  24.209  0.00  0.00    +0.083 C 
ATOM     12  C   UNL     1      -1.343   1.866  24.349  0.00  0.00    +0.151 C 
ATOM     13  C   UNL     1      -0.837   2.516  24.299  0.00  0.00    +0.257 C 
ATOM     14  O   UNL     1      -1.175   3.247  24.474  0.00  0.00    -0.272 OA
ATOM     15  N   UNL     1      -0.037   2.530  24.095  0.00  0.00    -0.203 NA
ATOM     16  C   UNL     1       0.453   1.898  23.892  0.00  0.00    +0.131 C 
ATOM     17  C   UNL     1       0.265   1.096  23.843  0.00  0.00    +0.080 C 
ATOM     29  N   UNL     1      -0.460   0.727  23.984  0.00  0.00    -0.271 NA
ATOM     30  C   UNL     1      -0.470  -0.091  23.887  0.00  0.00    +0.090 C 
ENDROOT
BRANCH   8   7
ATOM      7  C   UNL     1      -2.540   2.621  24.749  0.00  0.00    +0.100 C 
BRANCH   7   6
ATOM      3  C   UNL     1      -5.004   2.605  24.982  0.00  0.00    +0.139 A 
ATOM      4  C   UNL     1      -4.526   2.593  25.654  0.00  0.00    +0.037 A 
ATOM      5  C   UNL     1      -3.704   2.598  25.576  0.00  0.00    +0.000 A 
ATOM      6  C   UNL     1      -3.361   2.616  24.826  0.00  0.00    -0.006 A 
ATOM     31  C   UNL     1      -3.839   2.628  24.154  0.00  0.00    +0.000 A 
ATOM     32  C   UNL     1      -4.661   2.623  24.231  0.00  0.00    +0.037 A 
BRANCH   3   2
ATOM      1  C   UNL     1      -6.230   1.882  25.118  0.00  0.00    +0.252 C 
ATOM      2  O   UNL     1      -5.825   2.600  25.059  0.00  0.00    -0.471 OA
ENDBRANCH   3   2
ENDBRANCH   7   6
ENDBRANCH   8   7
BRANCH  17  18
ATOM     18  C   UNL     1       0.883   0.597  23.623  0.00  0.00    +0.027 C 
BRANCH  18  19
ATOM     19  C   UNL     1       1.544   0.903  23.236  0.00  0.00    +0.088 C 
BRANCH  19  20
ATOM     20  C   UNL     1       2.131   0.396  22.956  0.00  0.00    +0.242 C 
ATOM     21  O   UNL     1       1.932  -0.228  22.452  0.00  0.00    -0.273 OA
ATOM     22  N   UNL     1       2.917   0.510  23.180  0.00  0.00    -0.200 NA
BRANCH  22  23
ATOM     23  C   UNL     1       3.504   0.003  22.900  0.00  0.00    +0.148 C 
BRANCH  23  24
ATOM     24  C   UNL     1       4.270   0.049  23.204  0.00  0.00    +0.029 A 
ATOM     25  C   UNL     1       4.761   0.710  23.180  0.00  0.00    +0.004 A 
ATOM     26  C   UNL     1       5.473   0.510  23.547  0.00  0.00    +0.007 A 
ATOM     27  C   UNL     1       5.421  -0.273  23.797  0.00  0.00    +0.035 A 
ATOM     28  S   UNL     1       4.677  -0.560  23.585  0.00  0.00    -0.089 S 
ENDBRANCH  23  24
ENDBRANCH  22  23
ENDBRANCH  19  20
ENDBRANCH  18  19
ENDBRANCH  17  18
TORSDOF 8
ENDMDL
MODEL 2
REMARK VINA RESULT:      -6.4      2.294      7.109
REMARK  Name = 
REMARK  8 active torsions:
REMARK  status: ('A' for Active; 'I' for Inactive)
REMARK    1  A    between atoms: O_2  and  C_3
REMARK    2  A    between atoms: C_6  and  C_7
REMARK    3  A    between atoms: C_7  and  N_8
REMARK    4  A    between atoms: C_17  and  C_18
REMARK    5  A    between atoms: C_18  and  C_19
REMARK    6  A    between atoms: C_19  and  C_20
REMARK    7  A    between atoms: N_22  and  C_23
REMARK    8  A    between atoms: C_23  and  C_24
REMARK                            x       y       z     vdW  Elec       q    Type
REMARK                         _______ _______ _______ _____ _____    ______ ____
ROOT
ATOM      8  N   UNL     1       1.441   0.575  23.257  0.00  0.00    -0.262 NA
ATOM      9  C   UNL     1       1.597   1.289  23.639  0.00  0.00    +0.074 C 
ATOM     10  C   UNL     1       0.934   1.488  24.088  0.00  0.00    +0.035 C 
ATOM     11  C   UNL     1       0.368   0.896  23.984  0.00  0.00    +0.083 C 
ATOM     12  C   UNL     1       0.682   0.332  23.470  0.00  0.00    +0.151 C 
ATOM     13  C   UNL     1       0.333  -0.364  23.194  0.00  0.00    +0.257 C 
ATOM     14  O   UNL     1       0.794  -0.816  22.681  0.00  0.00    -0.272 OA
ATOM     15  N   UNL     1      -0.416  -0.666  23.364  0.00  0.00    -0.203 NA
ATOM     16  C   UNL     1      -1.000  -0.348  23.851  0.00  0.00    +0.131 C 
ATOM     17  C   UNL     1      -0.981   0.351  24.289  0.00  0.00    +0.080 C 
ATOM     29  N   UNL     1      -0.372   0.905  24.348  0.00  0.00    -0.271 NA
ATOM     30  C   UNL     1      -0.522   1.552  24.836  0.00  0.00    +0.090 C 
ENDROOT
BRANCH   8   7
ATOM      7  C   UNL     1       1.955   0.173  22.751  0.00  0.00    +0.100 C 
BRANCH   7   6
ATOM      3  C   UNL     1       4.403   0.412  23.028  0.00  0.00    +0.139 A 
ATOM      4  C   UNL     1       4.016  -0.251  23.332  0.00  0.00    +0.037 A 
ATOM      5  C   UNL     1       3.200  -0.330  23.240  0.00  0.00    +0.000 A 
ATOM      6  C   UNL     1       2.771   0.252  22.844  0.00  0.00    -0.006 A 
ATOM     31  C   UNL     1       3.157   0.915  22.540  0.00  0.00    +0.000 A 
ATOM     32  C   UNL     1       3.974   0.995  22.632  0.00  0.00    +0.037 A 
BRANCH   3   2
ATOM      1  C   UNL     1       5.616   0.040  23.686  0.00  0.00    +0.252 C 
ATOM      2  O   UNL     1       5.218   0.491  23.120  0.00  0.00    -0.471 OA
ENDBRANCH   3   2
ENDBRANCH   7   6
ENDBRANCH   8   7
BRANCH  17  18
ATOM     18  C   UNL     1      -1.660   0.519  24.726  0.00  0.00    +0.027 C 
BRANCH  18  19
ATOM     19  C   UNL     1      -2.401   0.301  24.437  0.00  0.00    +0.088 C 
BRANCH  19  20
ATOM     20  C   UNL     1      -3.061   0.328  24.931  0.00  0.00    +0.242 C 
ATOM     21  O   UNL     1      -3.132  -0.208  25.555  0.00  0.00    -0.273 OA
ATOM     22  N   UNL     1      -3.650   0.891  24.802  0.00  0.00    -0.200 NA
BRANCH  22  23
ATOM     23  C   UNL     1      -4.310   0.918  25.296  0.00  0.00    +0.148 C 
BRANCH  23  24
ATOM     24  C   UNL     1      -4.884   1.502  25.188  0.00  0.00    +0.029 A 
ATOM     25  C   UNL     1      -5.646   1.384  24.895  0.00  0.00    +0.004 A 
ATOM     26  C   UNL     1      -6.028   2.115  24.880  0.00  0.00    +0.007 A 
ATOM     27  C   UNL     1      -5.502   2.684  25.163  0.00  0.00    +0.035 A 
ATOM     28  S   UNL     1      -4.795   2.305  25.354  0.00  0.00    -0.089 S 
ENDBRANCH  23  24
ENDBRANCH  22  23
ENDBRANCH  19  20
ENDBRANCH  18  19
ENDBRANCH  17  18
TORSDOF 8
ENDMDL
MODEL 3
REMARK VINA RESULT:      -5.8     15.183     16.106
REMARK  Name = 
REMARK  8 active torsions:
REMARK  status: ('A' for Active; 'I' for Inactive)
REMARK    1  A    between atoms: O_2  and  C_3
REMARK    2  A    between atoms: C_6  and  C_7
REMARK    3  A    between atoms: C_7  and  N_8
REMARK    4  A    between atoms: C_17  and  C_18
REMARK    5  A    between atoms: C_18  and  C_19
REMARK    6  A    between atoms: C_19  and  C_20
REMARK    7  A    between atoms: N_22  and  C_23
REMARK    8  A    between atoms: C_23  and  C_24
REMARK                            x       y       z     vdW  Elec       q    Type
REMARK                         _______ _______ _______ _____ _____    ______ ____
ROOT
ATOM      8  N   UNL     1      -8.330  -9.755  16.460  0.00  0.00    -0.262 NA
ATOM      9  C   UNL     1      -7.839  -9.554  17.091  0.00  0.00    +0.074 C 
ATOM     10  C   UNL     1      -7.059  -9.574  16.824  0.00  0.00    +0.035 C 
ATOM     11  C   UNL     1      -7.068  -9.787  16.027  0.00  0.00    +0.083 C 
ATOM     12  C   UNL     1      -7.854  -9.899  15.802  0.00  0.00    +0.151 C 
ATOM     13  C   UNL     1      -8.152 -10.115  15.063  0.00  0.00    +0.257 C 
ATOM     14  O   UNL     1      -8.972 -10.182  15.014  0.00  0.00    -0.272 OA
ATOM     15  N   UNL     1      -7.737 -10.273  14.367  0.00  0.00    -0.203 NA
ATOM     16  C   UNL     1      -6.922 -10.254  14.238  0.00  0.00    +0.131 C 
ATOM     17  C   UNL     1      -6.321 -10.072  14.773  0.00  0.00    +0.080 C 
ATOM     29  N   UNL     1      -6.385  -9.864  15.569  0.00  0.00    -0.271 NA
ATOM     30  C   UNL     1      -5.675  -9.714  15.959  0.00  0.00    +0.090 C 
ENDROOT
BRANCH   8   7
ATOM      7  C   UNL     1      -9.154  -9.803  16.482  0.00  0.00    +0.100 C 
BRANCH   7   6
ATOM      3  C   UNL     1     -10.328  -9.939  18.656  0.00  0.00    +0.139 A 
ATOM      4  C   UNL     1     -10.240  -9.210  18.280  0.00  0.00    +0.037 A 
ATOM      5  C   UNL     1      -9.849  -9.164  17.554  0.00  0.00    +0.000 A 
ATOM      6  C   UNL     1      -9.545  -9.848  17.206  0.00  0.00    -0.006 A 
ATOM     31  C   UNL     1      -9.633 -10.577  17.582  0.00  0.00    +0.000 A 
ATOM     32  C   UNL     1     -10.024 -10.622  18.308  0.00  0.00    +0.037 A 
BRANCH   3   2
ATOM      1  C   UNL     1     -10.352 -10.343  20.027  0.00  0.00    +0.252 C 
ATOM      2  O   UNL     1     -10.719  -9.984  19.381  0.00  0.00    -0.471 OA
ENDBRANCH   3   2
ENDBRANCH   7   6
ENDBRANCH   8   7
BRANCH  17  18
ATOM     18  C   UNL     1      -5.554 -10.102  14.473  0.00  0.00    +0.027 C 
BRANCH  18  19
ATOM     19  C   UNL     1      -5.418 -10.398  13.715  0.00  0.00    +0.088 C 
BRANCH  19  20
ATOM     20  C   UNL     1      -4.654 -10.406  13.405  0.00  0.00    +0.242 C 
ATOM     21  O   UNL     1      -4.011 -10.567  13.898  0.00  0.00    -0.273 OA
ATOM     22  N   UNL     1      -4.531 -10.253  12.604  0.00  0.00    -0.200 NA
BRANCH  22  23
ATOM     23  C   UNL     1      -3.767 -10.261  12.294  0.00  0.00    +0.148 C 
BRANCH  23  24
ATOM     24  C   UNL     1      -3.644 -10.113  11.492  0.00  0.00    +0.029 A 
ATOM     25  C   UNL     1      -3.931  -9.466  11.069  0.00  0.00    +0.004 A 
ATOM     26  C   UNL     1      -3.676  -9.541  10.287  0.00  0.00    +0.007 A 
ATOM     27  C   UNL     1      -3.233 -10.233  10.228  0.00  0.00    +0.035 A 
ATOM     28  S   UNL     1      -3.213 -10.588  10.972  0.00  0.00    -0.089 S 
ENDBRANCH  23  24
ENDBRANCH  22  23
ENDBRANCH  19  20
ENDBRANCH  18  19
ENDBRANCH  17  18
TORSDOF 8
ENDMDL
MODEL 4
REMARK VINA RESULT:      -5.5     16.842     18.271
REMARK  Name = 
REMARK  8 active torsions:
REMARK  status: ('A' for Active; 'I' for Inactive)
REMARK    1  A    between atoms: O_2  and  C_3
REMARK    2  A    between atoms: C_6  and  C_7
REMARK    3  A    between atoms: C_7  and  N_8
REMARK    4  A    between atoms: C_17  and  C_18
REMARK    5  A    between atoms: C_18  and  C_19
REMARK    6  A    between atoms: C_19  and  C_20
REMARK    7  A    between atoms: N_22  and  C_23
REMARK    8  A    between atoms: C_23  and  C_24
REMARK                            x       y       z     vdW  Elec       q    Type
REMARK                         _______ _______ _______ _____ _____    ______ ____
ROOT
ATOM      8  N   UNL     1      -6.224  -9.875  13.034  0.00  0.00    -0.262 NA
ATOM      9  C   UNL     1      -5.471  -9.565  12.900  0.00  0.00    +0.074 C 
ATOM     10  C   UNL     1      -5.475  -9.193  12.164  0.00  0.00    +0.035 C 
ATOM     11  C   UNL     1      -6.230  -9.273  11.842  0.00  0.00    +0.083 C 
ATOM     12  C   UNL     1      -6.693  -9.695  12.380  0.00  0.00    +0.151 C 
ATOM     13  C   UNL     1      -7.486  -9.916  12.314  0.00  0.00    +0.257 C 
ATOM     14  O   UNL     1      -7.793 -10.338  12.952  0.00  0.00    -0.272 OA
ATOM     15  N   UNL     1      -8.010  -9.771  11.693  0.00  0.00    -0.203 NA
ATOM     16  C   UNL     1      -7.873  -9.369  10.987  0.00  0.00    +0.131 C 
ATOM     17  C   UNL     1      -7.176  -9.012  10.725  0.00  0.00    +0.080 C 
ATOM     29  N   UNL     1      -6.445  -8.970  11.105  0.00  0.00    -0.271 NA
ATOM     30  C   UNL     1      -5.851  -8.571  10.696  0.00  0.00    +0.090 C 
ENDROOT
BRANCH   8   7
ATOM      7  C   UNL     1      -6.465 -10.291  13.704  0.00  0.00    +0.100 C 
BRANCH   7   6
ATOM      3  C   UNL     1      -5.134 -10.166  15.786  0.00  0.00    +0.139 A 
ATOM      4  C   UNL     1      -5.776  -9.660  15.677  0.00  0.00    +0.037 A 
ATOM      5  C   UNL     1      -6.220  -9.702  14.982  0.00  0.00    +0.000 A 
ATOM      6  C   UNL     1      -6.022 -10.249  14.398  0.00  0.00    -0.006 A 
ATOM     31  C   UNL     1      -5.380 -10.755  14.507  0.00  0.00    +0.000 A 
ATOM     32  C   UNL     1      -4.935 -10.714  15.202  0.00  0.00    +0.037 A 
BRANCH   3   2
ATOM      1  C   UNL     1      -4.255 -10.779  16.732  0.00  0.00    +0.252 C 
ATOM      2  O   UNL     1      -4.690 -10.124  16.480  0.00  0.00    -0.471 OA
ENDBRANCH   3   2
ENDBRANCH   7   6
ENDBRANCH   8   7
BRANCH  17  18
ATOM     18  C   UNL     1      -7.215  -8.651   9.985  0.00  0.00    +0.027 C 
BRANCH  18  19
ATOM     19  C   UNL     1      -7.934  -8.614   9.580  0.00  0.00    +0.088 C 
BRANCH  19  20
ATOM     20  C   UNL     1      -8.016  -8.114   8.930  0.00  0.00    +0.242 C 
ATOM     21  O   UNL     1      -7.587  -8.261   8.240  0.00  0.00    -0.273 OA
ATOM     22  N   UNL     1      -8.527  -7.467   8.968  0.00  0.00    -0.200 NA
BRANCH  22  23
ATOM     23  C   UNL     1      -8.610  -6.967   8.318  0.00  0.00    +0.148 C 
BRANCH  23  24
ATOM     24  C   UNL     1      -9.105  -6.309   8.363  0.00  0.00    +0.029 A 
ATOM     25  C   UNL     1      -8.866  -5.531   8.495  0.00  0.00    +0.004 A 
ATOM     26  C   UNL     1      -9.540  -5.055   8.497  0.00  0.00    +0.007 A 
ATOM     27  C   UNL     1     -10.195  -5.539   8.368  0.00  0.00    +0.035 A 
ATOM     28  S   UNL     1      -9.927  -6.314   8.284  0.00  0.00    -0.089 S 
ENDBRANCH  23  24
ENDBRANCH  22  23
ENDBRANCH  19  20
ENDBRANCH  18  19
ENDBRANCH  17  18
TORSDOF 8
ENDMDL
MODEL 5
REMARK VINA RESULT:      -5.3      3.436      5.574
REMARK  Name = 
REMARK  8 active torsions:
REMARK  status: ('A' for Active; 'I' for Inactive)
REMARK    1  A    between atoms: O_2  and  C_3
REMARK    2  A    between atoms: C_6  and  C_7
REMARK    3  A    between atoms: C_7  and  N_8
REMARK    4  A    between atoms: C_17  and  C_18
REMARK    5  A    between atoms: C_18  and  C_19
REMARK    6  A    between atoms: C_19  and  C_20
REMARK    7  A    between atoms: N_22  and  C_23
REMARK    8  A    between atoms: C_23  and  C_24
REMARK                            x       y       z     vdW  Elec       q    Type
REMARK                         _______ _______ _______ _____ _____    ______ ____
ROOT
ATOM      8  N   UNL     1      -1.042  -0.509  24.696  0.00  0.00    -0.262 NA
ATOM      9  C   UNL     1      -1.063  -0.433  23.874  0.00  0.00    +0.074 C 
ATOM     10  C   UNL     1      -0.910   0.355  23.687  0.00  0.00    +0.035 C 
ATOM     11  C   UNL     1      -0.793   0.767  24.392  0.00  0.00    +0.083 C 
ATOM     12  C   UNL     1      -0.875   0.233  25.016  0.00  0.00    +0.151 C 
ATOM     13  C   UNL     1      -0.809   0.374  25.827  0.00  0.00    +0.257 C 
ATOM     14  O   UNL     1      -0.922  -0.281  26.314  0.00  0.00    -0.272 OA
ATOM     15  N   UNL     1      -0.645   1.085  26.213  0.00  0.00    -0.203 NA
ATOM     16  C   UNL     1      -0.507   1.829  25.886  0.00  0.00    +0.131 C 
ATOM     17  C   UNL     1      -0.498   2.047  25.090  0.00  0.00    +0.080 C 
ATOM     29  N   UNL     1      -0.625   1.575  24.425  0.00  0.00    -0.271 NA
ATOM     30  C   UNL     1      -0.579   1.960  23.698  0.00  0.00    +0.090 C 
ENDROOT
BRANCH   8   7
ATOM      7  C   UNL     1      -1.166  -1.204  25.122  0.00  0.00    +0.100 C 
BRANCH   7   6
ATOM      3  C   UNL     1      -3.022  -2.721  24.505  0.00  0.00    +0.139 A 
ATOM      4  C   UNL     1      -2.255  -2.880  24.245  0.00  0.00    +0.037 A 
ATOM      5  C   UNL     1      -1.636  -2.375  24.451  0.00  0.00    +0.000 A 
ATOM      6  C   UNL     1      -1.784  -1.710  24.917  0.00  0.00    -0.006 A 
ATOM     31  C   UNL     1      -2.550  -1.550  25.177  0.00  0.00    +0.000 A 
ATOM     32  C   UNL     1      -3.170  -2.056  24.971  0.00  0.00    +0.037 A 
BRANCH   3   2
ATOM      1  C   UNL     1      -4.266  -2.947  23.840  0.00  0.00    +0.252 C 
ATOM      2  O   UNL     1      -3.640  -3.226  24.299  0.00  0.00    -0.471 OA
ENDBRANCH   3   2
ENDBRANCH   7   6
ENDBRANCH   8   7
BRANCH  17  18
ATOM     18  C   UNL     1      -0.341   2.842  24.938  0.00  0.00    +0.027 C 
BRANCH  18  19
ATOM     19  C   UNL     1      -0.565   3.419  25.484  0.00  0.00    +0.088 C 
BRANCH  19  20
ATOM     20  C   UNL     1      -1.139   3.976  25.285  0.00  0.00    +0.242 C 
ATOM     21  O   UNL     1      -0.916   4.691  24.936  0.00  0.00    -0.273 OA
ATOM     22  N   UNL     1      -1.935   3.820  25.433  0.00  0.00    -0.200 NA
BRANCH  22  23
ATOM     23  C   UNL     1      -2.509   4.377  25.234  0.00  0.00    +0.148 C 
BRANCH  23  24
ATOM     24  C   UNL     1      -3.303   4.155  25.187  0.00  0.00    +0.029 A 
ATOM     25  C   UNL     1      -3.730   4.027  24.494  0.00  0.00    +0.004 A 
ATOM     26  C   UNL     1      -4.499   3.815  24.706  0.00  0.00    +0.007 A 
ATOM     27  C   UNL     1      -4.546   3.812  25.529  0.00  0.00    +0.035 A 
ATOM     28  S   UNL     1      -3.807   4.022  25.827  0.00  0.00    -0.089 S 
ENDBRANCH  23  24
ENDBRANCH  22  23
ENDBRANCH  19  20
ENDBRANCH  18  19
ENDBRANCH  17  18
TORSDOF 8
ENDMDL
MODEL 6
REMARK VINA RESULT:      -5.3     14.863     17.823
REMARK  Name = 
REMARK  8 active torsions:
REMARK  status: ('A' for Active; 'I' for Inactive)
REMARK    1  A    between atoms: O_2  and  C_3
REMARK    2  A    between atoms: C_6  and  C_7
REMARK    3  A    between atoms: C_7  and  N_8
REMARK    4  A    between atoms: C_17  and  C_18
REMARK    5  A    between atoms: C_18  and  C_19
REMARK    6  A    between atoms: C_19  and  C_20
REMARK    7  A    between atoms: N_22  and  C_23
REMARK    8  A    between atoms: C_23  and  C_24
REMARK                            x       y       z     vdW  Elec       q    Type
REMARK                         _______ _______ _______ _____ _____    ______ ____
ROOT
ATOM      8  N   UNL     1      13.654  -5.542  31.512  0.00  0.00    -0.262 NA
ATOM      9  C   UNL     1      13.891  -5.929  30.822  0.00  0.00    +0.074 C 
ATOM     10  C   UNL     1      13.354  -6.537  30.673  0.00  0.00    +0.035 C 
ATOM     11  C   UNL     1      12.785  -6.526  31.270  0.00  0.00    +0.083 C 
ATOM     12  C   UNL     1      12.970  -5.911  31.788  0.00  0.00    +0.151 C 
ATOM     13  C   UNL     1      12.570  -5.675  32.471  0.00  0.00    +0.257 C 
ATOM     14  O   UNL     1      12.898  -5.034  32.873  0.00  0.00    -0.272 OA
ATOM     15  N   UNL     1      11.887  -5.996  32.804  0.00  0.00    -0.203 NA
ATOM     16  C   UNL     1      11.434  -6.631  32.536  0.00  0.00    +0.131 C 
ATOM     17  C   UNL     1      11.553  -7.103  31.870  0.00  0.00    +0.080 C 
ATOM     29  N   UNL     1      12.154  -7.057  31.306  0.00  0.00    -0.271 NA
ATOM     30  C   UNL     1      12.120  -7.613  30.700  0.00  0.00    +0.090 C 
ENDROOT
BRANCH   8   7
ATOM      7  C   UNL     1      14.034  -4.899  31.862  0.00  0.00    +0.100 C 
BRANCH   7   6
ATOM      3  C   UNL     1      16.262  -4.186  31.054  0.00  0.00    +0.139 A 
ATOM      4  C   UNL     1      15.583  -3.810  30.776  0.00  0.00    +0.037 A 
ATOM      5  C   UNL     1      14.840  -4.048  31.045  0.00  0.00    +0.000 A 
ATOM      6  C   UNL     1      14.776  -4.661  31.593  0.00  0.00    -0.006 A 
ATOM     31  C   UNL     1      15.455  -5.038  31.872  0.00  0.00    +0.000 A 
ATOM     32  C   UNL     1      16.199  -4.800  31.602  0.00  0.00    +0.037 A 
BRANCH   3   2
ATOM      1  C   UNL     1      17.371  -4.358  30.169  0.00  0.00    +0.252 C 
ATOM      2  O   UNL     1      17.005  -3.949  30.785  0.00  0.00    -0.471 OA
ENDBRANCH   3   2
ENDBRANCH   7   6
ENDBRANCH   8   7
BRANCH  17  18
ATOM     18  C   UNL     1      10.997  -7.701  31.751  0.00  0.00    +0.027 C 
BRANCH  18  19
ATOM     19  C   UNL     1      10.340  -7.759  32.247  0.00  0.00    +0.088 C 
BRANCH  19  20
ATOM     20  C   UNL     1       9.786  -8.358  32.129  0.00  0.00    +0.242 C 
ATOM     21  O   UNL     1      10.022  -9.149  32.150  0.00  0.00    -0.273 OA
ATOM     22  N   UNL     1       8.995  -8.168  31.991  0.00  0.00    -0.200 NA
BRANCH  22  23
ATOM     23  C   UNL     1       8.441  -8.767  31.874  0.00  0.00    +0.148 C 
BRANCH  23  24
ATOM     24  C   UNL     1       7.660  -8.576  31.687  0.00  0.00    +0.029 A 
ATOM     25  C   UNL     1       7.310  -8.643  30.943  0.00  0.00    +0.004 A 
ATOM     26  C   UNL     1       6.525  -8.394  31.009  0.00  0.00    +0.007 A 
ATOM     27  C   UNL     1       6.392  -8.174  31.792  0.00  0.00    +0.035 A 
ATOM     28  S   UNL     1       7.093  -8.286  32.212  0.00  0.00    -0.089 S 
ENDBRANCH  23  24
ENDBRANCH  22  23
ENDBRANCH  19  20
ENDBRANCH  18  19
ENDBRANCH  17  18
TORSDOF 8
ENDMDL
MODEL 7
REMARK VINA RESULT:      -5.0     16.627     18.274
REMARK  Name = 
REMARK  8 active torsions:
REMARK  status: ('A' for Active; 'I' for Inactive)
REMARK    1  A    between atoms: O_2  and  C_3
REMARK    2  A    between atoms: C_6  and  C_7
REMARK    3  A    between atoms: C_7  and  N_8
REMARK    4  A    between atoms: C_17  and  C_18
REMARK    5  A    between atoms: C_18  and  C_19
REMARK    6  A    between atoms: C_19  and  C_20
REMARK    7  A    between atoms: N_22  and  C_23
REMARK    8  A    between atoms: C_23  and  C_24
REMARK                            x       y       z     vdW  Elec       q    Type
REMARK                         _______ _______ _______ _____ _____    ______ ____
ROOT
ATOM      8  N   UNL     1      -3.727 -10.425  12.613  0.00  0.00    -0.262 NA
ATOM      9  C   UNL     1      -3.040 -10.280  12.180  0.00  0.00    +0.074 C 
ATOM     10  C   UNL     1      -3.258  -9.917  11.472  0.00  0.00    +0.035 C 
ATOM     11  C   UNL     1      -4.079  -9.838  11.467  0.00  0.00    +0.083 C 
ATOM     12  C   UNL     1      -4.369 -10.152  12.172  0.00  0.00    +0.151 C 
ATOM     13  C   UNL     1      -5.152 -10.204  12.429  0.00  0.00    +0.257 C 
ATOM     14  O   UNL     1      -5.264 -10.551  13.169  0.00  0.00    -0.272 OA
ATOM     15  N   UNL     1      -5.837  -9.953  12.044  0.00  0.00    -0.203 NA
ATOM     16  C   UNL     1      -5.909  -9.590  11.307  0.00  0.00    +0.131 C 
ATOM     17  C   UNL     1      -5.314  -9.387  10.772  0.00  0.00    +0.080 C 
ATOM     29  N   UNL     1      -4.499  -9.498  10.844  0.00  0.00    -0.271 NA
ATOM     30  C   UNL     1      -4.045  -9.233  10.209  0.00  0.00    +0.090 C 
ENDROOT
BRANCH   8   7
ATOM      7  C   UNL     1      -3.766 -10.781  13.356  0.00  0.00    +0.100 C 
BRANCH   7   6
ATOM      3  C   UNL     1      -1.843 -10.622  14.907  0.00  0.00    +0.139 A 
ATOM      4  C   UNL     1      -1.714 -10.704  14.096  0.00  0.00    +0.037 A 
ATOM      5  C   UNL     1      -2.355 -10.757  13.579  0.00  0.00    +0.000 A 
ATOM      6  C   UNL     1      -3.125 -10.728  13.873  0.00  0.00    -0.006 A 
ATOM     31  C   UNL     1      -3.255 -10.647  14.683  0.00  0.00    +0.000 A 
ATOM     32  C   UNL     1      -2.614 -10.594  15.201  0.00  0.00    +0.037 A 
BRANCH   3   2
ATOM      1  C   UNL     1      -0.742  -9.884  15.441  0.00  0.00    +0.252 C 
ATOM      2  O   UNL     1      -1.203 -10.569  15.423  0.00  0.00    -0.471 OA
ENDBRANCH   3   2
ENDBRANCH   7   6
ENDBRANCH   8   7
BRANCH  17  18
ATOM     18  C   UNL     1      -5.566  -9.027  10.075  0.00  0.00    +0.027 C 
BRANCH  18  19
ATOM     19  C   UNL     1      -6.350  -9.105   9.829  0.00  0.00    +0.088 C 
BRANCH  19  20
ATOM     20  C   UNL     1      -6.586  -8.802   9.100  0.00  0.00    +0.242 C 
ATOM     21  O   UNL     1      -6.332  -9.161   8.402  0.00  0.00    -0.273 OA
ATOM     22  N   UNL     1      -7.076  -8.139   9.068  0.00  0.00    -0.200 NA
BRANCH  22  23
ATOM     23  C   UNL     1      -7.313  -7.835   8.338  0.00  0.00    +0.148 C 
BRANCH  23  24
ATOM     24  C   UNL     1      -7.905  -7.262   8.302  0.00  0.00    +0.029 A 
ATOM     25  C   UNL     1      -8.717  -7.402   8.329  0.00  0.00    +0.004 A 
ATOM     26  C   UNL     1      -9.103  -6.674   8.275  0.00  0.00    +0.007 A 
ATOM     27  C   UNL     1      -8.529  -6.085   8.214  0.00  0.00    +0.035 A 
ATOM     28  S   UNL     1      -7.788  -6.448   8.230  0.00  0.00    -0.089 S 
ENDBRANCH  23  24
ENDBRANCH  22  23
ENDBRANCH  19  20
ENDBRANCH  18  19
ENDBRANCH  17  18
TORSDOF 8
ENDMDL
MODEL 8
REMARK VINA RESULT:      -4.8     15.599     16.408
REMARK  Name = 
REMARK  8 active torsions:
REMARK  status: ('A' for Active; 'I' for Inactive)
REMARK    1  A    between atoms: O_2  and  C_3
REMARK    2  A    between atoms: C_6  and  C_7
REMARK    3  A    between atoms: C_7  and  N_8
REMARK    4  A    between atoms: C_17  and  C_18
REMARK    5  A    between atoms: C_18  and  C_19
REMARK    6  A    between atoms: C_19  and  C_20
REMARK    7  A    between atoms: N_22  and  C_23
REMARK    8  A    between atoms: C_23  and  C_24
REMARK                            x       y       z     vdW  Elec       q    Type
REMARK                         _______ _______ _______ _____ _____    ______ ____
ROOT
ATOM      8  N   UNL     1      -7.293 -10.052  14.800  0.00  0.00    -0.262 NA
ATOM      9  C   UNL     1      -6.767 -10.406  15.329  0.00  0.00    +0.074 C 
ATOM     10  C   UNL     1      -6.074 -10.584  14.918  0.00  0.00    +0.035 C 
ATOM     11  C   UNL     1      -6.171 -10.340  14.136  0.00  0.00    +0.083 C 
ATOM     12  C   UNL     1      -6.925 -10.011  14.063  0.00  0.00    +0.151 C 
ATOM     13  C   UNL     1      -7.283  -9.689  13.393  0.00  0.00    +0.257 C 
ATOM     14  O   UNL     1      -8.049  -9.402  13.500  0.00  0.00    -0.272 OA
ATOM     15  N   UNL     1      -6.976  -9.617  12.630  0.00  0.00    -0.203 NA
ATOM     16  C   UNL     1      -6.236  -9.848  12.349  0.00  0.00    +0.131 C 
ATOM     17  C   UNL     1      -5.619 -10.209  12.762  0.00  0.00    +0.080 C 
ATOM     29  N   UNL     1      -5.590 -10.428  13.557  0.00  0.00    -0.271 NA
ATOM     30  C   UNL     1      -4.888 -10.781  13.805  0.00  0.00    +0.090 C 
ENDROOT
BRANCH   8   7
ATOM      7  C   UNL     1      -8.053  -9.785  14.978  0.00  0.00    +0.100 C 
BRANCH   7   6
ATOM      3  C   UNL     1      -8.959 -10.062  17.264  0.00  0.00    +0.139 A 
ATOM      4  C   UNL     1      -8.538  -9.381  17.068  0.00  0.00    +0.037 A 
ATOM      5  C   UNL     1      -8.235  -9.288  16.305  0.00  0.00    +0.000 A 
ATOM      6  C   UNL     1      -8.355  -9.877  15.740  0.00  0.00    -0.006 A 
ATOM     31  C   UNL     1      -8.777 -10.558  15.937  0.00  0.00    +0.000 A 
ATOM     32  C   UNL     1      -9.079 -10.651  16.699  0.00  0.00    +0.037 A 
BRANCH   3   2
ATOM      1  C   UNL     1      -8.748 -10.278  18.661  0.00  0.00    +0.252 C 
ATOM      2  O   UNL     1      -9.261 -10.154  18.026  0.00  0.00    -0.471 OA
ENDBRANCH   3   2
ENDBRANCH   7   6
ENDBRANCH   8   7
BRANCH  17  18
ATOM     18  C   UNL     1      -4.942 -10.373  12.321  0.00  0.00    +0.027 C 
BRANCH  18  19
ATOM     19  C   UNL     1      -4.729  -9.882  11.692  0.00  0.00    +0.088 C 
BRANCH  19  20
ATOM     20  C   UNL     1      -4.075 -10.068  11.226  0.00  0.00    +0.242 C 
ATOM     21  O   UNL     1      -4.154 -10.595  10.595  0.00  0.00    -0.273 OA
ATOM     22  N   UNL     1      -3.341  -9.729  11.391  0.00  0.00    -0.200 NA
BRANCH  22  23
ATOM     23  C   UNL     1      -2.687  -9.915  10.925  0.00  0.00    +0.148 C 
BRANCH  23  24
ATOM     24  C   UNL     1      -1.942  -9.619  11.122  0.00  0.00    +0.029 A 
ATOM     25  C   UNL     1      -1.532  -9.028  10.718  0.00  0.00    +0.004 A 
ATOM     26  C   UNL     1      -0.813  -8.908  11.105  0.00  0.00    +0.007 A 
ATOM     27  C   UNL     1      -0.779  -9.424  11.747  0.00  0.00    +0.035 A 
ATOM     28  S   UNL     1      -1.476  -9.864  11.758  0.00  0.00    -0.089 S 
ENDBRANCH  23  24
ENDBRANCH  22  23
ENDBRANCH  19  20
ENDBRANCH  18  19
ENDBRANCH  17  18
TORSDOF 8
ENDMDL
