MODEL 1
REMARK VINA RESULT:     -10.2      0.000      0.000
REMARK  Name = 
REMARK  9 active torsions:
REMARK  status: ('A' for Active; 'I' for Inactive)
REMARK    1  A    between atoms: C_2  and  C_4
REMARK    2  A    between atoms: C_4  and  C_5
REMARK    3  A    between atoms: C_10  and  C_11
REMARK    4  A    between atoms: C_11  and  C_12
REMARK    5  A    between atoms: C_12  and  N_13
REMARK    6  A    between atoms: N_16  and  C_19
REMARK    7  A    between atoms: C_25  and  C_27
REMARK    8  A    between atoms: C_27  and  O_28
REMARK    9  A    between atoms: O_28  and  C_29
REMARK                            x       y       z     vdW  Elec       q    Type
REMARK                         _______ _______ _______ _____ _____    ______ ____
ROOT
ATOM      5  C   UNL     1      -3.501  -0.912  24.415  0.00  0.00    +0.015 C 
ATOM      6  C   UNL     1      -4.294  -0.776  24.590  0.00  0.00    +0.022 C 
ATOM      7  C   UNL     1      -4.550  -0.014  24.777  0.00  0.00    +0.094 C 
ATOM      8  N   UNL     1      -4.013   0.611  24.788  0.00  0.00    -0.277 N 
ATOM      9  C   UNL     1      -3.218   0.474  24.611  0.00  0.00    +0.094 C 
ATOM     10  C   UNL     1      -2.962  -0.287  24.425  0.00  0.00    +0.022 C 
ATOM     25  C   UNL     1      -4.268   1.372  24.974  0.00  0.00    +0.270 C 
ATOM     26  O   UNL     1      -5.062   1.510  25.150  0.00  0.00    -0.271 OA
ENDROOT
BRANCH   5   4
ATOM      4  C   UNL     1      -3.244  -1.675  24.228  0.00  0.00    +0.114 C 
BRANCH   4   2
ATOM      1  O   UNL     1      -3.678  -2.757  25.053  0.00  0.00    -0.246 OA
ATOM      2  C   UNL     1      -3.742  -2.320  24.356  0.00  0.00    +0.365 C 
ATOM      3  O   UNL     1      -4.303  -2.527  23.789  0.00  0.00    -0.246 OA
ENDBRANCH   4   2
ENDBRANCH   5   4
BRANCH  10  11
ATOM     11  C   UNL     1      -2.168  -0.424  24.249  0.00  0.00    +0.019 C 
BRANCH  11  12
ATOM     12  C   UNL     1      -1.588   0.092  24.531  0.00  0.00    +0.072 C 
BRANCH  12  13
ATOM     13  N   UNL     1      -0.848   0.120  24.166  0.00  0.00    -0.270 NA
ATOM     14  C   UNL     1      -0.365  -0.547  24.162  0.00  0.00    +0.094 C 
ATOM     15  C   UNL     1       0.375  -0.520  23.797  0.00  0.00    +0.108 C 
ATOM     16  N   UNL     1       0.630   0.177  23.436  0.00  0.00    -0.305 N 
ATOM     17  C   UNL     1       0.146   0.845  23.440  0.00  0.00    +0.108 C 
ATOM     18  C   UNL     1      -0.593   0.817  23.805  0.00  0.00    +0.094 C 
BRANCH  16  19
ATOM     19  C   UNL     1       1.369   0.205  23.071  0.00  0.00    +0.048 A 
ATOM     20  C   UNL     1       1.969   0.673  23.391  0.00  0.00    +0.015 A 
ATOM     21  C   UNL     1       2.708   0.702  23.026  0.00  0.00    +0.001 A 
ATOM     22  C   UNL     1       2.848   0.265  22.342  0.00  0.00    +0.000 A 
ATOM     23  C   UNL     1       2.249  -0.203  22.021  0.00  0.00    +0.001 A 
ATOM     24  C   UNL     1       1.509  -0.232  22.386  0.00  0.00    +0.015 A 
ENDBRANCH  16  19
ENDBRANCH  12  13
ENDBRANCH  11  12
ENDBRANCH  10  11
BRANCH  25  27
ATOM     27  C   UNL     1      -3.729   1.998  24.984  0.00  0.00    +0.290 C 
BRANCH  27  28
ATOM     28  O   UNL     1      -3.984   2.758  25.179  0.00  0.00    -0.466 OA
BRANCH  28  29
ATOM     29  C   UNL     1      -3.431   3.358  25.303  0.00  0.00    +0.139 A 
ATOM     30  C   UNL     1      -2.975   3.637  24.676  0.00  0.00    +0.037 A 
ATOM     31  C   UNL     1      -2.424   4.236  24.801  0.00  0.00    +0.003 A 
ATOM     32  C   UNL     1      -2.327   4.558  25.555  0.00  0.00    +0.000 A 
ATOM     33  C   UNL     1      -2.783   4.279  26.183  0.00  0.00    +0.003 A 
ATOM     34  C   UNL     1      -3.335   3.680  26.058  0.00  0.00    +0.037 A 
ENDBRANCH  28  29
ENDBRANCH  27  28
ENDBRANCH  25  27
TORSDOF 9
ENDMDL
MODEL 2
REMARK VINA RESULT:     -10.1      1.012      3.825
REMARK  Name = 
REMARK  9 active torsions:
REMARK  status: ('A' for Active; 'I' for Inactive)
REMARK    1  A    between atoms: C_2  and  C_4
REMARK    2  A    between atoms: C_4  and  C_5
REMARK    3  A    between atoms: C_10  and  C_11
REMARK    4  A    between atoms: C_11  and  C_12
REMARK    5  A    between atoms: C_12  and  N_13
REMARK    6  A    between atoms: N_16  and  C_19
REMARK    7  A    between atoms: C_25  and  C_27
REMARK    8  A    between atoms: C_27  and  O_28
REMARK    9  A    between atoms: O_28  and  C_29
REMARK                            x       y       z     vdW  Elec       q    Type
REMARK                         _______ _______ _______ _____ _____    ______ ____
ROOT
ATOM      5  C   UNL     1      -2.771   2.788  24.939  0.00  0.00    +0.015 C 
ATOM      6  C   UNL     1      -3.566   2.879  25.138  0.00  0.00    +0.022 C 
ATOM      7  C   UNL     1      -4.074   2.229  25.112  0.00  0.00    +0.094 C 
ATOM      8  N   UNL     1      -3.787   1.489  24.887  0.00  0.00    -0.277 N 
ATOM      9  C   UNL     1      -2.991   1.399  24.688  0.00  0.00    +0.094 C 
ATOM     10  C   UNL     1      -2.483   2.049  24.713  0.00  0.00    +0.022 C 
ATOM     25  C   UNL     1      -4.295   0.840  24.861  0.00  0.00    +0.270 C 
ATOM     26  O   UNL     1      -5.090   0.930  25.060  0.00  0.00    -0.271 OA
ENDROOT
BRANCH   5   4
ATOM      4  C   UNL     1      -2.262   3.439  24.964  0.00  0.00    +0.114 C 
BRANCH   4   2
ATOM      1  O   UNL     1      -2.477   4.303  26.081  0.00  0.00    -0.246 OA
ATOM      2  C   UNL     1      -2.527   4.157  25.271  0.00  0.00    +0.365 C 
ATOM      3  O   UNL     1      -2.842   4.729  24.768  0.00  0.00    -0.246 OA
ENDBRANCH   4   2
ENDBRANCH   5   4
BRANCH  10  11
ATOM     11  C   UNL     1      -1.688   1.958  24.514  0.00  0.00    +0.019 C 
BRANCH  11  12
ATOM     12  C   UNL     1      -1.302   1.244  24.669  0.00  0.00    +0.072 C 
BRANCH  12  13
ATOM     13  N   UNL     1      -0.593   1.068  24.287  0.00  0.00    -0.270 NA
ATOM     14  C   UNL     1       0.023   1.617  24.285  0.00  0.00    +0.094 C 
ATOM     15  C   UNL     1       0.733   1.441  23.903  0.00  0.00    +0.108 C 
ATOM     16  N   UNL     1       0.826   0.715  23.522  0.00  0.00    -0.305 N 
ATOM     17  C   UNL     1       0.210   0.165  23.524  0.00  0.00    +0.108 C 
ATOM     18  C   UNL     1      -0.499   0.342  23.906  0.00  0.00    +0.094 C 
BRANCH  16  19
ATOM     19  C   UNL     1       1.535   0.538  23.140  0.00  0.00    +0.048 A 
ATOM     20  C   UNL     1       2.235   0.908  23.377  0.00  0.00    +0.015 A 
ATOM     21  C   UNL     1       2.944   0.730  22.994  0.00  0.00    +0.001 A 
ATOM     22  C   UNL     1       2.955   0.185  22.377  0.00  0.00    +0.000 A 
ATOM     23  C   UNL     1       2.256  -0.185  22.140  0.00  0.00    +0.001 A 
ATOM     24  C   UNL     1       1.546  -0.008  22.522  0.00  0.00    +0.015 A 
ENDBRANCH  16  19
ENDBRANCH  12  13
ENDBRANCH  11  12
ENDBRANCH  10  11
BRANCH  25  27
ATOM     27  C   UNL     1      -4.007   0.100  24.636  0.00  0.00    +0.290 C 
BRANCH  27  28
ATOM     28  O   UNL     1      -4.455  -0.578  24.779  0.00  0.00    -0.466 OA
BRANCH  28  29
ATOM     29  C   UNL     1      -4.131  -1.323  24.637  0.00  0.00    +0.139 A 
ATOM     30  C   UNL     1      -3.624  -1.665  25.190  0.00  0.00    +0.037 A 
ATOM     31  C   UNL     1      -3.301  -2.410  25.047  0.00  0.00    +0.003 A 
ATOM     32  C   UNL     1      -3.485  -2.814  24.351  0.00  0.00    +0.000 A 
ATOM     33  C   UNL     1      -3.993  -2.472  23.799  0.00  0.00    +0.003 A 
ATOM     34  C   UNL     1      -4.316  -1.728  23.941  0.00  0.00    +0.037 A 
ENDBRANCH  28  29
ENDBRANCH  27  28
ENDBRANCH  25  27
TORSDOF 9
ENDMDL
MODEL 3
REMARK VINA RESULT:     -10.0      2.484      4.715
REMARK  Name = 
REMARK  9 active torsions:
REMARK  status: ('A' for Active; 'I' for Inactive)
REMARK    1  A    between atoms: C_2  and  C_4
REMARK    2  A    between atoms: C_4  and  C_5
REMARK    3  A    between atoms: C_10  and  C_11
REMARK    4  A    between atoms: C_11  and  C_12
REMARK    5  A    between atoms: C_12  and  N_13
REMARK    6  A    between atoms: N_16  and  C_19
REMARK    7  A    between atoms: C_25  and  C_27
REMARK    8  A    between atoms: C_27  and  O_28
REMARK    9  A    between atoms: O_28  and  C_29
REMARK                            x       y       z     vdW  Elec       q    Type
REMARK                         _______ _______ _______ _____ _____    ______ ____
ROOT
ATOM      5  C   UNL     1      -4.641   3.344  25.275  0.00  0.00    +0.015 C 
ATOM      6  C   UNL     1      -4.468   4.109  25.530  0.00  0.00    +0.022 C 
ATOM      7  C   UNL     1      -3.692   4.389  25.494  0.00  0.00    +0.094 C 
ATOM      8  N   UNL     1      -3.091   3.905  25.205  0.00  0.00    -0.277 N 
ATOM      9  C   UNL     1      -3.265   3.139  24.950  0.00  0.00    +0.094 C 
ATOM     10  C   UNL     1      -4.040   2.859  24.985  0.00  0.00    +0.022 C 
ATOM     25  C   UNL     1      -2.317   4.185  25.170  0.00  0.00    +0.270 C 
ATOM     26  O   UNL     1      -2.142   4.949  25.424  0.00  0.00    -0.271 OA
ENDROOT
BRANCH   5   4
ATOM      4  C   UNL     1      -5.417   3.064  25.310  0.00  0.00    +0.114 C 
BRANCH   4   2
ATOM      1  O   UNL     1      -6.296   4.078  25.800  0.00  0.00    -0.246 OA
ATOM      2  C   UNL     1      -5.931   3.344  25.891  0.00  0.00    +0.365 C 
ATOM      3  O   UNL     1      -6.079   2.890  26.564  0.00  0.00    -0.246 OA
ENDBRANCH   4   2
ENDBRANCH   5   4
BRANCH  10  11
ATOM     11  C   UNL     1      -4.214   2.094  24.731  0.00  0.00    +0.019 C 
BRANCH  11  12
ATOM     12  C   UNL     1      -3.653   1.663  24.304  0.00  0.00    +0.072 C 
BRANCH  12  13
ATOM     13  N   UNL     1      -3.655   0.839  24.336  0.00  0.00    -0.270 NA
ATOM     14  C   UNL     1      -4.361   0.432  24.463  0.00  0.00    +0.094 C 
ATOM     15  C   UNL     1      -4.363  -0.392  24.495  0.00  0.00    +0.108 C 
ATOM     16  N   UNL     1      -3.658  -0.810  24.399  0.00  0.00    -0.305 N 
ATOM     17  C   UNL     1      -2.951  -0.403  24.271  0.00  0.00    +0.108 C 
ATOM     18  C   UNL     1      -2.950   0.421  24.240  0.00  0.00    +0.094 C 
BRANCH  16  19
ATOM     19  C   UNL     1      -3.659  -1.634  24.430  0.00  0.00    +0.048 A 
ATOM     20  C   UNL     1      -4.035  -2.069  23.837  0.00  0.00    +0.015 A 
ATOM     21  C   UNL     1      -4.036  -2.893  23.868  0.00  0.00    +0.001 A 
ATOM     22  C   UNL     1      -3.663  -3.283  24.491  0.00  0.00    +0.000 A 
ATOM     23  C   UNL     1      -3.287  -2.849  25.083  0.00  0.00    +0.001 A 
ATOM     24  C   UNL     1      -3.286  -2.024  25.052  0.00  0.00    +0.015 A 
ENDBRANCH  16  19
ENDBRANCH  12  13
ENDBRANCH  11  12
ENDBRANCH  10  11
BRANCH  25  27
ATOM     27  C   UNL     1      -1.715   3.699  24.879  0.00  0.00    +0.290 C 
BRANCH  27  28
ATOM     28  O   UNL     1      -0.963   3.727  25.218  0.00  0.00    -0.466 OA
BRANCH  28  29
ATOM     29  C   UNL     1      -0.447   3.089  25.129  0.00  0.00    +0.139 A 
ATOM     30  C   UNL     1      -0.151   2.899  24.383  0.00  0.00    +0.037 A 
ATOM     31  C   UNL     1       0.365   2.262  24.295  0.00  0.00    +0.003 A 
ATOM     32  C   UNL     1       0.584   1.814  24.953  0.00  0.00    +0.000 A 
ATOM     33  C   UNL     1       0.288   2.004  25.698  0.00  0.00    +0.003 A 
ATOM     34  C   UNL     1      -0.227   2.641  25.787  0.00  0.00    +0.037 A 
ENDBRANCH  28  29
ENDBRANCH  27  28
ENDBRANCH  25  27
TORSDOF 9
ENDMDL
MODEL 4
REMARK VINA RESULT:      -9.5      2.111      4.773
REMARK  Name = 
REMARK  9 active torsions:
REMARK  status: ('A' for Active; 'I' for Inactive)
REMARK    1  A    between atoms: C_2  and  C_4
REMARK    2  A    between atoms: C_4  and  C_5
REMARK    3  A    between atoms: C_10  and  C_11
REMARK    4  A    between atoms: C_11  and  C_12
REMARK    5  A    between atoms: C_12  and  N_13
REMARK    6  A    between atoms: N_16  and  C_19
REMARK    7  A    between atoms: C_25  and  C_27
REMARK    8  A    between atoms: C_27  and  O_28
REMARK    9  A    between atoms: O_28  and  C_29
REMARK                            x       y       z     vdW  Elec       q    Type
REMARK                         _______ _______ _______ _____ _____    ______ ____
ROOT
ATOM      5  C   UNL     1      -2.820  -1.785  24.603  0.00  0.00    +0.015 C 
ATOM      6  C   UNL     1      -2.110  -2.203  24.596  0.00  0.00    +0.022 C 
ATOM      7  C   UNL     1      -1.392  -1.796  24.568  0.00  0.00    +0.094 C 
ATOM      8  N   UNL     1      -1.386  -0.972  24.547  0.00  0.00    -0.277 N 
ATOM      9  C   UNL     1      -2.098  -0.554  24.554  0.00  0.00    +0.094 C 
ATOM     10  C   UNL     1      -2.815  -0.960  24.582  0.00  0.00    +0.022 C 
ATOM     25  C   UNL     1      -0.669  -0.565  24.519  0.00  0.00    +0.270 C 
ATOM     26  O   UNL     1       0.042  -0.983  24.513  0.00  0.00    -0.271 OA
ENDROOT
BRANCH   5   4
ATOM      4  C   UNL     1      -3.538  -2.192  24.631  0.00  0.00    +0.114 C 
BRANCH   4   2
ATOM      1  O   UNL     1      -3.619  -3.458  23.973  0.00  0.00    -0.246 OA
ATOM      2  C   UNL     1      -3.544  -3.016  24.666  0.00  0.00    +0.365 C 
ATOM      3  O   UNL     1      -3.474  -3.398  25.393  0.00  0.00    -0.246 OA
ENDBRANCH   4   2
ENDBRANCH   5   4
BRANCH  10  11
ATOM     11  C   UNL     1      -3.525  -0.542  24.589  0.00  0.00    +0.019 C 
BRANCH  11  12
ATOM     12  C   UNL     1      -3.641   0.085  24.063  0.00  0.00    +0.072 C 
BRANCH  12  13
ATOM     13  N   UNL     1      -3.972   0.791  24.332  0.00  0.00    -0.270 NA
ATOM     14  C   UNL     1      -4.507   0.784  24.959  0.00  0.00    +0.094 C 
ATOM     15  C   UNL     1      -4.838   1.491  25.227  0.00  0.00    +0.108 C 
ATOM     16  N   UNL     1      -4.633   2.205  24.868  0.00  0.00    -0.305 N 
ATOM     17  C   UNL     1      -4.097   2.212  24.240  0.00  0.00    +0.108 C 
ATOM     18  C   UNL     1      -3.767   1.505  23.972  0.00  0.00    +0.094 C 
BRANCH  16  19
ATOM     19  C   UNL     1      -4.964   2.912  25.135  0.00  0.00    +0.048 A 
ATOM     20  C   UNL     1      -5.750   2.930  25.388  0.00  0.00    +0.015 A 
ATOM     21  C   UNL     1      -6.080   3.637  25.655  0.00  0.00    +0.001 A 
ATOM     22  C   UNL     1      -5.626   4.324  25.670  0.00  0.00    +0.000 A 
ATOM     23  C   UNL     1      -4.841   4.307  25.417  0.00  0.00    +0.001 A 
ATOM     24  C   UNL     1      -4.510   3.599  25.150  0.00  0.00    +0.015 A 
ENDBRANCH  16  19
ENDBRANCH  12  13
ENDBRANCH  11  12
ENDBRANCH  10  11
BRANCH  25  27
ATOM     27  C   UNL     1      -0.663   0.260  24.498  0.00  0.00    +0.290 C 
BRANCH  27  28
ATOM     28  O   UNL     1      -0.121   0.680  24.956  0.00  0.00    -0.466 OA
BRANCH  28  29
ATOM     29  C   UNL     1      -0.228   1.488  25.085  0.00  0.00    +0.139 A 
ATOM     30  C   UNL     1      -0.457   1.761  25.828  0.00  0.00    +0.037 A 
ATOM     31  C   UNL     1      -0.565   2.568  25.956  0.00  0.00    +0.003 A 
ATOM     32  C   UNL     1      -0.444   3.104  25.339  0.00  0.00    +0.000 A 
ATOM     33  C   UNL     1      -0.215   2.831  24.596  0.00  0.00    +0.003 A 
ATOM     34  C   UNL     1      -0.107   2.024  24.468  0.00  0.00    +0.037 A 
ENDBRANCH  28  29
ENDBRANCH  27  28
ENDBRANCH  25  27
TORSDOF 9
ENDMDL
MODEL 5
REMARK VINA RESULT:      -9.3      2.715      4.539
REMARK  Name = 
REMARK  9 active torsions:
REMARK  status: ('A' for Active; 'I' for Inactive)
REMARK    1  A    between atoms: C_2  and  C_4
REMARK    2  A    between atoms: C_4  and  C_5
REMARK    3  A    between atoms: C_10  and  C_11
REMARK    4  A    between atoms: C_11  and  C_12
REMARK    5  A    between atoms: C_12  and  N_13
REMARK    6  A    between atoms: N_16  and  C_19
REMARK    7  A    between atoms: C_25  and  C_27
REMARK    8  A    between atoms: C_27  and  O_28
REMARK    9  A    between atoms: O_28  and  C_29
REMARK                            x       y       z     vdW  Elec       q    Type
REMARK                         _______ _______ _______ _____ _____    ______ ____
ROOT
ATOM      5  C   UNL     1      -0.967   2.725  25.641  0.00  0.00    +0.015 C 
ATOM      6  C   UNL     1      -1.028   3.526  25.828  0.00  0.00    +0.022 C 
ATOM      7  C   UNL     1      -1.750   3.916  25.740  0.00  0.00    +0.094 C 
ATOM      8  N   UNL     1      -2.410   3.506  25.464  0.00  0.00    -0.277 N 
ATOM      9  C   UNL     1      -2.348   2.704  25.276  0.00  0.00    +0.094 C 
ATOM     10  C   UNL     1      -1.627   2.314  25.365  0.00  0.00    +0.022 C 
ATOM     25  C   UNL     1      -3.131   3.895  25.375  0.00  0.00    +0.270 C 
ATOM     26  O   UNL     1      -3.193   4.696  25.562  0.00  0.00    -0.271 OA
ENDROOT
BRANCH   5   4
ATOM      4  C   UNL     1      -0.245   2.335  25.730  0.00  0.00    +0.114 C 
BRANCH   4   2
ATOM      1  O   UNL     1       0.919   3.056  26.137  0.00  0.00    -0.246 OA
ATOM      2  C   UNL     1       0.280   2.568  26.321  0.00  0.00    +0.365 C 
ATOM      3  O   UNL     1       0.166   2.314  27.097  0.00  0.00    -0.246 OA
ENDBRANCH   4   2
ENDBRANCH   5   4
BRANCH  10  11
ATOM     11  C   UNL     1      -1.565   1.513  25.177  0.00  0.00    +0.019 C 
BRANCH  11  12
ATOM     12  C   UNL     1      -1.857   1.235  24.456  0.00  0.00    +0.072 C 
BRANCH  12  13
ATOM     13  N   UNL     1      -2.223   0.496  24.418  0.00  0.00    -0.270 NA
ATOM     14  C   UNL     1      -1.976  -0.113  24.915  0.00  0.00    +0.094 C 
ATOM     15  C   UNL     1      -2.342  -0.852  24.877  0.00  0.00    +0.108 C 
ATOM     16  N   UNL     1      -2.955  -0.981  24.340  0.00  0.00    -0.305 N 
ATOM     17  C   UNL     1      -3.202  -0.371  23.842  0.00  0.00    +0.108 C 
ATOM     18  C   UNL     1      -2.836   0.367  23.881  0.00  0.00    +0.094 C 
BRANCH  16  19
ATOM     19  C   UNL     1      -3.322  -1.719  24.301  0.00  0.00    +0.048 A 
ATOM     20  C   UNL     1      -2.957  -2.378  24.638  0.00  0.00    +0.015 A 
ATOM     21  C   UNL     1      -3.323  -3.116  24.598  0.00  0.00    +0.001 A 
ATOM     22  C   UNL     1      -4.053  -3.195  24.223  0.00  0.00    +0.000 A 
ATOM     23  C   UNL     1      -4.417  -2.537  23.886  0.00  0.00    +0.001 A 
ATOM     24  C   UNL     1      -4.051  -1.798  23.926  0.00  0.00    +0.015 A 
ENDBRANCH  16  19
ENDBRANCH  12  13
ENDBRANCH  11  12
ENDBRANCH  10  11
BRANCH  25  27
ATOM     27  C   UNL     1      -3.791   3.484  25.099  0.00  0.00    +0.290 C 
BRANCH  27  28
ATOM     28  O   UNL     1      -4.536   3.634  25.422  0.00  0.00    -0.466 OA
BRANCH  28  29
ATOM     29  C   UNL     1      -5.115   3.046  25.412  0.00  0.00    +0.139 A 
ATOM     30  C   UNL     1      -5.338   2.697  24.700  0.00  0.00    +0.037 A 
ATOM     31  C   UNL     1      -5.916   2.110  24.691  0.00  0.00    +0.003 A 
ATOM     32  C   UNL     1      -6.272   1.871  25.397  0.00  0.00    +0.000 A 
ATOM     33  C   UNL     1      -6.049   2.219  26.110  0.00  0.00    +0.003 A 
ATOM     34  C   UNL     1      -5.471   2.807  26.118  0.00  0.00    +0.037 A 
ENDBRANCH  28  29
ENDBRANCH  27  28
ENDBRANCH  25  27
TORSDOF 9
ENDMDL
MODEL 6
REMARK VINA RESULT:      -9.2      2.036      3.296
REMARK  Name = 
REMARK  9 active torsions:
REMARK  status: ('A' for Active; 'I' for Inactive)
REMARK    1  A    between atoms: C_2  and  C_4
REMARK    2  A    between atoms: C_4  and  C_5
REMARK    3  A    between atoms: C_10  and  C_11
REMARK    4  A    between atoms: C_11  and  C_12
REMARK    5  A    between atoms: C_12  and  N_13
REMARK    6  A    between atoms: N_16  and  C_19
REMARK    7  A    between atoms: C_25  and  C_27
REMARK    8  A    between atoms: C_27  and  O_28
REMARK    9  A    between atoms: O_28  and  C_29
REMARK                            x       y       z     vdW  Elec       q    Type
REMARK                         _______ _______ _______ _____ _____    ______ ____
ROOT
ATOM      5  C   UNL     1      -2.130  -1.266  24.640  0.00  0.00    +0.015 C 
ATOM      6  C   UNL     1      -2.789  -1.739  24.495  0.00  0.00    +0.022 C 
ATOM      7  C   UNL     1      -3.542  -1.402  24.479  0.00  0.00    +0.094 C 
ATOM      8  N   UNL     1      -3.636  -0.593  24.608  0.00  0.00    -0.277 N 
ATOM      9  C   UNL     1      -2.975  -0.119  24.753  0.00  0.00    +0.094 C 
ATOM     10  C   UNL     1      -2.222  -0.456  24.769  0.00  0.00    +0.022 C 
ATOM     25  C   UNL     1      -4.388  -0.256  24.591  0.00  0.00    +0.270 C 
ATOM     26  O   UNL     1      -5.048  -0.728  24.446  0.00  0.00    -0.271 OA
ENDROOT
BRANCH   5   4
ATOM      4  C   UNL     1      -1.376  -1.603  24.657  0.00  0.00    +0.114 C 
BRANCH   4   2
ATOM      1  O   UNL     1      -1.273  -2.814  23.906  0.00  0.00    -0.246 OA
ATOM      2  C   UNL     1      -1.291  -2.423  24.632  0.00  0.00    +0.365 C 
ATOM      3  O   UNL     1      -1.223  -2.852  25.333  0.00  0.00    -0.246 OA
ENDBRANCH   4   2
ENDBRANCH   5   4
BRANCH  10  11
ATOM     11  C   UNL     1      -1.562   0.016  24.914  0.00  0.00    +0.019 C 
BRANCH  11  12
ATOM     12  C   UNL     1      -1.277   0.520  24.324  0.00  0.00    +0.072 C 
BRANCH  12  13
ATOM     13  N   UNL     1      -1.250   1.334  24.455  0.00  0.00    -0.270 NA
ATOM     14  C   UNL     1      -1.075   1.626  25.206  0.00  0.00    +0.094 C 
ATOM     15  C   UNL     1      -1.048   2.440  25.337  0.00  0.00    +0.108 C 
ATOM     16  N   UNL     1      -1.195   2.962  24.716  0.00  0.00    -0.305 N 
ATOM     17  C   UNL     1      -1.370   2.670  23.963  0.00  0.00    +0.108 C 
ATOM     18  C   UNL     1      -1.397   1.856  23.834  0.00  0.00    +0.094 C 
BRANCH  16  19
ATOM     19  C   UNL     1      -1.168   3.776  24.845  0.00  0.00    +0.048 A 
ATOM     20  C   UNL     1      -1.797   4.155  25.222  0.00  0.00    +0.015 A 
ATOM     21  C   UNL     1      -1.770   4.969  25.352  0.00  0.00    +0.001 A 
ATOM     22  C   UNL     1      -1.116   5.404  25.105  0.00  0.00    +0.000 A 
ATOM     23  C   UNL     1      -0.486   5.027  24.729  0.00  0.00    +0.001 A 
ATOM     24  C   UNL     1      -0.513   4.212  24.599  0.00  0.00    +0.015 A 
ENDBRANCH  16  19
ENDBRANCH  12  13
ENDBRANCH  11  12
ENDBRANCH  10  11
BRANCH  25  27
ATOM     27  C   UNL     1      -4.481   0.554  24.720  0.00  0.00    +0.290 C 
BRANCH  27  28
ATOM     28  O   UNL     1      -5.235   0.871  24.826  0.00  0.00    -0.466 OA
BRANCH  28  29
ATOM     29  C   UNL     1      -5.322   1.658  25.059  0.00  0.00    +0.139 A 
ATOM     30  C   UNL     1      -4.998   2.262  24.601  0.00  0.00    +0.037 A 
ATOM     31  C   UNL     1      -5.085   3.048  24.834  0.00  0.00    +0.003 A 
ATOM     32  C   UNL     1      -5.497   3.231  25.526  0.00  0.00    +0.000 A 
ATOM     33  C   UNL     1      -5.821   2.626  25.984  0.00  0.00    +0.003 A 
ATOM     34  C   UNL     1      -5.734   1.840  25.751  0.00  0.00    +0.037 A 
ENDBRANCH  28  29
ENDBRANCH  27  28
ENDBRANCH  25  27
TORSDOF 9
ENDMDL
