MODEL 1
REMARK VINA RESULT:     -10.1      0.000      0.000
REMARK  Name = 
REMARK  2 active torsions:
REMARK  status: ('A' for Active; 'I' for Inactive)
REMARK    1  A    between atoms: O_2  and  C_3
REMARK    2  A    between atoms: C_4  and  C_9
REMARK                            x       y       z     vdW  Elec       q    Type
REMARK                         _______ _______ _______ _____ _____    ______ ____
ROOT
ATOM      9  C   UNL     1      -3.182   0.625  24.211  0.00  0.00    +0.252 C 
ATOM     10  O   UNL     1      -2.484   0.804  23.810  0.00  0.00    -0.270 OA
ATOM     11  N   UNL     1      -3.671   1.234  24.481  0.00  0.00    -0.272 N 
ATOM     12  C   UNL     1      -3.460   2.021  24.349  0.00  0.00    +0.115 C 
ATOM     13  C   UNL     1      -3.948   2.628  24.618  0.00  0.00    +0.117 C 
ATOM     14  N   UNL     1      -4.647   2.450  25.019  0.00  0.00    -0.259 N 
ATOM     15  C   UNL     1      -4.857   1.663  25.151  0.00  0.00    +0.118 C 
ATOM     16  C   UNL     1      -5.573   1.656  25.559  0.00  0.00    +0.138 C 
ATOM     17  N   UNL     1      -5.806   2.437  25.680  0.00  0.00    -0.187 NA
ATOM     18  C   UNL     1      -5.233   2.928  25.346  0.00  0.00    +0.323 C 
ATOM     19  O   UNL     1      -5.245   3.753  25.341  0.00  0.00    -0.251 OA
ATOM     20  C   UNL     1      -4.369   1.054  24.881  0.00  0.00    +0.115 C 
ENDROOT
BRANCH   9   4
ATOM      3  C   UNL     1      -2.958  -0.622  24.871  0.00  0.00    +0.143 A 
ATOM      4  C   UNL     1      -3.392  -0.162  24.343  0.00  0.00    +0.087 A 
ATOM      5  C   UNL     1      -4.038  -0.488  23.946  0.00  0.00    +0.008 A 
ATOM      6  C   UNL     1      -4.248  -1.275  24.077  0.00  0.00    +0.000 A 
ATOM      7  C   UNL     1      -3.813  -1.735  24.606  0.00  0.00    +0.003 A 
ATOM      8  C   UNL     1      -3.168  -1.408  25.003  0.00  0.00    +0.037 A 
BRANCH   3   2
ATOM      1  C   UNL     1      -1.824  -0.776  25.728  0.00  0.00    +0.252 C 
ATOM      2  O   UNL     1      -2.312  -0.296  25.269  0.00  0.00    -0.471 OA
ENDBRANCH   3   2
ENDBRANCH   9   4
TORSDOF 2
ENDMDL
MODEL 2
REMARK VINA RESULT:      -9.4      1.919      2.929
REMARK  Name = 
REMARK  2 active torsions:
REMARK  status: ('A' for Active; 'I' for Inactive)
REMARK    1  A    between atoms: O_2  and  C_3
REMARK    2  A    between atoms: C_4  and  C_9
REMARK                            x       y       z     vdW  Elec       q    Type
REMARK                         _______ _______ _______ _____ _____    ______ ____
ROOT
ATOM      9  C   UNL     1      -3.403   1.796  24.062  0.00  0.00    +0.252 C 
ATOM     10  O   UNL     1      -3.206   1.283  23.446  0.00  0.00    -0.270 OA
ATOM     11  N   UNL     1      -2.868   2.377  24.302  0.00  0.00    -0.272 N 
ATOM     12  C   UNL     1      -2.136   2.444  23.927  0.00  0.00    +0.115 C 
ATOM     13  C   UNL     1      -1.602   3.024  24.167  0.00  0.00    +0.117 C 
ATOM     14  N   UNL     1      -1.798   3.537  24.783  0.00  0.00    -0.259 N 
ATOM     15  C   UNL     1      -2.530   3.470  25.158  0.00  0.00    +0.118 C 
ATOM     16  C   UNL     1      -2.571   4.049  25.744  0.00  0.00    +0.138 C 
ATOM     17  N   UNL     1      -1.864   4.474  25.731  0.00  0.00    -0.187 NA
ATOM     18  C   UNL     1      -1.388   4.158  25.137  0.00  0.00    +0.323 C 
ATOM     19  O   UNL     1      -0.631   4.417  24.933  0.00  0.00    -0.251 OA
ATOM     20  C   UNL     1      -3.065   2.889  24.918  0.00  0.00    +0.115 C 
ENDROOT
BRANCH   9   4
ATOM      3  C   UNL     1      -4.314   1.051  24.872  0.00  0.00    +0.143 A 
ATOM      4  C   UNL     1      -4.135   1.728  24.437  0.00  0.00    +0.087 A 
ATOM      5  C   UNL     1      -4.687   2.339  24.377  0.00  0.00    +0.008 A 
ATOM      6  C   UNL     1      -5.418   2.271  24.752  0.00  0.00    +0.000 A 
ATOM      7  C   UNL     1      -5.598   1.593  25.187  0.00  0.00    +0.003 A 
ATOM      8  C   UNL     1      -5.045   0.983  25.247  0.00  0.00    +0.037 A 
BRANCH   3   2
ATOM      1  C   UNL     1      -3.969  -0.269  25.297  0.00  0.00    +0.252 C 
ATOM      2  O   UNL     1      -3.762   0.441  24.932  0.00  0.00    -0.471 OA
ENDBRANCH   3   2
ENDBRANCH   9   4
TORSDOF 2
ENDMDL
MODEL 3
REMARK VINA RESULT:      -9.4      1.257      3.551
REMARK  Name = 
REMARK  2 active torsions:
REMARK  status: ('A' for Active; 'I' for Inactive)
REMARK    1  A    between atoms: O_2  and  C_3
REMARK    2  A    between atoms: C_4  and  C_9
REMARK                            x       y       z     vdW  Elec       q    Type
REMARK                         _______ _______ _______ _____ _____    ______ ____
ROOT
ATOM      9  C   UNL     1      -3.945   1.857  24.254  0.00  0.00    +0.252 C 
ATOM     10  O   UNL     1      -3.643   2.334  23.652  0.00  0.00    -0.270 OA
ATOM     11  N   UNL     1      -3.642   1.097  24.369  0.00  0.00    -0.272 N 
ATOM     12  C   UNL     1      -3.040   0.815  23.881  0.00  0.00    +0.115 C 
ATOM     13  C   UNL     1      -2.738   0.057  23.996  0.00  0.00    +0.117 C 
ATOM     14  N   UNL     1      -3.039  -0.421  24.598  0.00  0.00    -0.259 N 
ATOM     15  C   UNL     1      -3.641  -0.139  25.085  0.00  0.00    +0.118 C 
ATOM     16  C   UNL     1      -3.827  -0.730  25.629  0.00  0.00    +0.138 C 
ATOM     17  N   UNL     1      -3.340  -1.378  25.479  0.00  0.00    -0.187 NA
ATOM     18  C   UNL     1      -2.853  -1.186  24.841  0.00  0.00    +0.323 C 
ATOM     19  O   UNL     1      -2.279  -1.675  24.505  0.00  0.00    -0.251 OA
ATOM     20  C   UNL     1      -3.944   0.621  24.971  0.00  0.00    +0.115 C 
ENDROOT
BRANCH   9   4
ATOM      3  C   UNL     1      -4.402   2.769  25.253  0.00  0.00    +0.143 A 
ATOM      4  C   UNL     1      -4.547   2.139  24.741  0.00  0.00    +0.087 A 
ATOM      5  C   UNL     1      -5.295   1.791  24.716  0.00  0.00    +0.008 A 
ATOM      6  C   UNL     1      -5.898   2.073  25.204  0.00  0.00    +0.000 A 
ATOM      7  C   UNL     1      -5.753   2.704  25.716  0.00  0.00    +0.003 A 
ATOM      8  C   UNL     1      -5.005   3.051  25.741  0.00  0.00    +0.037 A 
BRANCH   3   2
ATOM      1  C   UNL     1      -3.523   3.778  25.755  0.00  0.00    +0.252 C 
ATOM      2  O   UNL     1      -3.655   3.118  25.278  0.00  0.00    -0.471 OA
ENDBRANCH   3   2
ENDBRANCH   9   4
TORSDOF 2
ENDMDL
MODEL 4
REMARK VINA RESULT:      -9.3      1.412      2.257
REMARK  Name = 
REMARK  2 active torsions:
REMARK  status: ('A' for Active; 'I' for Inactive)
REMARK    1  A    between atoms: O_2  and  C_3
REMARK    2  A    between atoms: C_4  and  C_9
REMARK                            x       y       z     vdW  Elec       q    Type
REMARK                         _______ _______ _______ _____ _____    ______ ____
ROOT
ATOM      9  C   UNL     1      -3.731  -0.403  25.174  0.00  0.00    +0.252 C 
ATOM     10  O   UNL     1      -4.320  -0.578  25.724  0.00  0.00    -0.270 OA
ATOM     11  N   UNL     1      -3.716   0.336  24.807  0.00  0.00    -0.272 N 
ATOM     12  C   UNL     1      -4.290   0.900  24.990  0.00  0.00    +0.115 C 
ATOM     13  C   UNL     1      -4.275   1.638  24.623  0.00  0.00    +0.117 C 
ATOM     14  N   UNL     1      -3.686   1.814  24.073  0.00  0.00    -0.259 N 
ATOM     15  C   UNL     1      -3.112   1.251  23.889  0.00  0.00    +0.118 C 
ATOM     16  C   UNL     1      -2.603   1.578  23.330  0.00  0.00    +0.138 C 
ATOM     17  N   UNL     1      -2.862   2.344  23.167  0.00  0.00    -0.187 NA
ATOM     18  C   UNL     1      -3.531   2.489  23.626  0.00  0.00    +0.323 C 
ATOM     19  O   UNL     1      -3.970   3.188  23.637  0.00  0.00    -0.251 OA
ATOM     20  C   UNL     1      -3.126   0.511  24.257  0.00  0.00    +0.115 C 
ENDROOT
BRANCH   9   4
ATOM      3  C   UNL     1      -3.361  -1.636  24.555  0.00  0.00    +0.143 A 
ATOM      4  C   UNL     1      -3.156  -0.967  24.990  0.00  0.00    +0.087 A 
ATOM      5  C   UNL     1      -2.378  -0.859  25.243  0.00  0.00    +0.008 A 
ATOM      6  C   UNL     1      -1.804  -1.423  25.060  0.00  0.00    +0.000 A 
ATOM      7  C   UNL     1      -2.008  -2.093  24.623  0.00  0.00    +0.003 A 
ATOM      8  C   UNL     1      -2.786  -2.199  24.371  0.00  0.00    +0.037 A 
BRANCH   3   2
ATOM      1  C   UNL     1      -4.345  -2.417  23.873  0.00  0.00    +0.252 C 
ATOM      2  O   UNL     1      -4.139  -1.743  24.301  0.00  0.00    -0.471 OA
ENDBRANCH   3   2
ENDBRANCH   9   4
TORSDOF 2
ENDMDL
MODEL 5
REMARK VINA RESULT:      -9.2      2.379      2.819
REMARK  Name = 
REMARK  2 active torsions:
REMARK  status: ('A' for Active; 'I' for Inactive)
REMARK    1  A    between atoms: O_2  and  C_3
REMARK    2  A    between atoms: C_4  and  C_9
REMARK                            x       y       z     vdW  Elec       q    Type
REMARK                         _______ _______ _______ _____ _____    ______ ____
ROOT
ATOM      9  C   UNL     1      -2.326  -0.494  25.381  0.00  0.00    +0.252 C 
ATOM     10  O   UNL     1      -2.048  -0.835  26.079  0.00  0.00    -0.270 OA
ATOM     11  N   UNL     1      -1.984   0.201  25.098  0.00  0.00    -0.272 N 
ATOM     12  C   UNL     1      -1.364   0.555  25.512  0.00  0.00    +0.115 C 
ATOM     13  C   UNL     1      -1.023   1.250  25.228  0.00  0.00    +0.117 C 
ATOM     14  N   UNL     1      -1.300   1.592  24.530  0.00  0.00    -0.259 N 
ATOM     15  C   UNL     1      -1.920   1.238  24.116  0.00  0.00    +0.118 C 
ATOM     16  C   UNL     1      -2.076   1.697  23.449  0.00  0.00    +0.138 C 
ATOM     17  N   UNL     1      -1.553   2.335  23.451  0.00  0.00    -0.187 NA
ATOM     18  C   UNL     1      -1.074   2.269  24.119  0.00  0.00    +0.323 C 
ATOM     19  O   UNL     1      -0.473   2.791  24.338  0.00  0.00    -0.251 OA
ATOM     20  C   UNL     1      -2.262   0.542  24.400  0.00  0.00    +0.115 C 
ENDROOT
BRANCH   9   4
ATOM      3  C   UNL     1      -2.835  -1.582  24.607  0.00  0.00    +0.143 A 
ATOM      4  C   UNL     1      -2.946  -0.848  24.967  0.00  0.00    +0.087 A 
ATOM      5  C   UNL     1      -3.676  -0.468  24.914  0.00  0.00    +0.008 A 
ATOM      6  C   UNL     1      -4.295  -0.822  24.500  0.00  0.00    +0.000 A 
ATOM      7  C   UNL     1      -4.185  -1.556  24.139  0.00  0.00    +0.003 A 
ATOM      8  C   UNL     1      -3.454  -1.936  24.193  0.00  0.00    +0.037 A 
BRANCH   3   2
ATOM      1  C   UNL     1      -2.007  -2.716  24.343  0.00  0.00    +0.252 C 
ATOM      2  O   UNL     1      -2.104  -1.962  24.661  0.00  0.00    -0.471 OA
ENDBRANCH   3   2
ENDBRANCH   9   4
TORSDOF 2
ENDMDL
MODEL 6
REMARK VINA RESULT:      -9.2      2.048      3.241
REMARK  Name = 
REMARK  2 active torsions:
REMARK  status: ('A' for Active; 'I' for Inactive)
REMARK    1  A    between atoms: O_2  and  C_3
REMARK    2  A    between atoms: C_4  and  C_9
REMARK                            x       y       z     vdW  Elec       q    Type
REMARK                         _______ _______ _______ _____ _____    ______ ____
ROOT
ATOM      9  C   UNL     1      -2.474   2.623  24.340  0.00  0.00    +0.252 C 
ATOM     10  O   UNL     1      -2.121   2.147  23.766  0.00  0.00    -0.270 OA
ATOM     11  N   UNL     1      -3.270   2.517  24.531  0.00  0.00    -0.272 N 
ATOM     12  C   UNL     1      -3.712   1.935  24.148  0.00  0.00    +0.115 C 
ATOM     13  C   UNL     1      -4.507   1.829  24.338  0.00  0.00    +0.117 C 
ATOM     14  N   UNL     1      -4.862   2.304  24.912  0.00  0.00    -0.259 N 
ATOM     15  C   UNL     1      -4.420   2.886  25.295  0.00  0.00    +0.118 C 
ATOM     16  C   UNL     1      -4.914   3.269  25.833  0.00  0.00    +0.138 C 
ATOM     17  N   UNL     1      -5.661   2.924  25.783  0.00  0.00    -0.187 NA
ATOM     18  C   UNL     1      -5.628   2.328  25.214  0.00  0.00    +0.323 C 
ATOM     19  O   UNL     1      -6.254   1.840  24.986  0.00  0.00    -0.251 OA
ATOM     20  C   UNL     1      -3.623   2.992  25.104  0.00  0.00    +0.115 C 
ENDROOT
BRANCH   9   4
ATOM      3  C   UNL     1      -1.409   2.990  25.217  0.00  0.00    +0.143 A 
ATOM      4  C   UNL     1      -2.032   3.205  24.723  0.00  0.00    +0.087 A 
ATOM      5  C   UNL     1      -2.215   4.002  24.611  0.00  0.00    +0.008 A 
ATOM      6  C   UNL     1      -1.773   4.584  24.994  0.00  0.00    +0.000 A 
ATOM      7  C   UNL     1      -1.148   4.369  25.489  0.00  0.00    +0.003 A 
ATOM      8  C   UNL     1      -0.967   3.572  25.600  0.00  0.00    +0.037 A 
BRANCH   3   2
ATOM      1  C   UNL     1      -0.574   1.979  25.786  0.00  0.00    +0.252 C 
ATOM      2  O   UNL     1      -1.226   2.193  25.330  0.00  0.00    -0.471 OA
ENDBRANCH   3   2
ENDBRANCH   9   4
TORSDOF 2
ENDMDL
