REMARK  Name = 
REMARK  9 active torsions:
REMARK  status: ('A' for Active; 'I' for Inactive)
REMARK    1  A    between atoms: O_2  and  C_3
REMARK    2  A    between atoms: C_6  and  C_7
REMARK    3  A    between atoms: C_7  and  C_8
REMARK    4  A    between atoms: C_13  and  C_14
REMARK    5  A    between atoms: C_14  and  C_15
REMARK    6  A    between atoms: C_18  and  C_19
REMARK    7  A    between atoms: C_19  and  C_20
REMARK    8  A    between atoms: C_20  and  N_21
REMARK    9  A    between atoms: N_24  and  C_27
REMARK                            x       y       z     vdW  Elec       q    Type
REMARK                         _______ _______ _______ _____ _____    ______ ____
ROOT
ATOM      8  C   UNL     1       3.572 -10.312   0.000  0.00  0.00    +0.230 C 
ATOM      9  O   UNL     1       2.858  -9.900   0.000  0.00  0.00    -0.275 OA
ATOM     10  N   UNL     1       3.572 -11.137   0.000  0.00  0.00    -0.279 N 
ATOM     11  C   UNL     1       4.287 -11.550   0.000  0.00  0.00    +0.093 C 
ATOM     12  C   UNL     1       4.287 -12.375   0.000  0.00  0.00    +0.022 C 
ATOM     13  C   UNL     1       3.572 -12.787   0.000  0.00  0.00    +0.015 C 
ATOM     18  C   UNL     1       2.858 -12.375   0.000  0.00  0.00    +0.022 C 
ATOM     34  C   UNL     1       2.858 -11.550   0.000  0.00  0.00    +0.093 C 
ENDROOT
BRANCH   8   7
ATOM      7  C   UNL     1       4.287  -9.900   0.000  0.00  0.00    +0.112 C 
BRANCH   7   6
ATOM      3  C   UNL     1       4.287  -7.425   0.000  0.00  0.00    +0.139 A 
ATOM      4  C   UNL     1       5.001  -7.838   0.000  0.00  0.00    +0.037 A 
ATOM      5  C   UNL     1       5.001  -8.662   0.000  0.00  0.00    -0.001 A 
ATOM      6  C   UNL     1       4.287  -9.075   0.000  0.00  0.00    -0.013 A 
ATOM     35  C   UNL     1       3.572  -8.662   0.000  0.00  0.00    -0.001 A 
ATOM     36  C   UNL     1       3.572  -7.838   0.000  0.00  0.00    +0.037 A 
BRANCH   3   2
ATOM      1  C   UNL     1       5.001  -6.188   0.000  0.00  0.00    +0.252 C 
ATOM      2  O   UNL     1       4.287  -6.600   0.000  0.00  0.00    -0.471 OA
ENDBRANCH   3   2
ENDBRANCH   7   6
ENDBRANCH   8   7
BRANCH  13  14
ATOM     14  C   UNL     1       3.572 -13.613   0.000  0.00  0.00    +0.114 C 
BRANCH  14  15
ATOM     15  C   UNL     1       4.287 -14.025   0.000  0.00  0.00    +0.365 C 
ATOM     16  O   UNL     1       5.001 -13.613   0.000  0.00  0.00    -0.246 OA
ATOM     17  O   UNL     1       4.287 -14.850   0.000  0.00  0.00    -0.246 OA
ENDBRANCH  14  15
ENDBRANCH  13  14
BRANCH  18  19
ATOM     19  C   UNL     1       2.143 -12.787   0.000  0.00  0.00    +0.019 C 
BRANCH  19  20
ATOM     20  C   UNL     1       2.143 -13.613   0.000  0.00  0.00    +0.072 C 
BRANCH  20  21
ATOM     21  N   UNL     1       1.429 -14.025   0.000  0.00  0.00    -0.270 NA
ATOM     22  C   UNL     1       1.429 -14.850   0.000  0.00  0.00    +0.094 C 
ATOM     23  C   UNL     1       0.715 -15.262   0.000  0.00  0.00    +0.108 C 
ATOM     24  N   UNL     1       0.000 -14.850   0.000  0.00  0.00    -0.305 N 
ATOM     25  C   UNL     1       0.000 -14.025   0.000  0.00  0.00    +0.108 C 
ATOM     26  C   UNL     1       0.715 -13.613   0.000  0.00  0.00    +0.094 C 
BRANCH  24  27
ATOM     27  C   UNL     1      -0.715 -15.262   0.000  0.00  0.00    +0.048 A 
ATOM     28  C   UNL     1      -0.715 -16.087   0.000  0.00  0.00    +0.017 A 
ATOM     29  C   UNL     1      -1.429 -16.500   0.000  0.00  0.00    +0.031 A 
ATOM     30  C   UNL     1      -2.143 -16.087   0.000  0.00  0.00    +0.140 A 
ATOM     31  F   UNL     1      -2.858 -16.500   0.000  0.00  0.00    -0.204 F 
ATOM     32  C   UNL     1      -2.143 -15.262   0.000  0.00  0.00    +0.031 A 
ATOM     33  C   UNL     1      -1.429 -14.850   0.000  0.00  0.00    +0.017 A 
ENDBRANCH  24  27
ENDBRANCH  20  21
ENDBRANCH  19  20
ENDBRANCH  18  19
TORSDOF 9
