MODEL 1
REMARK VINA RESULT:     -10.0      0.000      0.000
REMARK  Name = 
REMARK  7 active torsions:
REMARK  status: ('A' for Active; 'I' for Inactive)
REMARK    1  A    between atoms: C_2  and  N_3
REMARK    2  A    between atoms: N_3  and  C_4
REMARK    3  A    between atoms: N_3  and  C_6
REMARK    4  A    between atoms: C_12  and  N_13
REMARK    5  A    between atoms: N_13  and  C_14
REMARK    6  A    between atoms: C_14  and  C_15
REMARK    7  A    between atoms: C_18  and  O_19
REMARK                            x       y       z     vdW  Elec       q    Type
REMARK                         _______ _______ _______ _____ _____    ______ ____
ROOT
ATOM      6  C   UNL     1      -4.504   2.263  24.959  0.00  0.00    +0.147 C 
ATOM      7  C   UNL     1      -5.219   2.837  25.278  0.00  0.00    +0.253 C 
ATOM      8  O   UNL     1      -5.163   3.706  25.425  0.00  0.00    -0.327 OA
ATOM      9  C   UNL     1      -4.938   3.043  25.234  0.00  0.00    +0.176 C 
ATOM     10  C   UNL     1      -5.140   2.296  25.153  0.00  0.00    +0.166 C 
ATOM     11  O   UNL     1      -5.823   2.281  25.352  0.00  0.00    -0.328 OA
ATOM     12  C   UNL     1      -4.465   1.734  24.848  0.00  0.00    +0.135 C 
ATOM     23  C   UNL     1      -3.860   2.296  24.775  0.00  0.00    +0.190 C 
ATOM     24  O   UNL     1      -3.115   2.615  24.615  0.00  0.00    -0.220 OA
ENDROOT
BRANCH   6   3
ATOM      3  N   UNL     1      -4.232   3.039  25.025  0.00  0.00    -0.268 NA
BRANCH   3   2
ATOM      1  C   UNL     1      -3.791   4.244  24.394  0.00  0.00    +0.019 C 
ATOM      2  C   UNL     1      -4.175   3.515  24.353  0.00  0.00    +0.072 C 
ENDBRANCH   3   2
BRANCH   3   4
ATOM      4  C   UNL     1      -4.016   3.340  25.762  0.00  0.00    +0.072 C 
ATOM      5  C   UNL     1      -3.369   3.848  25.827  0.00  0.00    +0.019 C 
ENDBRANCH   3   4
ENDBRANCH   6   3
BRANCH  12  13
ATOM     13  N   UNL     1      -4.467   0.923  24.696  0.00  0.00    -0.209 NA
BRANCH  13  14
ATOM     14  C   UNL     1      -3.822   0.459  24.920  0.00  0.00    +0.115 C 
BRANCH  14  15
ATOM     15  C   UNL     1      -3.836  -0.355  24.792  0.00  0.00    -0.005 A 
ATOM     16  C   UNL     1      -3.581  -0.870  25.385  0.00  0.00    +0.000 A 
ATOM     17  C   UNL     1      -3.594  -1.685  25.257  0.00  0.00    +0.037 A 
ATOM     18  C   UNL     1      -3.862  -1.984  24.537  0.00  0.00    +0.139 A 
ATOM     21  C   UNL     1      -4.117  -1.470  23.945  0.00  0.00    +0.037 A 
ATOM     22  C   UNL     1      -4.103  -0.655  24.072  0.00  0.00    +0.000 A 
BRANCH  18  19
ATOM     19  O   UNL     1      -3.876  -2.800  24.409  0.00  0.00    -0.471 OA
ATOM     20  C   UNL     1      -3.228  -3.263  24.627  0.00  0.00    +0.252 C 
ENDBRANCH  18  19
ENDBRANCH  14  15
ENDBRANCH  13  14
ENDBRANCH  12  13
TORSDOF 7
ENDMDL
MODEL 2
REMARK VINA RESULT:      -9.3      1.968      2.734
REMARK  Name = 
REMARK  7 active torsions:
REMARK  status: ('A' for Active; 'I' for Inactive)
REMARK    1  A    between atoms: C_2  and  N_3
REMARK    2  A    between atoms: N_3  and  C_4
REMARK    3  A    between atoms: N_3  and  C_6
REMARK    4  A    between atoms: C_12  and  N_13
REMARK    5  A    between atoms: N_13  and  C_14
REMARK    6  A    between atoms: C_14  and  C_15
REMARK    7  A    between atoms: C_18  and  O_19
REMARK                            x       y       z     vdW  Elec       q    Type
REMARK                         _______ _______ _______ _____ _____    ______ ____
ROOT
ATOM      6  C   UNL     1      -1.581   2.152  25.168  0.00  0.00    +0.147 C 
ATOM      7  C   UNL     1      -0.813   2.315  25.740  0.00  0.00    +0.253 C 
ATOM      8  O   UNL     1      -0.487   3.104  25.960  0.00  0.00    -0.327 OA
ATOM      9  C   UNL     1      -0.932   2.629  25.641  0.00  0.00    +0.176 C 
ATOM     10  C   UNL     1      -1.101   1.877  25.538  0.00  0.00    +0.166 C 
ATOM     11  O   UNL     1      -0.606   1.537  25.920  0.00  0.00    -0.328 OA
ATOM     12  C   UNL     1      -1.834   1.706  24.992  0.00  0.00    +0.135 C 
ATOM     23  C   UNL     1      -2.040   2.488  24.813  0.00  0.00    +0.190 C 
ATOM     24  O   UNL     1      -2.451   3.124  24.484  0.00  0.00    -0.220 OA
ENDROOT
BRANCH   6   3
ATOM      3  N   UNL     1      -1.452   2.964  25.240  0.00  0.00    -0.268 NA
BRANCH   3   2
ATOM      1  C   UNL     1      -2.072   4.139  25.766  0.00  0.00    +0.019 C 
ATOM      2  C   UNL     1      -1.772   3.378  25.877  0.00  0.00    +0.072 C 
ENDBRANCH   3   2
BRANCH   3   4
ATOM      4  C   UNL     1      -1.002   3.362  24.674  0.00  0.00    +0.072 C 
ATOM      5  C   UNL     1      -0.911   4.180  24.720  0.00  0.00    +0.019 C 
ENDBRANCH   3   4
ENDBRANCH   6   3
BRANCH  12  13
ATOM     13  N   UNL     1      -2.176   0.992  24.758  0.00  0.00    -0.209 NA
BRANCH  13  14
ATOM     14  C   UNL     1      -2.956   0.821  24.966  0.00  0.00    +0.115 C 
BRANCH  14  15
ATOM     15  C   UNL     1      -3.281   0.087  24.775  0.00  0.00    -0.005 A 
ATOM     16  C   UNL     1      -3.609  -0.037  24.028  0.00  0.00    +0.000 A 
ATOM     17  C   UNL     1      -3.935  -0.770  23.836  0.00  0.00    +0.037 A 
ATOM     18  C   UNL     1      -3.932  -1.379  24.393  0.00  0.00    +0.139 A 
ATOM     21  C   UNL     1      -3.604  -1.255  25.140  0.00  0.00    +0.037 A 
ATOM     22  C   UNL     1      -3.279  -0.522  25.330  0.00  0.00    +0.000 A 
BRANCH  18  19
ATOM     19  O   UNL     1      -4.258  -2.114  24.202  0.00  0.00    -0.471 OA
ATOM     20  C   UNL     1      -3.788  -2.791  24.222  0.00  0.00    +0.252 C 
ENDBRANCH  18  19
ENDBRANCH  14  15
ENDBRANCH  13  14
ENDBRANCH  12  13
TORSDOF 7
ENDMDL
MODEL 3
REMARK VINA RESULT:      -9.1      1.114      4.813
REMARK  Name = 
REMARK  7 active torsions:
REMARK  status: ('A' for Active; 'I' for Inactive)
REMARK    1  A    between atoms: C_2  and  N_3
REMARK    2  A    between atoms: N_3  and  C_4
REMARK    3  A    between atoms: N_3  and  C_6
REMARK    4  A    between atoms: C_12  and  N_13
REMARK    5  A    between atoms: N_13  and  C_14
REMARK    6  A    between atoms: C_14  and  C_15
REMARK    7  A    between atoms: C_18  and  O_19
REMARK                            x       y       z     vdW  Elec       q    Type
REMARK                         _______ _______ _______ _____ _____    ______ ____
ROOT
ATOM      6  C   UNL     1      -3.751  -1.210  24.595  0.00  0.00    +0.147 C 
ATOM      7  C   UNL     1      -3.990  -1.956  24.022  0.00  0.00    +0.253 C 
ATOM      8  O   UNL     1      -3.588  -2.741  23.994  0.00  0.00    -0.327 OA
ATOM      9  C   UNL     1      -3.716  -2.061  24.212  0.00  0.00    +0.176 C 
ATOM     10  C   UNL     1      -4.164  -1.432  24.123  0.00  0.00    +0.166 C 
ATOM     11  O   UNL     1      -4.630  -1.624  23.620  0.00  0.00    -0.328 OA
ATOM     12  C   UNL     1      -3.946  -0.710  24.667  0.00  0.00    +0.135 C 
ATOM     23  C   UNL     1      -3.304  -1.046  25.069  0.00  0.00    +0.190 C 
ATOM     24  O   UNL     1      -2.671  -1.116  25.593  0.00  0.00    -0.220 OA
ENDROOT
BRANCH   6   3
ATOM      3  N   UNL     1      -3.243  -1.845  24.734  0.00  0.00    -0.268 NA
BRANCH   3   2
ATOM      1  C   UNL     1      -3.040  -2.812  25.767  0.00  0.00    +0.019 C 
ATOM      2  C   UNL     1      -3.506  -2.499  25.163  0.00  0.00    +0.072 C 
ENDBRANCH   3   2
BRANCH   3   4
ATOM      4  C   UNL     1      -2.470  -1.826  24.445  0.00  0.00    +0.072 C 
ATOM      5  C   UNL     1      -1.981  -2.485  24.529  0.00  0.00    +0.019 C 
ENDBRANCH   3   4
ENDBRANCH   6   3
BRANCH  12  13
ATOM     13  N   UNL     1      -4.289   0.039  24.730  0.00  0.00    -0.209 NA
BRANCH  13  14
ATOM     14  C   UNL     1      -3.904   0.696  24.411  0.00  0.00    +0.115 C 
BRANCH  14  15
ATOM     15  C   UNL     1      -4.193   1.454  24.558  0.00  0.00    -0.005 A 
ATOM     16  C   UNL     1      -4.912   1.552  24.952  0.00  0.00    +0.000 A 
ATOM     17  C   UNL     1      -5.202   2.310  25.100  0.00  0.00    +0.037 A 
ATOM     18  C   UNL     1      -4.772   2.970  24.854  0.00  0.00    +0.139 A 
ATOM     21  C   UNL     1      -4.054   2.872  24.460  0.00  0.00    +0.037 A 
ATOM     22  C   UNL     1      -3.765   2.114  24.312  0.00  0.00    +0.000 A 
BRANCH  18  19
ATOM     19  O   UNL     1      -5.062   3.730  25.001  0.00  0.00    -0.471 OA
ATOM     20  C   UNL     1      -5.510   3.875  25.678  0.00  0.00    +0.252 C 
ENDBRANCH  18  19
ENDBRANCH  14  15
ENDBRANCH  13  14
ENDBRANCH  12  13
TORSDOF 7
ENDMDL
MODEL 4
REMARK VINA RESULT:      -8.9      1.849      4.587
REMARK  Name = 
REMARK  7 active torsions:
REMARK  status: ('A' for Active; 'I' for Inactive)
REMARK    1  A    between atoms: C_2  and  N_3
REMARK    2  A    between atoms: N_3  and  C_4
REMARK    3  A    between atoms: N_3  and  C_6
REMARK    4  A    between atoms: C_12  and  N_13
REMARK    5  A    between atoms: N_13  and  C_14
REMARK    6  A    between atoms: C_14  and  C_15
REMARK    7  A    between atoms: C_18  and  O_19
REMARK                            x       y       z     vdW  Elec       q    Type
REMARK                         _______ _______ _______ _____ _____    ______ ____
ROOT
ATOM      6  C   UNL     1      -3.393   0.440  24.633  0.00  0.00    +0.147 C 
ATOM      7  C   UNL     1      -4.352   0.286  24.640  0.00  0.00    +0.253 C 
ATOM      8  O   UNL     1      -4.752  -0.497  24.719  0.00  0.00    -0.327 OA
ATOM      9  C   UNL     1      -4.200  -0.028  24.674  0.00  0.00    +0.176 C 
ATOM     10  C   UNL     1      -3.996   0.718  24.598  0.00  0.00    +0.166 C 
ATOM     11  O   UNL     1      -4.619   1.061  24.556  0.00  0.00    -0.328 OA
ATOM     12  C   UNL     1      -3.082   0.881  24.589  0.00  0.00    +0.135 C 
ATOM     23  C   UNL     1      -2.816   0.101  24.674  0.00  0.00    +0.190 C 
ATOM     24  O   UNL     1      -2.295  -0.536  24.745  0.00  0.00    -0.220 OA
ENDROOT
BRANCH   6   3
ATOM      3  N   UNL     1      -3.546  -0.366  24.716  0.00  0.00    -0.268 NA
BRANCH   3   2
ATOM      1  C   UNL     1      -3.660  -1.670  24.142  0.00  0.00    +0.019 C 
ATOM      2  C   UNL     1      -3.536  -0.859  24.054  0.00  0.00    +0.072 C 
ENDBRANCH   3   2
BRANCH   3   4
ATOM      4  C   UNL     1      -3.710  -0.681  25.461  0.00  0.00    +0.072 C 
ATOM      5  C   UNL     1      -3.421  -1.426  25.668  0.00  0.00    +0.019 C 
ENDBRANCH   3   4
ENDBRANCH   6   3
BRANCH  12  13
ATOM     13  N   UNL     1      -2.661   1.588  24.519  0.00  0.00    -0.209 NA
BRANCH  13  14
ATOM     14  C   UNL     1      -2.124   1.809  25.105  0.00  0.00    +0.115 C 
BRANCH  14  15
ATOM     15  C   UNL     1      -1.769   2.552  25.080  0.00  0.00    -0.005 A 
ATOM     16  C   UNL     1      -1.102   2.675  24.610  0.00  0.00    +0.000 A 
ATOM     17  C   UNL     1      -0.746   3.419  24.585  0.00  0.00    +0.037 A 
ATOM     18  C   UNL     1      -1.058   4.040  25.029  0.00  0.00    +0.139 A 
ATOM     21  C   UNL     1      -1.725   3.917  25.499  0.00  0.00    +0.037 A 
ATOM     22  C   UNL     1      -2.080   3.174  25.524  0.00  0.00    +0.000 A 
BRANCH  18  19
ATOM     19  O   UNL     1      -0.702   4.785  25.004  0.00  0.00    -0.471 OA
ATOM     20  C   UNL     1      -1.169   5.463  24.947  0.00  0.00    +0.252 C 
ENDBRANCH  18  19
ENDBRANCH  14  15
ENDBRANCH  13  14
ENDBRANCH  12  13
TORSDOF 7
ENDMDL
