REMARK  Name = 
REMARK  7 active torsions:
REMARK  status: ('A' for Active; 'I' for Inactive)
REMARK    1  A    between atoms: O_2  and  C_3
REMARK    2  A    between atoms: C_3  and  C_4
REMARK    3  A    between atoms: C_6  and  C_7
REMARK    4  A    between atoms: C_7  and  C_8
REMARK    5  A    between atoms: C_13  and  C_14
REMARK    6  A    between atoms: C_14  and  N_15
REMARK    7  A    between atoms: N_15  and  C_16
REMARK                            x       y       z     vdW  Elec       q    Type
REMARK                         _______ _______ _______ _____ _____    ______ ____
ROOT
ATOM      8  C   UNL     1       4.576  -6.801   0.000  0.00  0.00    +0.121 C 
ATOM      9  C   UNL     1       4.911  -6.047   0.000  0.00  0.00    +0.033 C 
ATOM     10  C   UNL     1       5.732  -5.961   0.000  0.00  0.00    +0.038 C 
ATOM     11  C   UNL     1       6.217  -6.628   0.000  0.00  0.00    +0.180 C 
ATOM     12  O   UNL     1       7.037  -6.542   0.000  0.00  0.00    -0.220 OA
ATOM     13  C   UNL     1       5.881  -7.382   0.000  0.00  0.00    +0.163 C 
ATOM     22  O   UNL     1       5.061  -7.468   0.000  0.00  0.00    -0.354 OA
ENDROOT
BRANCH   8   7
ATOM      7  C   UNL     1       3.755  -6.887   0.000  0.00  0.00    +0.079 C 
BRANCH   7   6
ATOM      4  C   UNL     1       2.858  -4.950   0.000  0.00  0.00    +0.184 A 
ATOM      5  C   UNL     1       3.525  -5.435   0.000  0.00  0.00    +0.056 A 
ATOM      6  C   UNL     1       3.270  -6.220   0.000  0.00  0.00    +0.103 A 
ATOM     23  N   UNL     1       2.445  -6.220   0.000  0.00  0.00    -0.082 NA
ATOM     24  O   UNL     1       2.190  -5.435   0.000  0.00  0.00    -0.356 OA
BRANCH   4   3
ATOM      3  C   UNL     1       2.858  -4.125   0.000  0.00  0.00    +0.209 C 
BRANCH   3   2
ATOM      1  C   UNL     1       2.143  -2.888   0.000  0.00  0.00    +0.175 C 
ATOM      2  O   UNL     1       2.143  -3.712   0.000  0.00  0.00    -0.343 OA
ENDBRANCH   3   2
ENDBRANCH   4   3
ENDBRANCH   7   6
ENDBRANCH   8   7
BRANCH  13  14
ATOM     14  C   UNL     1       6.366  -8.049   0.000  0.00  0.00    +0.121 C 
BRANCH  14  15
ATOM     15  N   UNL     1       7.187  -7.963   0.000  0.00  0.00    -0.217 NA
BRANCH  15  16
ATOM     16  C   UNL     1       7.671  -8.631   0.000  0.00  0.00    +0.073 C 
ATOM     17  C   UNL     1       8.492  -8.544   0.000  0.00  0.00    +0.017 C 
ATOM     18  C   UNL     1       8.977  -9.212   0.000  0.00  0.00    +0.001 C 
ATOM     19  C   UNL     1       8.641  -9.966   0.000  0.00  0.00    +0.000 C 
ATOM     20  C   UNL     1       7.821 -10.052   0.000  0.00  0.00    +0.001 C 
ATOM     21  C   UNL     1       7.336  -9.384   0.000  0.00  0.00    +0.017 C 
ENDBRANCH  15  16
ENDBRANCH  14  15
ENDBRANCH  13  14
TORSDOF 7
