MODEL 1
REMARK VINA RESULT:     -10.5      0.000      0.000
REMARK  Name = 
REMARK  3 active torsions:
REMARK  status: ('A' for Active; 'I' for Inactive)
REMARK    1  A    between atoms: C_5  and  C_8
REMARK    2  A    between atoms: C_17  and  N_25
REMARK    3  A    between atoms: C_26  and  C_28
REMARK                            x       y       z     vdW  Elec       q    Type
REMARK                         _______ _______ _______ _____ _____    ______ ____
ROOT
ATOM      8  C   UNL     1      -3.547   2.679  24.873  0.00  0.00    +0.000 A 
ATOM      9  C   UNL     1      -3.322   3.471  24.852  0.00  0.00    +0.001 A 
ATOM     10  C   UNL     1      -2.535   3.673  24.706  0.00  0.00    +0.017 A 
ATOM     11  C   UNL     1      -1.974   3.082  24.582  0.00  0.00    +0.078 A 
ATOM     12  N   UNL     1      -1.225   3.400  24.447  0.00  0.00    -0.178 NA
ATOM     13  C   UNL     1      -0.517   3.004  24.299  0.00  0.00    +0.264 C 
ATOM     14  O   UNL     1       0.145   3.484  24.185  0.00  0.00    -0.271 OA
ATOM     15  C   UNL     1      -0.381   2.192  24.250  0.00  0.00    +0.156 C 
ATOM     16  C   UNL     1       0.411   2.026  24.093  0.00  0.00    +0.051 C 
ATOM     17  C   UNL     1       0.663   1.244  24.023  0.00  0.00    +0.099 C 
ATOM     18  C   UNL     1       0.123   0.627  24.110  0.00  0.00    +0.043 C 
ATOM     19  C   UNL     1      -0.670   0.793  24.267  0.00  0.00    +0.096 C 
ATOM     20  N   UNL     1      -0.922   1.575  24.337  0.00  0.00    -0.269 N 
ATOM     21  C   UNL     1      -1.731   1.618  24.494  0.00  0.00    +0.251 C 
ATOM     22  O   UNL     1      -2.124   0.894  24.550  0.00  0.00    -0.270 OA
ATOM     23  C   UNL     1      -2.199   2.289  24.603  0.00  0.00    +0.069 A 
ATOM     24  C   UNL     1      -2.985   2.087  24.749  0.00  0.00    +0.006 A 
ENDROOT
BRANCH   8   5
ATOM      1 CL   UNL     1      -6.693   1.871  25.458  0.00  0.00    -0.082 Cl
ATOM      2  C   UNL     1      -5.907   2.073  25.311  0.00  0.00    +0.058 A 
ATOM      3  C   UNL     1      -5.494   2.542  25.851  0.00  0.00    +0.011 A 
ATOM      4  C   UNL     1      -4.707   2.743  25.705  0.00  0.00    +0.001 A 
ATOM      5  C   UNL     1      -4.333   2.477  25.019  0.00  0.00    +0.000 A 
ATOM      6  C   UNL     1      -4.746   2.008  24.480  0.00  0.00    +0.001 A 
ATOM      7  C   UNL     1      -5.533   1.806  24.626  0.00  0.00    +0.011 A 
ENDBRANCH   8   5
BRANCH  17  25
ATOM     25  N   UNL     1       1.456   1.079  23.866  0.00  0.00    -0.203 NA
ATOM     26  C   UNL     1       1.663   0.657  23.187  0.00  0.00    +0.266 C 
ATOM     27  O   UNL     1       1.077   0.401  22.666  0.00  0.00    -0.268 OA
BRANCH  26  28
ATOM     28  C   UNL     1       2.456   0.492  23.030  0.00  0.00    +0.074 A 
ATOM     29  C   UNL     1       2.728  -0.286  23.056  0.00  0.00    +0.103 A 
ATOM     30  N   UNL     1       3.521  -0.452  22.899  0.00  0.00    -0.242 NA
ATOM     31  C   UNL     1       4.042   0.161  22.715  0.00  0.00    +0.099 A 
ATOM     32  C   UNL     1       3.769   0.939  22.689  0.00  0.00    +0.021 A 
ATOM     33  C   UNL     1       2.977   1.105  22.846  0.00  0.00    +0.008 A 
ENDBRANCH  26  28
ENDBRANCH  17  25
TORSDOF 3
ENDMDL
MODEL 2
REMARK VINA RESULT:     -10.5      1.370      2.048
REMARK  Name = 
REMARK  3 active torsions:
REMARK  status: ('A' for Active; 'I' for Inactive)
REMARK    1  A    between atoms: C_5  and  C_8
REMARK    2  A    between atoms: C_17  and  N_25
REMARK    3  A    between atoms: C_26  and  C_28
REMARK                            x       y       z     vdW  Elec       q    Type
REMARK                         _______ _______ _______ _____ _____    ______ ____
ROOT
ATOM      8  C   UNL     1      -3.669   0.579  24.992  0.00  0.00    +0.000 A 
ATOM      9  C   UNL     1      -3.615  -0.142  25.387  0.00  0.00    +0.001 A 
ATOM     10  C   UNL     1      -2.919  -0.583  25.349  0.00  0.00    +0.017 A 
ATOM     11  C   UNL     1      -2.276  -0.303  24.915  0.00  0.00    +0.078 A 
ATOM     12  N   UNL     1      -1.639  -0.825  24.948  0.00  0.00    -0.178 NA
ATOM     13  C   UNL     1      -0.897  -0.755  24.594  0.00  0.00    +0.264 C 
ATOM     14  O   UNL     1      -0.374  -1.377  24.733  0.00  0.00    -0.271 OA
ATOM     15  C   UNL     1      -0.609  -0.144  24.119  0.00  0.00    +0.156 C 
ATOM     16  C   UNL     1       0.165  -0.291  23.876  0.00  0.00    +0.051 C 
ATOM     17  C   UNL     1       0.557   0.254  23.396  0.00  0.00    +0.099 C 
ATOM     18  C   UNL     1       0.173   0.944  23.158  0.00  0.00    +0.043 C 
ATOM     19  C   UNL     1      -0.601   1.090  23.400  0.00  0.00    +0.096 C 
ATOM     20  N   UNL     1      -0.993   0.546  23.881  0.00  0.00    -0.269 N 
ATOM     21  C   UNL     1      -1.758   0.797  24.059  0.00  0.00    +0.251 C 
ATOM     22  O   UNL     1      -1.982   1.521  23.734  0.00  0.00    -0.270 OA
ATOM     23  C   UNL     1      -2.330   0.419  24.519  0.00  0.00    +0.069 A 
ATOM     24  C   UNL     1      -3.025   0.860  24.557  0.00  0.00    +0.006 A 
ENDROOT
BRANCH   8   5
ATOM      1 CL   UNL     1      -6.452   2.346  25.145  0.00  0.00    -0.082 Cl
ATOM      2  C   UNL     1      -5.756   1.904  25.107  0.00  0.00    +0.058 A 
ATOM      3  C   UNL     1      -5.065   2.192  25.454  0.00  0.00    +0.011 A 
ATOM      4  C   UNL     1      -4.369   1.750  25.416  0.00  0.00    +0.001 A 
ATOM      5  C   UNL     1      -4.364   1.020  25.030  0.00  0.00    +0.000 A 
ATOM      6  C   UNL     1      -5.056   0.733  24.683  0.00  0.00    +0.001 A 
ATOM      7  C   UNL     1      -5.752   1.175  24.721  0.00  0.00    +0.011 A 
ENDBRANCH   8   5
BRANCH  17  25
ATOM     25  N   UNL     1       1.332   0.108  23.153  0.00  0.00    -0.203 NA
ATOM     26  C   UNL     1       1.929   0.651  23.328  0.00  0.00    +0.266 C 
ATOM     27  O   UNL     1       1.750   1.339  23.746  0.00  0.00    -0.268 OA
BRANCH  26  28
ATOM     28  C   UNL     1       2.703   0.504  23.086  0.00  0.00    +0.074 A 
ATOM     29  C   UNL     1       3.007  -0.262  23.115  0.00  0.00    +0.103 A 
ATOM     30  N   UNL     1       3.782  -0.408  22.873  0.00  0.00    -0.242 NA
ATOM     31  C   UNL     1       4.253   0.212  22.601  0.00  0.00    +0.099 A 
ATOM     32  C   UNL     1       3.949   0.978  22.571  0.00  0.00    +0.021 A 
ATOM     33  C   UNL     1       3.174   1.125  22.814  0.00  0.00    +0.008 A 
ENDBRANCH  26  28
ENDBRANCH  17  25
TORSDOF 3
ENDMDL
MODEL 3
REMARK VINA RESULT:      -9.9      2.392      6.577
REMARK  Name = 
REMARK  3 active torsions:
REMARK  status: ('A' for Active; 'I' for Inactive)
REMARK    1  A    between atoms: C_5  and  C_8
REMARK    2  A    between atoms: C_17  and  N_25
REMARK    3  A    between atoms: C_26  and  C_28
REMARK                            x       y       z     vdW  Elec       q    Type
REMARK                         _______ _______ _______ _____ _____    ______ ____
ROOT
ATOM      8  C   UNL     1       1.105   0.110  23.325  0.00  0.00    +0.000 A 
ATOM      9  C   UNL     1       0.856  -0.662  23.473  0.00  0.00    +0.001 A 
ATOM     10  C   UNL     1       0.116  -0.799  23.811  0.00  0.00    +0.017 A 
ATOM     11  C   UNL     1      -0.375  -0.165  24.001  0.00  0.00    +0.078 A 
ATOM     12  N   UNL     1      -1.086  -0.422  24.331  0.00  0.00    -0.178 NA
ATOM     13  C   UNL     1      -1.723   0.030  24.596  0.00  0.00    +0.264 C 
ATOM     14  O   UNL     1      -2.361  -0.395  24.901  0.00  0.00    -0.271 OA
ATOM     15  C   UNL     1      -1.808   0.851  24.595  0.00  0.00    +0.156 C 
ATOM     16  C   UNL     1      -2.535   1.079  24.910  0.00  0.00    +0.051 C 
ATOM     17  C   UNL     1      -2.730   1.879  24.959  0.00  0.00    +0.099 C 
ATOM     18  C   UNL     1      -2.198   2.451  24.694  0.00  0.00    +0.043 C 
ATOM     19  C   UNL     1      -1.471   2.222  24.379  0.00  0.00    +0.096 C 
ATOM     20  N   UNL     1      -1.276   1.422  24.329  0.00  0.00    -0.269 N 
ATOM     21  C   UNL     1      -0.527   1.314  23.999  0.00  0.00    +0.251 C 
ATOM     22  O   UNL     1      -0.127   2.003  23.787  0.00  0.00    -0.270 OA
ATOM     23  C   UNL     1      -0.126   0.608  23.853  0.00  0.00    +0.069 A 
ATOM     24  C   UNL     1       0.613   0.745  23.515  0.00  0.00    +0.006 A 
ENDROOT
BRANCH   8   5
ATOM      1 CL   UNL     1       4.065   0.663  21.974  0.00  0.00    -0.082 Cl
ATOM      2  C   UNL     1       3.325   0.525  22.312  0.00  0.00    +0.058 A 
ATOM      3  C   UNL     1       3.138   0.854  23.046  0.00  0.00    +0.011 A 
ATOM      4  C   UNL     1       2.398   0.715  23.383  0.00  0.00    +0.001 A 
ATOM      5  C   UNL     1       1.844   0.248  22.987  0.00  0.00    +0.000 A 
ATOM      6  C   UNL     1       2.032  -0.080  22.253  0.00  0.00    +0.001 A 
ATOM      7  C   UNL     1       2.772   0.059  21.916  0.00  0.00    +0.011 A 
ENDBRANCH   8   5
BRANCH  17  25
ATOM     25  N   UNL     1      -3.458   2.108  25.274  0.00  0.00    -0.203 NA
ATOM     26  C   UNL     1      -4.058   2.376  24.775  0.00  0.00    +0.266 C 
ATOM     27  O   UNL     1      -3.930   2.415  23.961  0.00  0.00    -0.268 OA
BRANCH  26  28
ATOM     28  C   UNL     1      -4.785   2.604  25.090  0.00  0.00    +0.074 A 
ATOM     29  C   UNL     1      -4.886   3.369  25.382  0.00  0.00    +0.103 A 
ATOM     30  N   UNL     1      -5.613   3.597  25.697  0.00  0.00    -0.242 NA
ATOM     31  C   UNL     1      -6.240   3.061  25.720  0.00  0.00    +0.099 A 
ATOM     32  C   UNL     1      -6.139   2.297  25.427  0.00  0.00    +0.021 A 
ATOM     33  C   UNL     1      -5.412   2.068  25.112  0.00  0.00    +0.008 A 
ENDBRANCH  26  28
ENDBRANCH  17  25
TORSDOF 3
ENDMDL
MODEL 4
REMARK VINA RESULT:      -9.8     15.649     17.076
REMARK  Name = 
REMARK  3 active torsions:
REMARK  status: ('A' for Active; 'I' for Inactive)
REMARK    1  A    between atoms: C_5  and  C_8
REMARK    2  A    between atoms: C_17  and  N_25
REMARK    3  A    between atoms: C_26  and  C_28
REMARK                            x       y       z     vdW  Elec       q    Type
REMARK                         _______ _______ _______ _____ _____    ______ ____
ROOT
ATOM      8  C   UNL     1      -3.584 -10.084  11.408  0.00  0.00    +0.000 A 
ATOM      9  C   UNL     1      -2.797 -10.195  11.625  0.00  0.00    +0.001 A 
ATOM     10  C   UNL     1      -2.604 -10.347  12.413  0.00  0.00    +0.017 A 
ATOM     11  C   UNL     1      -3.198 -10.387  12.983  0.00  0.00    +0.078 A 
ATOM     12  N   UNL     1      -2.888 -10.542  13.731  0.00  0.00    -0.178 NA
ATOM     13  C   UNL     1      -3.290 -10.626  14.447  0.00  0.00    +0.264 C 
ATOM     14  O   UNL     1      -2.818 -10.781  15.106  0.00  0.00    -0.271 OA
ATOM     15  C   UNL     1      -4.100 -10.574  14.592  0.00  0.00    +0.156 C 
ATOM     16  C   UNL     1      -4.273 -10.692  15.390  0.00  0.00    +0.051 C 
ATOM     17  C   UNL     1      -5.055 -10.663  15.652  0.00  0.00    +0.099 C 
ATOM     18  C   UNL     1      -5.663 -10.515  15.116  0.00  0.00    +0.043 C 
ATOM     19  C   UNL     1      -5.491 -10.396  14.318  0.00  0.00    +0.096 C 
ATOM     20  N   UNL     1      -4.709 -10.426  14.056  0.00  0.00    -0.269 N 
ATOM     21  C   UNL     1      -4.659 -10.293  13.243  0.00  0.00    +0.251 C 
ATOM     22  O   UNL     1      -5.376 -10.160  12.857  0.00  0.00    -0.270 OA
ATOM     23  C   UNL     1      -3.986 -10.276  12.765  0.00  0.00    +0.069 A 
ATOM     24  C   UNL     1      -4.179 -10.125  11.978  0.00  0.00    +0.006 A 
ENDROOT
BRANCH   8   5
ATOM      1 CL   UNL     1      -4.359  -9.478   8.257  0.00  0.00    -0.082 Cl
ATOM      2  C   UNL     1      -4.165  -9.630   9.045  0.00  0.00    +0.058 A 
ATOM      3  C   UNL     1      -3.822  -9.038   9.507  0.00  0.00    +0.011 A 
ATOM      4  C   UNL     1      -3.629  -9.190  10.294  0.00  0.00    +0.001 A 
ATOM      5  C   UNL     1      -3.778  -9.933  10.621  0.00  0.00    +0.000 A 
ATOM      6  C   UNL     1      -4.121 -10.525  10.158  0.00  0.00    +0.001 A 
ATOM      7  C   UNL     1      -4.314 -10.373   9.370  0.00  0.00    +0.011 A 
ENDBRANCH   8   5
BRANCH  17  25
ATOM     25  N   UNL     1      -5.227 -10.781  16.450  0.00  0.00    -0.203 NA
ATOM     26  C   UNL     1      -5.531 -10.162  16.903  0.00  0.00    +0.266 C 
ATOM     27  O   UNL     1      -5.662  -9.424  16.558  0.00  0.00    -0.268 OA
BRANCH  26  28
ATOM     28  C   UNL     1      -5.703 -10.280  17.701  0.00  0.00    +0.074 A 
ATOM     29  C   UNL     1      -5.109 -10.520  18.220  0.00  0.00    +0.103 A 
ATOM     30  N   UNL     1      -5.281 -10.639  19.018  0.00  0.00    -0.242 NA
ATOM     31  C   UNL     1      -6.048 -10.517  19.297  0.00  0.00    +0.099 A 
ATOM     32  C   UNL     1      -6.642 -10.277  18.778  0.00  0.00    +0.021 A 
ATOM     33  C   UNL     1      -6.470 -10.158  17.980  0.00  0.00    +0.008 A 
ENDBRANCH  26  28
ENDBRANCH  17  25
TORSDOF 3
ENDMDL
MODEL 5
REMARK VINA RESULT:      -7.9      3.239      4.932
REMARK  Name = 
REMARK  3 active torsions:
REMARK  status: ('A' for Active; 'I' for Inactive)
REMARK    1  A    between atoms: C_5  and  C_8
REMARK    2  A    between atoms: C_17  and  N_25
REMARK    3  A    between atoms: C_26  and  C_28
REMARK                            x       y       z     vdW  Elec       q    Type
REMARK                         _______ _______ _______ _____ _____    ______ ____
ROOT
ATOM      8  C   UNL     1      -1.163   3.644  25.284  0.00  0.00    +0.000 A 
ATOM      9  C   UNL     1      -0.572   3.360  25.785  0.00  0.00    +0.001 A 
ATOM     10  C   UNL     1      -0.483   2.548  25.900  0.00  0.00    +0.017 A 
ATOM     11  C   UNL     1      -0.985   2.019  25.515  0.00  0.00    +0.078 A 
ATOM     12  N   UNL     1      -0.802   1.238  25.706  0.00  0.00    -0.178 NA
ATOM     13  C   UNL     1      -1.167   0.546  25.442  0.00  0.00    +0.264 C 
ATOM     14  O   UNL     1      -0.853  -0.158  25.737  0.00  0.00    -0.271 OA
ATOM     15  C   UNL     1      -1.803   0.464  24.923  0.00  0.00    +0.156 C 
ATOM     16  C   UNL     1      -1.997  -0.328  24.805  0.00  0.00    +0.051 C 
ATOM     17  C   UNL     1      -2.620  -0.531  24.304  0.00  0.00    +0.099 C 
ATOM     18  C   UNL     1      -3.049   0.060  23.920  0.00  0.00    +0.043 C 
ATOM     19  C   UNL     1      -2.855   0.853  24.038  0.00  0.00    +0.096 C 
ATOM     20  N   UNL     1      -2.232   1.056  24.540  0.00  0.00    -0.269 N 
ATOM     21  C   UNL     1      -2.131   1.873  24.580  0.00  0.00    +0.251 C 
ATOM     22  O   UNL     1      -2.655   2.321  24.127  0.00  0.00    -0.270 OA
ATOM     23  C   UNL     1      -1.576   2.303  25.015  0.00  0.00    +0.069 A 
ATOM     24  C   UNL     1      -1.665   3.114  24.899  0.00  0.00    +0.006 A 
ENDROOT
BRANCH   8   5
ATOM      1 CL   UNL     1      -1.521   6.891  24.822  0.00  0.00    -0.082 Cl
ATOM      2  C   UNL     1      -1.431   6.079  24.937  0.00  0.00    +0.058 A 
ATOM      3  C   UNL     1      -2.018   5.651  25.331  0.00  0.00    +0.011 A 
ATOM      4  C   UNL     1      -1.928   4.839  25.446  0.00  0.00    +0.001 A 
ATOM      5  C   UNL     1      -1.252   4.455  25.169  0.00  0.00    +0.000 A 
ATOM      6  C   UNL     1      -0.666   4.884  24.776  0.00  0.00    +0.001 A 
ATOM      7  C   UNL     1      -0.756   5.696  24.660  0.00  0.00    +0.011 A 
ENDBRANCH   8   5
BRANCH  17  25
ATOM     25  N   UNL     1      -2.813  -1.324  24.186  0.00  0.00    -0.203 NA
ATOM     26  C   UNL     1      -3.541  -1.614  24.445  0.00  0.00    +0.266 C 
ATOM     27  O   UNL     1      -4.075  -1.111  24.823  0.00  0.00    -0.268 OA
BRANCH  26  28
ATOM     28  C   UNL     1      -3.735  -2.407  24.328  0.00  0.00    +0.074 A 
ATOM     29  C   UNL     1      -3.389  -2.991  24.797  0.00  0.00    +0.103 A 
ATOM     30  N   UNL     1      -3.583  -3.783  24.679  0.00  0.00    -0.242 NA
ATOM     31  C   UNL     1      -4.123  -3.994  24.091  0.00  0.00    +0.099 A 
ATOM     32  C   UNL     1      -4.469  -3.410  23.622  0.00  0.00    +0.021 A 
ATOM     33  C   UNL     1      -4.275  -2.617  23.740  0.00  0.00    +0.008 A 
ENDBRANCH  26  28
ENDBRANCH  17  25
TORSDOF 3
ENDMDL
MODEL 6
REMARK VINA RESULT:      -7.6     16.384     17.301
REMARK  Name = 
REMARK  3 active torsions:
REMARK  status: ('A' for Active; 'I' for Inactive)
REMARK    1  A    between atoms: C_5  and  C_8
REMARK    2  A    between atoms: C_17  and  N_25
REMARK    3  A    between atoms: C_26  and  C_28
REMARK                            x       y       z     vdW  Elec       q    Type
REMARK                         _______ _______ _______ _____ _____    ______ ____
ROOT
ATOM      8  C   UNL     1      -6.147  -9.265  10.525  0.00  0.00    +0.000 A 
ATOM      9  C   UNL     1      -5.369  -9.481  10.359  0.00  0.00    +0.001 A 
ATOM     10  C   UNL     1      -4.885  -9.773  10.960  0.00  0.00    +0.017 A 
ATOM     11  C   UNL     1      -5.179  -9.851  11.726  0.00  0.00    +0.078 A 
ATOM     12  N   UNL     1      -4.608 -10.152  12.240  0.00  0.00    -0.178 NA
ATOM     13  C   UNL     1      -4.675 -10.312  13.046  0.00  0.00    +0.264 C 
ATOM     14  O   UNL     1      -3.998 -10.613  13.408  0.00  0.00    -0.271 OA
ATOM     15  C   UNL     1      -5.329 -10.211  13.539  0.00  0.00    +0.156 C 
ATOM     16  C   UNL     1      -5.162 -10.440  14.313  0.00  0.00    +0.051 C 
ATOM     17  C   UNL     1      -5.744 -10.382  14.895  0.00  0.00    +0.099 C 
ATOM     18  C   UNL     1      -6.493 -10.096  14.702  0.00  0.00    +0.043 C 
ATOM     19  C   UNL     1      -6.660  -9.867  13.928  0.00  0.00    +0.096 C 
ATOM     20  N   UNL     1      -6.078  -9.924  13.346  0.00  0.00    -0.269 N 
ATOM     21  C   UNL     1      -6.358  -9.668  12.613  0.00  0.00    +0.251 C 
ATOM     22  O   UNL     1      -7.142  -9.411  12.600  0.00  0.00    -0.270 OA
ATOM     23  C   UNL     1      -5.958  -9.635  11.892  0.00  0.00    +0.069 A 
ATOM     24  C   UNL     1      -6.442  -9.343  11.292  0.00  0.00    +0.006 A 
ENDROOT
BRANCH   8   5
ATOM      1 CL   UNL     1      -8.085  -8.094   8.124  0.00  0.00    -0.082 Cl
ATOM      2  C   UNL     1      -7.600  -8.387   8.724  0.00  0.00    +0.058 A 
ATOM      3  C   UNL     1      -6.876  -8.024   8.884  0.00  0.00    +0.011 A 
ATOM      4  C   UNL     1      -6.392  -8.317   9.484  0.00  0.00    +0.001 A 
ATOM      5  C   UNL     1      -6.631  -8.973   9.925  0.00  0.00    +0.000 A 
ATOM      6  C   UNL     1      -7.356  -9.335   9.765  0.00  0.00    +0.001 A 
ATOM      7  C   UNL     1      -7.840  -9.042   9.164  0.00  0.00    +0.011 A 
ENDBRANCH   8   5
BRANCH  17  25
ATOM     25  N   UNL     1      -5.577 -10.611  15.670  0.00  0.00    -0.203 NA
ATOM     26  C   UNL     1      -5.547 -10.045  16.271  0.00  0.00    +0.266 C 
ATOM     27  O   UNL     1      -5.685  -9.251  16.096  0.00  0.00    -0.268 OA
BRANCH  26  28
ATOM     28  C   UNL     1      -5.380 -10.274  17.045  0.00  0.00    +0.074 A 
ATOM     29  C   UNL     1      -4.628 -10.552  17.240  0.00  0.00    +0.103 A 
ATOM     30  N   UNL     1      -4.461 -10.781  18.014  0.00  0.00    -0.242 NA
ATOM     31  C   UNL     1      -5.046 -10.732  18.595  0.00  0.00    +0.099 A 
ATOM     32  C   UNL     1      -5.797 -10.454  18.400  0.00  0.00    +0.021 A 
ATOM     33  C   UNL     1      -5.964 -10.225  17.625  0.00  0.00    +0.008 A 
ENDBRANCH  26  28
ENDBRANCH  17  25
TORSDOF 3
ENDMDL
MODEL 7
REMARK VINA RESULT:      -7.5     16.704     17.810
REMARK  Name = 
REMARK  3 active torsions:
REMARK  status: ('A' for Active; 'I' for Inactive)
REMARK    1  A    between atoms: C_5  and  C_8
REMARK    2  A    between atoms: C_17  and  N_25
REMARK    3  A    between atoms: C_26  and  C_28
REMARK                            x       y       z     vdW  Elec       q    Type
REMARK                         _______ _______ _______ _____ _____    ______ ____
ROOT
ATOM      8  C   UNL     1      -5.449  -9.666   9.487  0.00  0.00    +0.000 A 
ATOM      9  C   UNL     1      -4.792  -9.431   9.048  0.00  0.00    +0.001 A 
ATOM     10  C   UNL     1      -4.041  -9.445   9.389  0.00  0.00    +0.017 A 
ATOM     11  C   UNL     1      -3.947  -9.693  10.169  0.00  0.00    +0.078 A 
ATOM     12  N   UNL     1      -3.156  -9.665  10.401  0.00  0.00    -0.178 NA
ATOM     13  C   UNL     1      -2.826  -9.865  11.131  0.00  0.00    +0.264 C 
ATOM     14  O   UNL     1      -2.009  -9.776  11.191  0.00  0.00    -0.271 OA
ATOM     15  C   UNL     1      -3.206 -10.143  11.809  0.00  0.00    +0.156 C 
ATOM     16  C   UNL     1      -2.671 -10.276  12.422  0.00  0.00    +0.051 C 
ATOM     17  C   UNL     1      -2.939 -10.556  13.150  0.00  0.00    +0.099 C 
ATOM     18  C   UNL     1      -3.742 -10.702  13.265  0.00  0.00    +0.043 C 
ATOM     19  C   UNL     1      -4.278 -10.569  12.652  0.00  0.00    +0.096 C 
ATOM     20  N   UNL     1      -4.010 -10.289  11.923  0.00  0.00    -0.269 N 
ATOM     21  C   UNL     1      -4.632 -10.194  11.390  0.00  0.00    +0.251 C 
ATOM     22  O   UNL     1      -5.381 -10.389  11.675  0.00  0.00    -0.270 OA
ATOM     23  C   UNL     1      -4.604  -9.928  10.609  0.00  0.00    +0.069 A 
ATOM     24  C   UNL     1      -5.354  -9.915  10.268  0.00  0.00    +0.006 A 
ENDROOT
BRANCH   8   5
ATOM      1 CL   UNL     1      -8.454  -9.614   8.124  0.00  0.00    -0.082 Cl
ATOM      2  C   UNL     1      -7.703  -9.626   8.465  0.00  0.00    +0.058 A 
ATOM      3  C   UNL     1      -7.276 -10.333   8.497  0.00  0.00    +0.011 A 
ATOM      4  C   UNL     1      -6.525 -10.345   8.837  0.00  0.00    +0.001 A 
ATOM      5  C   UNL     1      -6.199  -9.653   9.146  0.00  0.00    +0.000 A 
ATOM      6  C   UNL     1      -6.626  -8.947   9.114  0.00  0.00    +0.001 A 
ATOM      7  C   UNL     1      -7.378  -8.934   8.773  0.00  0.00    +0.011 A 
ENDBRANCH   8   5
BRANCH  17  25
ATOM     25  N   UNL     1      -2.403 -10.690  13.763  0.00  0.00    -0.203 NA
ATOM     26  C   UNL     1      -2.550 -10.380  14.514  0.00  0.00    +0.266 C 
ATOM     27  O   UNL     1      -3.233  -9.938  14.652  0.00  0.00    -0.268 OA
BRANCH  26  28
ATOM     28  C   UNL     1      -2.015 -10.514  15.127  0.00  0.00    +0.074 A 
ATOM     29  C   UNL     1      -1.219 -10.648  14.958  0.00  0.00    +0.103 A 
ATOM     30  N   UNL     1      -0.684 -10.781  15.571  0.00  0.00    -0.242 NA
ATOM     31  C   UNL     1      -0.944 -10.781  16.354  0.00  0.00    +0.099 A 
ATOM     32  C   UNL     1      -1.740 -10.647  16.523  0.00  0.00    +0.021 A 
ATOM     33  C   UNL     1      -2.275 -10.513  15.910  0.00  0.00    +0.008 A 
ENDBRANCH  26  28
ENDBRANCH  17  25
TORSDOF 3
ENDMDL
MODEL 8
REMARK VINA RESULT:      -7.2     16.028     17.097
REMARK  Name = 
REMARK  3 active torsions:
REMARK  status: ('A' for Active; 'I' for Inactive)
REMARK    1  A    between atoms: C_5  and  C_8
REMARK    2  A    between atoms: C_17  and  N_25
REMARK    3  A    between atoms: C_26  and  C_28
REMARK                            x       y       z     vdW  Elec       q    Type
REMARK                         _______ _______ _______ _____ _____    ______ ____
ROOT
ATOM      8  C   UNL     1      -6.054  -9.537  11.438  0.00  0.00    +0.000 A 
ATOM      9  C   UNL     1      -6.854  -9.339  11.428  0.00  0.00    +0.001 A 
ATOM     10  C   UNL     1      -7.302  -9.393  12.120  0.00  0.00    +0.017 A 
ATOM     11  C   UNL     1      -6.948  -9.645  12.821  0.00  0.00    +0.078 A 
ATOM     12  N   UNL     1      -7.490  -9.660  13.443  0.00  0.00    -0.178 NA
ATOM     13  C   UNL     1      -7.365  -9.876  14.229  0.00  0.00    +0.264 C 
ATOM     14  O   UNL     1      -8.024  -9.832  14.722  0.00  0.00    -0.271 OA
ATOM     15  C   UNL     1      -6.667 -10.131  14.588  0.00  0.00    +0.156 C 
ATOM     16  C   UNL     1      -6.781 -10.293  15.388  0.00  0.00    +0.051 C 
ATOM     17  C   UNL     1      -6.150 -10.556  15.850  0.00  0.00    +0.099 C 
ATOM     18  C   UNL     1      -5.405 -10.658  15.510  0.00  0.00    +0.043 C 
ATOM     19  C   UNL     1      -5.291 -10.496  14.710  0.00  0.00    +0.096 C 
ATOM     20  N   UNL     1      -5.922 -10.233  14.248  0.00  0.00    -0.269 N 
ATOM     21  C   UNL     1      -5.691 -10.105  13.467  0.00  0.00    +0.251 C 
ATOM     22  O   UNL     1      -4.898 -10.259  13.298  0.00  0.00    -0.270 OA
ATOM     23  C   UNL     1      -6.148  -9.843  12.831  0.00  0.00    +0.069 A 
ATOM     24  C   UNL     1      -5.701  -9.789  12.141  0.00  0.00    +0.006 A 
ENDROOT
BRANCH   8   5
ATOM      1 CL   UNL     1      -4.262  -9.322   8.675  0.00  0.00    -0.082 Cl
ATOM      2  C   UNL     1      -4.710  -9.375   9.366  0.00  0.00    +0.058 A 
ATOM      3  C   UNL     1      -4.573  -9.990   9.900  0.00  0.00    +0.011 A 
ATOM      4  C   UNL     1      -5.021 -10.043  10.591  0.00  0.00    +0.001 A 
ATOM      5  C   UNL     1      -5.607  -9.483  10.748  0.00  0.00    +0.000 A 
ATOM      6  C   UNL     1      -5.743  -8.869  10.214  0.00  0.00    +0.001 A 
ATOM      7  C   UNL     1      -5.295  -8.815   9.523  0.00  0.00    +0.011 A 
ENDBRANCH   8   5
BRANCH  17  25
ATOM     25  N   UNL     1      -6.264 -10.718  16.651  0.00  0.00    -0.203 NA
ATOM     26  C   UNL     1      -5.873 -10.267  17.222  0.00  0.00    +0.266 C 
ATOM     27  O   UNL     1      -5.370  -9.656  16.992  0.00  0.00    -0.268 OA
BRANCH  26  28
ATOM     28  C   UNL     1      -5.987 -10.429  18.023  0.00  0.00    +0.074 A 
ATOM     29  C   UNL     1      -5.343 -10.620  18.501  0.00  0.00    +0.103 A 
ATOM     30  N   UNL     1      -5.457 -10.781  19.302  0.00  0.00    -0.242 NA
ATOM     31  C   UNL     1      -6.215 -10.752  19.625  0.00  0.00    +0.099 A 
ATOM     32  C   UNL     1      -6.860 -10.561  19.147  0.00  0.00    +0.021 A 
ATOM     33  C   UNL     1      -6.746 -10.400  18.346  0.00  0.00    +0.008 A 
ENDBRANCH  26  28
ENDBRANCH  17  25
TORSDOF 3
ENDMDL
MODEL 9
REMARK VINA RESULT:      -7.1      3.193      4.918
REMARK  Name = 
REMARK  3 active torsions:
REMARK  status: ('A' for Active; 'I' for Inactive)
REMARK    1  A    between atoms: C_5  and  C_8
REMARK    2  A    between atoms: C_17  and  N_25
REMARK    3  A    between atoms: C_26  and  C_28
REMARK                            x       y       z     vdW  Elec       q    Type
REMARK                         _______ _______ _______ _____ _____    ______ ____
ROOT
ATOM      8  C   UNL     1      -4.059  -1.202  24.399  0.00  0.00    +0.000 A 
ATOM      9  C   UNL     1      -4.808  -0.913  24.584  0.00  0.00    +0.001 A 
ATOM     10  C   UNL     1      -4.928  -0.101  24.668  0.00  0.00    +0.017 A 
ATOM     11  C   UNL     1      -4.298   0.422  24.567  0.00  0.00    +0.078 A 
ATOM     12  N   UNL     1      -4.535   1.204  24.675  0.00  0.00    -0.178 NA
ATOM     13  C   UNL     1      -4.081   1.891  24.625  0.00  0.00    +0.264 C 
ATOM     14  O   UNL     1      -4.484   2.597  24.763  0.00  0.00    -0.271 OA
ATOM     15  C   UNL     1      -3.277   1.965  24.453  0.00  0.00    +0.156 C 
ATOM     16  C   UNL     1      -3.039   2.755  24.457  0.00  0.00    +0.051 C 
ATOM     17  C   UNL     1      -2.254   2.950  24.299  0.00  0.00    +0.099 C 
ATOM     18  C   UNL     1      -1.706   2.355  24.136  0.00  0.00    +0.043 C 
ATOM     19  C   UNL     1      -1.944   1.565  24.132  0.00  0.00    +0.096 C 
ATOM     20  N   UNL     1      -2.730   1.370  24.291  0.00  0.00    -0.269 N 
ATOM     21  C   UNL     1      -2.850   0.555  24.259  0.00  0.00    +0.251 C 
ATOM     22  O   UNL     1      -2.184   0.101  24.081  0.00  0.00    -0.270 OA
ATOM     23  C   UNL     1      -3.548   0.132  24.382  0.00  0.00    +0.069 A 
ATOM     24  C   UNL     1      -3.428  -0.679  24.298  0.00  0.00    +0.006 A 
ENDROOT
BRANCH   8   5
ATOM      1 CL   UNL     1      -3.577  -4.450  24.063  0.00  0.00    -0.082 Cl
ATOM      2  C   UNL     1      -3.698  -3.638  24.147  0.00  0.00    +0.058 A 
ATOM      3  C   UNL     1      -3.365  -3.235  24.786  0.00  0.00    +0.011 A 
ATOM      4  C   UNL     1      -3.486  -2.424  24.870  0.00  0.00    +0.001 A 
ATOM      5  C   UNL     1      -3.939  -2.014  24.315  0.00  0.00    +0.000 A 
ATOM      6  C   UNL     1      -4.271  -2.417  23.676  0.00  0.00    +0.001 A 
ATOM      7  C   UNL     1      -4.150  -3.229  23.592  0.00  0.00    +0.011 A 
ENDBRANCH   8   5
BRANCH  17  25
ATOM     25  N   UNL     1      -2.016   3.740  24.303  0.00  0.00    -0.203 NA
ATOM     26  C   UNL     1      -1.596   4.041  24.947  0.00  0.00    +0.266 C 
ATOM     27  O   UNL     1      -1.415   3.552  25.586  0.00  0.00    -0.268 OA
BRANCH  26  28
ATOM     28  C   UNL     1      -1.358   4.831  24.951  0.00  0.00    +0.074 A 
ATOM     29  C   UNL     1      -1.883   5.419  25.195  0.00  0.00    +0.103 A 
ATOM     30  N   UNL     1      -1.645   6.208  25.199  0.00  0.00    -0.242 NA
ATOM     31  C   UNL     1      -0.882   6.411  24.959  0.00  0.00    +0.099 A 
ATOM     32  C   UNL     1      -0.357   5.823  24.715  0.00  0.00    +0.021 A 
ATOM     33  C   UNL     1      -0.595   5.033  24.711  0.00  0.00    +0.008 A 
ENDBRANCH  26  28
ENDBRANCH  17  25
TORSDOF 3
ENDMDL
MODEL 10
REMARK VINA RESULT:      -7.0     16.066     17.655
REMARK  Name = 
REMARK  3 active torsions:
REMARK  status: ('A' for Active; 'I' for Inactive)
REMARK    1  A    between atoms: C_5  and  C_8
REMARK    2  A    between atoms: C_17  and  N_25
REMARK    3  A    between atoms: C_26  and  C_28
REMARK                            x       y       z     vdW  Elec       q    Type
REMARK                         _______ _______ _______ _____ _____    ______ ____
ROOT
ATOM      8  C   UNL     1      -4.800  -9.998  12.010  0.00  0.00    +0.000 A 
ATOM      9  C   UNL     1      -4.229 -10.269  12.541  0.00  0.00    +0.001 A 
ATOM     10  C   UNL     1      -4.437 -10.435  13.322  0.00  0.00    +0.017 A 
ATOM     11  C   UNL     1      -5.216 -10.329  13.573  0.00  0.00    +0.078 A 
ATOM     12  N   UNL     1      -5.305 -10.526  14.369  0.00  0.00    -0.178 NA
ATOM     13  C   UNL     1      -5.987 -10.499  14.832  0.00  0.00    +0.264 C 
ATOM     14  O   UNL     1      -5.896 -10.733  15.617  0.00  0.00    -0.271 OA
ATOM     15  C   UNL     1      -6.749 -10.269  14.613  0.00  0.00    +0.156 C 
ATOM     16  C   UNL     1      -7.274 -10.324  15.246  0.00  0.00    +0.051 C 
ATOM     17  C   UNL     1      -8.067 -10.120  15.144  0.00  0.00    +0.099 C 
ATOM     18  C   UNL     1      -8.334  -9.860  14.408  0.00  0.00    +0.043 C 
ATOM     19  C   UNL     1      -7.809  -9.805  13.775  0.00  0.00    +0.096 C 
ATOM     20  N   UNL     1      -7.016 -10.010  13.877  0.00  0.00    -0.269 N 
ATOM     21  C   UNL     1      -6.588  -9.916  13.178  0.00  0.00    +0.251 C 
ATOM     22  O   UNL     1      -7.018  -9.644  12.529  0.00  0.00    -0.270 OA
ATOM     23  C   UNL     1      -5.786 -10.058  13.042  0.00  0.00    +0.069 A 
ATOM     24  C   UNL     1      -5.579  -9.892  12.262  0.00  0.00    +0.006 A 
ENDROOT
BRANCH   8   5
ATOM      1 CL   UNL     1      -3.970  -9.333   8.886  0.00  0.00    -0.082 Cl
ATOM      2  C   UNL     1      -4.178  -9.500   9.667  0.00  0.00    +0.058 A 
ATOM      3  C   UNL     1      -4.261  -8.885  10.212  0.00  0.00    +0.011 A 
ATOM      4  C   UNL     1      -4.468  -9.051  10.993  0.00  0.00    +0.001 A 
ATOM      5  C   UNL     1      -4.593  -9.832  11.230  0.00  0.00    +0.000 A 
ATOM      6  C   UNL     1      -4.509 -10.446  10.685  0.00  0.00    +0.001 A 
ATOM      7  C   UNL     1      -4.302 -10.280   9.904  0.00  0.00    +0.011 A 
ENDBRANCH   8   5
BRANCH  17  25
ATOM     25  N   UNL     1      -8.592 -10.174  15.778  0.00  0.00    -0.203 NA
ATOM     26  C   UNL     1      -8.909  -9.489  16.112  0.00  0.00    +0.266 C 
ATOM     27  O   UNL     1      -8.701  -8.750  15.812  0.00  0.00    -0.268 OA
BRANCH  26  28
ATOM     28  C   UNL     1      -9.434  -9.544  16.745  0.00  0.00    +0.074 A 
ATOM     29  C   UNL     1     -10.192  -9.848  16.628  0.00  0.00    +0.103 A 
ATOM     30  N   UNL     1     -10.717  -9.903  17.262  0.00  0.00    -0.242 NA
ATOM     31  C   UNL     1     -10.485  -9.653  18.013  0.00  0.00    +0.099 A 
ATOM     32  C   UNL     1      -9.727  -9.349  18.130  0.00  0.00    +0.021 A 
ATOM     33  C   UNL     1      -9.202  -9.294  17.497  0.00  0.00    +0.008 A 
ENDBRANCH  26  28
ENDBRANCH  17  25
TORSDOF 3
ENDMDL
