MODEL 1
REMARK VINA RESULT:     -10.8      0.000      0.000
REMARK  Name = 
REMARK  2 active torsions:
REMARK  status: ('A' for Active; 'I' for Inactive)
REMARK    1  A    between atoms: N_7  and  S_11
REMARK    2  A    between atoms: S_11  and  C_14
REMARK                            x       y       z     vdW  Elec       q    Type
REMARK                         _______ _______ _______ _____ _____    ______ ____
ROOT
ATOM      1  O   UNL     1      -4.198   3.710  25.002  0.00  0.00    -0.251 OA
ATOM      2  C   UNL     1      -4.642   3.018  25.078  0.00  0.00    +0.323 C 
ATOM      3  N   UNL     1      -5.438   2.974  25.288  0.00  0.00    -0.187 NA
ATOM      4  C   UNL     1      -5.655   2.177  25.298  0.00  0.00    +0.138 C 
ATOM      5  C   UNL     1      -4.993   1.731  25.093  0.00  0.00    +0.116 C 
ATOM      6  C   UNL     1      -4.878   0.918  25.013  0.00  0.00    +0.117 C 
ATOM      7  N   UNL     1      -4.138   0.624  24.798  0.00  0.00    -0.152 NA
ATOM      8  C   UNL     1      -3.512   1.144  24.662  0.00  0.00    +0.117 C 
ATOM      9  C   UNL     1      -3.626   1.957  24.742  0.00  0.00    +0.114 C 
ATOM     10  N   UNL     1      -4.366   2.251  24.958  0.00  0.00    -0.260 N 
ENDROOT
BRANCH   7  11
ATOM     11  S   UNL     1      -4.023  -0.189  24.718  0.00  0.00    +0.063 S 
ATOM     12  O   UNL     1      -3.929  -0.096  23.904  0.00  0.00    -0.153 OA
ATOM     13  O   UNL     1      -4.118  -0.282  25.533  0.00  0.00    -0.153 OA
BRANCH  11  14
ATOM     14  C   UNL     1      -3.909  -1.002  24.639  0.00  0.00    +0.122 A 
ATOM     15  C   UNL     1      -3.487  -1.417  25.214  0.00  0.00    +0.020 A 
ATOM     16  C   UNL     1      -3.373  -2.231  25.134  0.00  0.00    +0.001 A 
ATOM     17  C   UNL     1      -3.680  -2.628  24.480  0.00  0.00    +0.000 A 
ATOM     18  C   UNL     1      -4.102  -2.213  23.906  0.00  0.00    +0.001 A 
ATOM     19  C   UNL     1      -4.217  -1.400  23.984  0.00  0.00    +0.020 A 
ENDBRANCH  11  14
ENDBRANCH   7  11
TORSDOF 2
ENDMDL
