MODEL 1
REMARK VINA RESULT:     -12.0      0.000      0.000
REMARK  Name = 
REMARK  6 active torsions:
REMARK  status: ('A' for Active; 'I' for Inactive)
REMARK    1  A    between atoms: C_5  and  S_8
REMARK    2  A    between atoms: S_8  and  N_11
REMARK    3  A    between atoms: N_11  and  C_12
REMARK    4  A    between atoms: C_16  and  O_20
REMARK    5  A    between atoms: O_20  and  C_21
REMARK    6  A    between atoms: N_23  and  C_24
REMARK                            x       y       z     vdW  Elec       q    Type
REMARK                         _______ _______ _______ _____ _____    ______ ____
ROOT
ATOM     12  C   UNL     1      -0.361   1.508  25.064  0.00  0.00    +0.157 C 
ATOM     13  C   UNL     1      -0.752   1.445  25.787  0.00  0.00    +0.164 C 
ATOM     14  O   UNL     1      -0.991   0.661  25.879  0.00  0.00    -0.348 OA
ATOM     15  C   UNL     1      -0.748   0.240  25.213  0.00  0.00    +0.186 C 
ATOM     16  C   UNL     1      -0.745  -0.504  24.857  0.00  0.00    +0.229 C 
ATOM     17  C   UNL     1      -0.354  -0.441  24.134  0.00  0.00    +0.188 C 
ATOM     18  O   UNL     1      -0.115   0.343  24.042  0.00  0.00    -0.348 OA
ATOM     19  C   UNL     1      -0.358   0.764  24.709  0.00  0.00    +0.166 C 
ENDROOT
BRANCH  12  11
ATOM     11  N   UNL     1      -0.030   2.196  24.750  0.00  0.00    -0.074 NA
BRANCH  11   8
ATOM      8  S   UNL     1      -0.415   2.920  24.845  0.00  0.00    +0.077 S 
ATOM      9  O   UNL     1      -0.061   3.012  25.585  0.00  0.00    -0.152 OA
ATOM     10  O   UNL     1      -0.769   2.829  24.106  0.00  0.00    -0.152 OA
BRANCH   8   5
ATOM      1  C   UNL     1      -1.954   5.815  25.221  0.00  0.00    +0.031 C 
ATOM      2  C   UNL     1      -1.570   5.091  25.127  0.00  0.00    -0.022 A 
ATOM      3  C   UNL     1      -1.969   4.388  25.287  0.00  0.00    -0.003 A 
ATOM      4  C   UNL     1      -1.585   3.664  25.193  0.00  0.00    +0.020 A 
ATOM      5  C   UNL     1      -0.800   3.643  24.940  0.00  0.00    +0.124 A 
ATOM      6  C   UNL     1      -0.400   4.347  24.780  0.00  0.00    +0.020 A 
ATOM      7  C   UNL     1      -0.785   5.071  24.874  0.00  0.00    -0.003 A 
ENDBRANCH   8   5
ENDBRANCH  11   8
ENDBRANCH  12  11
BRANCH  16  20
ATOM     20  O   UNL     1      -1.076  -1.192  25.171  0.00  0.00    -0.432 OA
BRANCH  20  21
ATOM     21  C   UNL     1      -1.701  -1.565  24.781  0.00  0.00    +0.425 C 
ATOM     22  O   UNL     1      -1.563  -1.976  24.079  0.00  0.00    -0.224 OA
ATOM     23  N   UNL     1      -2.464  -1.526  25.093  0.00  0.00    -0.142 NA
BRANCH  23  24
ATOM     24  C   UNL     1      -3.088  -1.898  24.703  0.00  0.00    +0.077 A 
ATOM     25  C   UNL     1      -3.176  -2.717  24.751  0.00  0.00    +0.017 A 
ATOM     26  C   UNL     1      -3.800  -3.089  24.362  0.00  0.00    +0.001 A 
ATOM     27  C   UNL     1      -4.338  -2.642  23.924  0.00  0.00    +0.000 A 
ATOM     28  C   UNL     1      -4.251  -1.822  23.876  0.00  0.00    +0.001 A 
ATOM     29  C   UNL     1      -3.626  -1.451  24.266  0.00  0.00    +0.017 A 
ENDBRANCH  23  24
ENDBRANCH  20  21
ENDBRANCH  16  20
TORSDOF 6
ENDMDL
MODEL 2
REMARK VINA RESULT:     -11.3      1.063      5.653
REMARK  Name = 
REMARK  6 active torsions:
REMARK  status: ('A' for Active; 'I' for Inactive)
REMARK    1  A    between atoms: C_5  and  S_8
REMARK    2  A    between atoms: S_8  and  N_11
REMARK    3  A    between atoms: N_11  and  C_12
REMARK    4  A    between atoms: C_16  and  O_20
REMARK    5  A    between atoms: O_20  and  C_21
REMARK    6  A    between atoms: N_23  and  C_24
REMARK                            x       y       z     vdW  Elec       q    Type
REMARK                         _______ _______ _______ _____ _____    ______ ____
ROOT
ATOM     12  C   UNL     1      -1.027  -0.487  24.940  0.00  0.00    +0.157 C 
ATOM     13  C   UNL     1      -0.824  -0.381  24.148  0.00  0.00    +0.164 C 
ATOM     14  O   UNL     1      -0.515   0.379  24.064  0.00  0.00    -0.348 OA
ATOM     15  C   UNL     1      -0.527   0.742  24.803  0.00  0.00    +0.186 C 
ATOM     16  C   UNL     1      -0.343   1.436  25.210  0.00  0.00    +0.229 C 
ATOM     17  C   UNL     1      -0.545   1.330  26.002  0.00  0.00    +0.188 C 
ATOM     18  O   UNL     1      -0.854   0.570  26.086  0.00  0.00    -0.348 OA
ATOM     19  C   UNL     1      -0.843   0.207  25.345  0.00  0.00    +0.166 C 
ENDROOT
BRANCH  12  11
ATOM     11  N   UNL     1      -1.356  -1.169  25.269  0.00  0.00    -0.074 NA
BRANCH  11   8
ATOM      8  S   UNL     1      -2.045  -1.491  24.949  0.00  0.00    +0.077 S 
ATOM      9  O   UNL     1      -2.488  -1.145  25.553  0.00  0.00    -0.152 OA
ATOM     10  O   UNL     1      -1.602  -1.838  24.345  0.00  0.00    -0.152 OA
BRANCH   8   5
ATOM      1  C   UNL     1      -4.799  -2.779  23.667  0.00  0.00    +0.031 C 
ATOM      2  C   UNL     1      -4.110  -2.457  23.987  0.00  0.00    -0.022 A 
ATOM      3  C   UNL     1      -3.492  -2.952  24.217  0.00  0.00    -0.003 A 
ATOM      4  C   UNL     1      -2.803  -2.630  24.538  0.00  0.00    +0.020 A 
ATOM      5  C   UNL     1      -2.733  -1.813  24.629  0.00  0.00    +0.124 A 
ATOM      6  C   UNL     1      -3.352  -1.318  24.399  0.00  0.00    +0.020 A 
ATOM      7  C   UNL     1      -4.040  -1.640  24.078  0.00  0.00    -0.003 A 
ENDBRANCH   8   5
ENDBRANCH  11   8
ENDBRANCH  12  11
BRANCH  16  20
ATOM     20  O   UNL     1      -0.014   2.118  24.881  0.00  0.00    -0.432 OA
BRANCH  20  21
ATOM     21  C   UNL     1      -0.307   2.860  25.090  0.00  0.00    +0.425 C 
ATOM     22  O   UNL     1      -0.143   3.172  25.836  0.00  0.00    -0.224 OA
ATOM     23  N   UNL     1      -0.762   3.291  24.554  0.00  0.00    -0.142 NA
BRANCH  23  24
ATOM     24  C   UNL     1      -1.055   4.033  24.764  0.00  0.00    +0.077 A 
ATOM     25  C   UNL     1      -0.598   4.708  24.638  0.00  0.00    +0.017 A 
ATOM     26  C   UNL     1      -0.890   5.449  24.847  0.00  0.00    +0.001 A 
ATOM     27  C   UNL     1      -1.641   5.517  25.183  0.00  0.00    +0.000 A 
ATOM     28  C   UNL     1      -2.099   4.842  25.309  0.00  0.00    +0.001 A 
ATOM     29  C   UNL     1      -1.806   4.100  25.099  0.00  0.00    +0.017 A 
ENDBRANCH  23  24
ENDBRANCH  20  21
ENDBRANCH  16  20
TORSDOF 6
ENDMDL
MODEL 3
REMARK VINA RESULT:     -11.0      2.256      2.926
REMARK  Name = 
REMARK  6 active torsions:
REMARK  status: ('A' for Active; 'I' for Inactive)
REMARK    1  A    between atoms: C_5  and  S_8
REMARK    2  A    between atoms: S_8  and  N_11
REMARK    3  A    between atoms: N_11  and  C_12
REMARK    4  A    between atoms: C_16  and  O_20
REMARK    5  A    between atoms: O_20  and  C_21
REMARK    6  A    between atoms: N_23  and  C_24
REMARK                            x       y       z     vdW  Elec       q    Type
REMARK                         _______ _______ _______ _____ _____    ______ ____
ROOT
ATOM     12  C   UNL     1      -3.933   2.703  24.725  0.00  0.00    +0.157 C 
ATOM     13  C   UNL     1      -3.677   2.552  23.956  0.00  0.00    +0.164 C 
ATOM     14  O   UNL     1      -3.890   1.780  23.763  0.00  0.00    -0.348 OA
ATOM     15  C   UNL     1      -4.279   1.452  24.412  0.00  0.00    +0.186 C 
ATOM     16  C   UNL     1      -4.651   0.773  24.695  0.00  0.00    +0.229 C 
ATOM     17  C   UNL     1      -4.908   0.923  25.465  0.00  0.00    +0.188 C 
ATOM     18  O   UNL     1      -4.694   1.696  25.657  0.00  0.00    -0.348 OA
ATOM     19  C   UNL     1      -4.305   2.023  25.007  0.00  0.00    +0.166 C 
ENDROOT
BRANCH  12  11
ATOM     11  N   UNL     1      -3.835   3.410  25.140  0.00  0.00    -0.074 NA
BRANCH  11   8
ATOM      8  S   UNL     1      -3.118   3.816  25.099  0.00  0.00    +0.077 S 
ATOM      9  O   UNL     1      -3.354   4.163  24.389  0.00  0.00    -0.152 OA
ATOM     10  O   UNL     1      -2.881   3.469  25.810  0.00  0.00    -0.152 OA
BRANCH   8   5
ATOM      1  C   UNL     1      -0.248   5.437  24.941  0.00  0.00    +0.031 C 
ATOM      2  C   UNL     1      -0.966   5.032  24.980  0.00  0.00    -0.022 A 
ATOM      3  C   UNL     1      -1.672   5.450  25.059  0.00  0.00    -0.003 A 
ATOM      4  C   UNL     1      -2.390   5.045  25.099  0.00  0.00    +0.020 A 
ATOM      5  C   UNL     1      -2.401   4.221  25.060  0.00  0.00    +0.124 A 
ATOM      6  C   UNL     1      -1.694   3.802  24.981  0.00  0.00    +0.020 A 
ATOM      7  C   UNL     1      -0.977   4.208  24.941  0.00  0.00    -0.003 A 
ENDBRANCH   8   5
ENDBRANCH  11   8
ENDBRANCH  12  11
BRANCH  16  20
ATOM     20  O   UNL     1      -4.750   0.066  24.281  0.00  0.00    -0.432 OA
BRANCH  20  21
ATOM     21  C   UNL     1      -4.329  -0.607  24.507  0.00  0.00    +0.425 C 
ATOM     22  O   UNL     1      -4.247  -0.793  25.306  0.00  0.00    -0.224 OA
ATOM     23  N   UNL     1      -3.991  -1.094  23.934  0.00  0.00    -0.142 NA
BRANCH  23  24
ATOM     24  C   UNL     1      -3.571  -1.768  24.160  0.00  0.00    +0.077 A 
ATOM     25  C   UNL     1      -2.767  -1.713  24.333  0.00  0.00    +0.017 A 
ATOM     26  C   UNL     1      -2.347  -2.386  24.559  0.00  0.00    +0.001 A 
ATOM     27  C   UNL     1      -2.731  -3.114  24.612  0.00  0.00    +0.000 A 
ATOM     28  C   UNL     1      -3.536  -3.169  24.439  0.00  0.00    +0.001 A 
ATOM     29  C   UNL     1      -3.956  -2.495  24.213  0.00  0.00    +0.017 A 
ENDBRANCH  23  24
ENDBRANCH  20  21
ENDBRANCH  16  20
TORSDOF 6
ENDMDL
MODEL 4
REMARK VINA RESULT:     -10.8      2.495      6.254
REMARK  Name = 
REMARK  6 active torsions:
REMARK  status: ('A' for Active; 'I' for Inactive)
REMARK    1  A    between atoms: C_5  and  S_8
REMARK    2  A    between atoms: S_8  and  N_11
REMARK    3  A    between atoms: N_11  and  C_12
REMARK    4  A    between atoms: C_16  and  O_20
REMARK    5  A    between atoms: O_20  and  C_21
REMARK    6  A    between atoms: N_23  and  C_24
REMARK                            x       y       z     vdW  Elec       q    Type
REMARK                         _______ _______ _______ _____ _____    ______ ____
ROOT
ATOM     12  C   UNL     1      -4.560   0.872  24.710  0.00  0.00    +0.157 C 
ATOM     13  C   UNL     1      -4.111   0.973  24.026  0.00  0.00    +0.164 C 
ATOM     14  O   UNL     1      -3.943   1.777  23.949  0.00  0.00    -0.348 OA
ATOM     15  C   UNL     1      -4.287   2.172  24.585  0.00  0.00    +0.186 C 
ATOM     16  C   UNL     1      -4.396   2.913  24.932  0.00  0.00    +0.229 C 
ATOM     17  C   UNL     1      -4.845   2.811  25.616  0.00  0.00    +0.188 C 
ATOM     18  O   UNL     1      -5.014   2.008  25.693  0.00  0.00    -0.348 OA
ATOM     19  C   UNL     1      -4.669   1.612  25.056  0.00  0.00    +0.166 C 
ENDROOT
BRANCH  12  11
ATOM     11  N   UNL     1      -4.850   0.155  24.998  0.00  0.00    -0.074 NA
BRANCH  11   8
ATOM      8  S   UNL     1      -4.424  -0.541  24.876  0.00  0.00    +0.077 S 
ATOM      9  O   UNL     1      -4.054  -0.443  25.607  0.00  0.00    -0.152 OA
ATOM     10  O   UNL     1      -4.794  -0.640  24.146  0.00  0.00    -0.152 OA
BRANCH   8   5
ATOM      1  C   UNL     1      -2.723  -3.326  24.386  0.00  0.00    +0.031 C 
ATOM      2  C   UNL     1      -3.148  -2.630  24.509  0.00  0.00    -0.022 A 
ATOM      3  C   UNL     1      -2.951  -2.131  25.135  0.00  0.00    -0.003 A 
ATOM      4  C   UNL     1      -3.376  -1.434  25.258  0.00  0.00    +0.020 A 
ATOM      5  C   UNL     1      -3.999  -1.237  24.754  0.00  0.00    +0.124 A 
ATOM      6  C   UNL     1      -4.197  -1.737  24.128  0.00  0.00    +0.020 A 
ATOM      7  C   UNL     1      -3.771  -2.433  24.006  0.00  0.00    -0.003 A 
ENDBRANCH   8   5
ENDBRANCH  11   8
ENDBRANCH  12  11
BRANCH  16  20
ATOM     20  O   UNL     1      -4.106   3.630  24.644  0.00  0.00    -0.432 OA
BRANCH  20  21
ATOM     21  C   UNL     1      -3.388   3.926  24.922  0.00  0.00    +0.425 C 
ATOM     22  O   UNL     1      -3.288   4.079  25.726  0.00  0.00    -0.224 OA
ATOM     23  N   UNL     1      -2.769   4.069  24.395  0.00  0.00    -0.142 NA
BRANCH  23  24
ATOM     24  C   UNL     1      -2.051   4.365  24.673  0.00  0.00    +0.077 A 
ATOM     25  C   UNL     1      -1.957   5.175  24.794  0.00  0.00    +0.017 A 
ATOM     26  C   UNL     1      -1.240   5.471  25.071  0.00  0.00    +0.001 A 
ATOM     27  C   UNL     1      -0.613   4.956  25.227  0.00  0.00    +0.000 A 
ATOM     28  C   UNL     1      -0.707   4.145  25.105  0.00  0.00    +0.001 A 
ATOM     29  C   UNL     1      -1.425   3.850  24.828  0.00  0.00    +0.017 A 
ENDBRANCH  23  24
ENDBRANCH  20  21
ENDBRANCH  16  20
TORSDOF 6
ENDMDL
MODEL 5
REMARK VINA RESULT:      -9.4      2.947      4.947
REMARK  Name = 
REMARK  6 active torsions:
REMARK  status: ('A' for Active; 'I' for Inactive)
REMARK    1  A    between atoms: C_5  and  S_8
REMARK    2  A    between atoms: S_8  and  N_11
REMARK    3  A    between atoms: N_11  and  C_12
REMARK    4  A    between atoms: C_16  and  O_20
REMARK    5  A    between atoms: O_20  and  C_21
REMARK    6  A    between atoms: N_23  and  C_24
REMARK                            x       y       z     vdW  Elec       q    Type
REMARK                         _______ _______ _______ _____ _____    ______ ____
ROOT
ATOM     12  C   UNL     1      -1.308   0.517  24.297  0.00  0.00    +0.157 C 
ATOM     13  C   UNL     1      -1.379   1.130  23.751  0.00  0.00    +0.164 C 
ATOM     14  O   UNL     1      -0.712   1.118  23.267  0.00  0.00    -0.348 OA
ATOM     15  C   UNL     1      -0.229   0.497  23.513  0.00  0.00    +0.186 C 
ATOM     16  C   UNL     1       0.483   0.105  23.368  0.00  0.00    +0.229 C 
ATOM     17  C   UNL     1       0.553  -0.508  23.914  0.00  0.00    +0.188 C 
ATOM     18  O   UNL     1      -0.114  -0.496  24.398  0.00  0.00    -0.348 OA
ATOM     19  C   UNL     1      -0.598   0.126  24.151  0.00  0.00    +0.166 C 
ENDROOT
BRANCH  12  11
ATOM     11  N   UNL     1      -1.854   0.327  24.887  0.00  0.00    -0.074 NA
BRANCH  11   8
ATOM      8  S   UNL     1      -2.612   0.652  24.868  0.00  0.00    +0.077 S 
ATOM      9  O   UNL     1      -2.347   1.300  25.304  0.00  0.00    -0.152 OA
ATOM     10  O   UNL     1      -2.878   0.004  24.432  0.00  0.00    -0.152 OA
BRANCH   8   5
ATOM      1  C   UNL     1      -5.648   1.943  24.788  0.00  0.00    +0.031 C 
ATOM      2  C   UNL     1      -4.889   1.621  24.808  0.00  0.00    -0.022 A 
ATOM      3  C   UNL     1      -4.233   2.113  24.892  0.00  0.00    -0.003 A 
ATOM      4  C   UNL     1      -3.474   1.791  24.912  0.00  0.00    +0.020 A 
ATOM      5  C   UNL     1      -3.371   0.975  24.848  0.00  0.00    +0.124 A 
ATOM      6  C   UNL     1      -4.027   0.481  24.764  0.00  0.00    +0.020 A 
ATOM      7  C   UNL     1      -4.786   0.805  24.744  0.00  0.00    -0.003 A 
ENDBRANCH   8   5
ENDBRANCH  11   8
ENDBRANCH  12  11
BRANCH  16  20
ATOM     20  O   UNL     1       1.028   0.294  22.777  0.00  0.00    -0.432 OA
BRANCH  20  21
ATOM     21  C   UNL     1       1.817   0.434  22.974  0.00  0.00    +0.425 C 
ATOM     22  O   UNL     1       2.004   0.961  23.580  0.00  0.00    -0.224 OA
ATOM     23  N   UNL     1       2.419   0.047  22.565  0.00  0.00    -0.142 NA
BRANCH  23  24
ATOM     24  C   UNL     1       3.208   0.186  22.761  0.00  0.00    +0.077 A 
ATOM     25  C   UNL     1       3.641  -0.388  23.164  0.00  0.00    +0.017 A 
ATOM     26  C   UNL     1       4.429  -0.249  23.360  0.00  0.00    +0.001 A 
ATOM     27  C   UNL     1       4.786   0.466  23.153  0.00  0.00    +0.000 A 
ATOM     28  C   UNL     1       4.353   1.042  22.750  0.00  0.00    +0.001 A 
ATOM     29  C   UNL     1       3.564   0.901  22.554  0.00  0.00    +0.017 A 
ENDBRANCH  23  24
ENDBRANCH  20  21
ENDBRANCH  16  20
TORSDOF 6
ENDMDL
MODEL 6
REMARK VINA RESULT:      -9.3      2.896      5.845
REMARK  Name = 
REMARK  6 active torsions:
REMARK  status: ('A' for Active; 'I' for Inactive)
REMARK    1  A    between atoms: C_5  and  S_8
REMARK    2  A    between atoms: S_8  and  N_11
REMARK    3  A    between atoms: N_11  and  C_12
REMARK    4  A    between atoms: C_16  and  O_20
REMARK    5  A    between atoms: O_20  and  C_21
REMARK    6  A    between atoms: N_23  and  C_24
REMARK                            x       y       z     vdW  Elec       q    Type
REMARK                         _______ _______ _______ _____ _____    ______ ____
ROOT
ATOM     12  C   UNL     1      -0.465  -0.265  24.218  0.00  0.00    +0.157 C 
ATOM     13  C   UNL     1      -0.276  -0.959  23.815  0.00  0.00    +0.164 C 
ATOM     14  O   UNL     1       0.391  -0.811  23.354  0.00  0.00    -0.348 OA
ATOM     15  C   UNL     1       0.615  -0.027  23.472  0.00  0.00    +0.186 C 
ATOM     16  C   UNL     1       1.166   0.550  23.261  0.00  0.00    +0.229 C 
ATOM     17  C   UNL     1       0.977   1.244  23.665  0.00  0.00    +0.188 C 
ATOM     18  O   UNL     1       0.310   1.096  24.126  0.00  0.00    -0.348 OA
ATOM     19  C   UNL     1       0.086   0.311  24.007  0.00  0.00    +0.166 C 
ENDROOT
BRANCH  12  11
ATOM     11  N   UNL     1      -1.095  -0.165  24.742  0.00  0.00    -0.074 NA
BRANCH  11   8
ATOM      8  S   UNL     1      -1.800  -0.576  24.623  0.00  0.00    +0.077 S 
ATOM      9  O   UNL     1      -2.098   0.058  24.187  0.00  0.00    -0.152 OA
ATOM     10  O   UNL     1      -1.504  -1.211  25.059  0.00  0.00    -0.152 OA
BRANCH   8   5
ATOM      1  C   UNL     1      -4.619  -2.225  24.150  0.00  0.00    +0.031 C 
ATOM      2  C   UNL     1      -3.915  -1.812  24.268  0.00  0.00    -0.022 A 
ATOM      3  C   UNL     1      -3.860  -1.019  24.051  0.00  0.00    -0.003 A 
ATOM      4  C   UNL     1      -3.155  -0.606  24.169  0.00  0.00    +0.020 A 
ATOM      5  C   UNL     1      -2.505  -0.988  24.505  0.00  0.00    +0.124 A 
ATOM      6  C   UNL     1      -2.560  -1.782  24.722  0.00  0.00    +0.020 A 
ATOM      7  C   UNL     1      -3.265  -2.194  24.604  0.00  0.00    -0.003 A 
ENDBRANCH   8   5
ENDBRANCH  11   8
ENDBRANCH  12  11
BRANCH  16  20
ATOM     20  O   UNL     1       1.796   0.450  22.737  0.00  0.00    -0.432 OA
BRANCH  20  21
ATOM     21  C   UNL     1       2.573   0.504  23.011  0.00  0.00    +0.425 C 
ATOM     22  O   UNL     1       2.797   1.134  23.493  0.00  0.00    -0.224 OA
ATOM     23  N   UNL     1       3.125  -0.072  22.801  0.00  0.00    -0.142 NA
BRANCH  23  24
ATOM     24  C   UNL     1       3.901  -0.018  23.074  0.00  0.00    +0.077 A 
ATOM     25  C   UNL     1       4.371   0.625  22.861  0.00  0.00    +0.017 A 
ATOM     26  C   UNL     1       5.147   0.679  23.133  0.00  0.00    +0.001 A 
ATOM     27  C   UNL     1       5.455   0.089  23.621  0.00  0.00    +0.000 A 
ATOM     28  C   UNL     1       4.985  -0.555  23.835  0.00  0.00    +0.001 A 
ATOM     29  C   UNL     1       4.209  -0.608  23.562  0.00  0.00    +0.017 A 
ENDBRANCH  23  24
ENDBRANCH  20  21
ENDBRANCH  16  20
TORSDOF 6
ENDMDL
MODEL 7
REMARK VINA RESULT:      -8.8      1.613      2.120
REMARK  Name = 
REMARK  6 active torsions:
REMARK  status: ('A' for Active; 'I' for Inactive)
REMARK    1  A    between atoms: C_5  and  S_8
REMARK    2  A    between atoms: S_8  and  N_11
REMARK    3  A    between atoms: N_11  and  C_12
REMARK    4  A    between atoms: C_16  and  O_20
REMARK    5  A    between atoms: O_20  and  C_21
REMARK    6  A    between atoms: N_23  and  C_24
REMARK                            x       y       z     vdW  Elec       q    Type
REMARK                         _______ _______ _______ _____ _____    ______ ____
ROOT
ATOM     12  C   UNL     1      -1.455   2.332  24.521  0.00  0.00    +0.157 C 
ATOM     13  C   UNL     1      -1.524   2.094  23.735  0.00  0.00    +0.164 C 
ATOM     14  O   UNL     1      -1.305   1.300  23.690  0.00  0.00    -0.348 OA
ATOM     15  C   UNL     1      -1.101   1.048  24.447  0.00  0.00    +0.186 C 
ATOM     16  C   UNL     1      -0.839   0.402  24.889  0.00  0.00    +0.229 C 
ATOM     17  C   UNL     1      -0.771   0.640  25.675  0.00  0.00    +0.188 C 
ATOM     18  O   UNL     1      -0.990   1.434  25.720  0.00  0.00    -0.348 OA
ATOM     19  C   UNL     1      -1.194   1.686  24.961  0.00  0.00    +0.166 C 
ENDROOT
BRANCH  12  11
ATOM     11  N   UNL     1      -1.619   3.086  24.816  0.00  0.00    -0.074 NA
BRANCH  11   8
ATOM      8  S   UNL     1      -2.400   3.313  24.955  0.00  0.00    +0.077 S 
ATOM      9  O   UNL     1      -2.554   3.286  24.145  0.00  0.00    -0.152 OA
ATOM     10  O   UNL     1      -2.247   3.341  25.766  0.00  0.00    -0.152 OA
BRANCH   8   5
ATOM      1  C   UNL     1      -5.521   4.225  25.520  0.00  0.00    +0.031 C 
ATOM      2  C   UNL     1      -4.741   3.997  25.378  0.00  0.00    -0.022 A 
ATOM      3  C   UNL     1      -4.497   3.812  24.613  0.00  0.00    -0.003 A 
ATOM      4  C   UNL     1      -3.717   3.584  24.471  0.00  0.00    +0.020 A 
ATOM      5  C   UNL     1      -3.180   3.541  25.096  0.00  0.00    +0.124 A 
ATOM      6  C   UNL     1      -3.424   3.726  25.863  0.00  0.00    +0.020 A 
ATOM      7  C   UNL     1      -4.204   3.954  26.003  0.00  0.00    -0.003 A 
ENDBRANCH   8   5
ENDBRANCH  11   8
ENDBRANCH  12  11
BRANCH  16  20
ATOM     20  O   UNL     1      -0.675  -0.352  24.594  0.00  0.00    -0.432 OA
BRANCH  20  21
ATOM     21  C   UNL     1      -1.167  -0.986  24.786  0.00  0.00    +0.425 C 
ATOM     22  O   UNL     1      -1.060  -1.390  25.497  0.00  0.00    -0.224 OA
ATOM     23  N   UNL     1      -1.765  -1.216  24.267  0.00  0.00    -0.142 NA
BRANCH  23  24
ATOM     24  C   UNL     1      -2.257  -1.851  24.459  0.00  0.00    +0.077 A 
ATOM     25  C   UNL     1      -2.004  -2.624  24.326  0.00  0.00    +0.017 A 
ATOM     26  C   UNL     1      -2.495  -3.258  24.517  0.00  0.00    +0.001 A 
ATOM     27  C   UNL     1      -3.240  -3.119  24.843  0.00  0.00    +0.000 A 
ATOM     28  C   UNL     1      -3.494  -2.344  24.977  0.00  0.00    +0.001 A 
ATOM     29  C   UNL     1      -3.002  -1.711  24.785  0.00  0.00    +0.017 A 
ENDBRANCH  23  24
ENDBRANCH  20  21
ENDBRANCH  16  20
TORSDOF 6
ENDMDL
MODEL 8
REMARK VINA RESULT:      -8.6      3.136      4.541
REMARK  Name = 
REMARK  6 active torsions:
REMARK  status: ('A' for Active; 'I' for Inactive)
REMARK    1  A    between atoms: C_5  and  S_8
REMARK    2  A    between atoms: S_8  and  N_11
REMARK    3  A    between atoms: N_11  and  C_12
REMARK    4  A    between atoms: C_16  and  O_20
REMARK    5  A    between atoms: O_20  and  C_21
REMARK    6  A    between atoms: N_23  and  C_24
REMARK                            x       y       z     vdW  Elec       q    Type
REMARK                         _______ _______ _______ _____ _____    ______ ____
ROOT
ATOM     12  C   UNL     1       1.407   0.430  23.134  0.00  0.00    +0.157 C 
ATOM     13  C   UNL     1       1.458   1.157  23.521  0.00  0.00    +0.164 C 
ATOM     14  O   UNL     1       0.784   1.245  23.987  0.00  0.00    -0.348 OA
ATOM     15  C   UNL     1       0.316   0.573  23.890  0.00  0.00    +0.186 C 
ATOM     16  C   UNL     1      -0.390   0.212  24.117  0.00  0.00    +0.229 C 
ATOM     17  C   UNL     1      -0.441  -0.515  23.730  0.00  0.00    +0.188 C 
ATOM     18  O   UNL     1       0.233  -0.603  23.264  0.00  0.00    -0.348 OA
ATOM     19  C   UNL     1       0.701   0.070  23.362  0.00  0.00    +0.166 C 
ENDROOT
BRANCH  12  11
ATOM     11  N   UNL     1       1.964   0.118  22.611  0.00  0.00    -0.074 NA
BRANCH  11   8
ATOM      8  S   UNL     1       2.764   0.114  22.814  0.00  0.00    +0.077 S 
ATOM      9  O   UNL     1       2.823   0.909  22.600  0.00  0.00    -0.152 OA
ATOM     10  O   UNL     1       2.705  -0.680  23.029  0.00  0.00    -0.152 OA
BRANCH   8   5
ATOM      1  C   UNL     1       5.962   0.092  23.628  0.00  0.00    +0.031 C 
ATOM      2  C   UNL     1       5.162   0.098  23.425  0.00  0.00    -0.022 A 
ATOM      3  C   UNL     1       4.838   0.754  23.046  0.00  0.00    -0.003 A 
ATOM      4  C   UNL     1       4.038   0.760  22.842  0.00  0.00    +0.020 A 
ATOM      5  C   UNL     1       3.563   0.109  23.018  0.00  0.00    +0.124 A 
ATOM      6  C   UNL     1       3.888  -0.548  23.397  0.00  0.00    +0.020 A 
ATOM      7  C   UNL     1       4.687  -0.553  23.600  0.00  0.00    -0.003 A 
ENDBRANCH   8   5
ENDBRANCH  11   8
ENDBRANCH  12  11
BRANCH  16  20
ATOM     20  O   UNL     1      -0.947   0.523  24.640  0.00  0.00    -0.432 OA
BRANCH  20  21
ATOM     21  C   UNL     1      -1.753   0.437  24.484  0.00  0.00    +0.425 C 
ATOM     22  O   UNL     1      -2.052   0.635  23.741  0.00  0.00    -0.224 OA
ATOM     23  N   UNL     1      -2.259   0.154  25.070  0.00  0.00    -0.142 NA
BRANCH  23  24
ATOM     24  C   UNL     1      -3.065   0.069  24.914  0.00  0.00    +0.077 A 
ATOM     25  C   UNL     1      -3.563   0.725  24.945  0.00  0.00    +0.017 A 
ATOM     26  C   UNL     1      -4.368   0.639  24.789  0.00  0.00    +0.001 A 
ATOM     27  C   UNL     1      -4.676  -0.104  24.602  0.00  0.00    +0.000 A 
ATOM     28  C   UNL     1      -4.177  -0.761  24.571  0.00  0.00    +0.001 A 
ATOM     29  C   UNL     1      -3.372  -0.674  24.727  0.00  0.00    +0.017 A 
ENDBRANCH  23  24
ENDBRANCH  20  21
ENDBRANCH  16  20
TORSDOF 6
ENDMDL
MODEL 9
REMARK VINA RESULT:      -8.4      2.905      4.449
REMARK  Name = 
REMARK  6 active torsions:
REMARK  status: ('A' for Active; 'I' for Inactive)
REMARK    1  A    between atoms: C_5  and  S_8
REMARK    2  A    between atoms: S_8  and  N_11
REMARK    3  A    between atoms: N_11  and  C_12
REMARK    4  A    between atoms: C_16  and  O_20
REMARK    5  A    between atoms: O_20  and  C_21
REMARK    6  A    between atoms: N_23  and  C_24
REMARK                            x       y       z     vdW  Elec       q    Type
REMARK                         _______ _______ _______ _____ _____    ______ ____
ROOT
ATOM     12  C   UNL     1      -0.845   0.487  24.017  0.00  0.00    +0.157 C 
ATOM     13  C   UNL     1      -0.904   1.132  23.507  0.00  0.00    +0.164 C 
ATOM     14  O   UNL     1      -1.704   1.308  23.411  0.00  0.00    -0.348 OA
ATOM     15  C   UNL     1      -2.139   0.772  23.862  0.00  0.00    +0.186 C 
ATOM     16  C   UNL     1      -2.902   0.548  24.082  0.00  0.00    +0.229 C 
ATOM     17  C   UNL     1      -2.843  -0.098  24.592  0.00  0.00    +0.188 C 
ATOM     18  O   UNL     1      -2.042  -0.273  24.687  0.00  0.00    -0.348 OA
ATOM     19  C   UNL     1      -1.607   0.264  24.236  0.00  0.00    +0.166 C 
ENDROOT
BRANCH  12  11
ATOM     11  N   UNL     1      -0.144   0.128  24.264  0.00  0.00    -0.074 NA
BRANCH  11   8
ATOM      8  S   UNL     1       0.530   0.167  23.790  0.00  0.00    +0.077 S 
ATOM      9  O   UNL     1       0.698   0.917  24.089  0.00  0.00    -0.152 OA
ATOM     10  O   UNL     1       0.363  -0.583  23.490  0.00  0.00    -0.152 OA
BRANCH   8   5
ATOM      1  C   UNL     1       3.224   0.320  21.890  0.00  0.00    +0.031 C 
ATOM      2  C   UNL     1       2.551   0.282  22.366  0.00  0.00    -0.022 A 
ATOM      3  C   UNL     1       2.489   0.762  23.033  0.00  0.00    -0.003 A 
ATOM      4  C   UNL     1       1.815   0.724  23.508  0.00  0.00    +0.020 A 
ATOM      5  C   UNL     1       1.204   0.205  23.315  0.00  0.00    +0.124 A 
ATOM      6  C   UNL     1       1.265  -0.275  22.647  0.00  0.00    +0.020 A 
ATOM      7  C   UNL     1       1.939  -0.237  22.173  0.00  0.00    -0.003 A 
ENDBRANCH   8   5
ENDBRANCH  11   8
ENDBRANCH  12  11
BRANCH  16  20
ATOM     20  O   UNL     1      -3.603   0.907  23.835  0.00  0.00    -0.432 OA
BRANCH  20  21
ATOM     21  C   UNL     1      -4.132   1.207  24.392  0.00  0.00    +0.425 C 
ATOM     22  O   UNL     1      -4.294   0.779  25.078  0.00  0.00    -0.224 OA
ATOM     23  N   UNL     1      -4.500   1.934  24.264  0.00  0.00    -0.142 NA
BRANCH  23  24
ATOM     24  C   UNL     1      -5.029   2.233  24.821  0.00  0.00    +0.077 A 
ATOM     25  C   UNL     1      -4.812   2.872  25.295  0.00  0.00    +0.017 A 
ATOM     26  C   UNL     1      -5.341   3.171  25.852  0.00  0.00    +0.001 A 
ATOM     27  C   UNL     1      -6.089   2.832  25.936  0.00  0.00    +0.000 A 
ATOM     28  C   UNL     1      -6.306   2.192  25.461  0.00  0.00    +0.001 A 
ATOM     29  C   UNL     1      -5.776   1.894  24.904  0.00  0.00    +0.017 A 
ENDBRANCH  23  24
ENDBRANCH  20  21
ENDBRANCH  16  20
TORSDOF 6
ENDMDL
MODEL 10
REMARK VINA RESULT:      -8.3      1.833      5.273
REMARK  Name = 
REMARK  6 active torsions:
REMARK  status: ('A' for Active; 'I' for Inactive)
REMARK    1  A    between atoms: C_5  and  S_8
REMARK    2  A    between atoms: S_8  and  N_11
REMARK    3  A    between atoms: N_11  and  C_12
REMARK    4  A    between atoms: C_16  and  O_20
REMARK    5  A    between atoms: O_20  and  C_21
REMARK    6  A    between atoms: N_23  and  C_24
REMARK                            x       y       z     vdW  Elec       q    Type
REMARK                         _______ _______ _______ _____ _____    ______ ____
ROOT
ATOM     12  C   UNL     1      -0.938   0.572  24.669  0.00  0.00    +0.157 C 
ATOM     13  C   UNL     1      -1.195   0.807  23.921  0.00  0.00    +0.164 C 
ATOM     14  O   UNL     1      -1.412   1.601  23.965  0.00  0.00    -0.348 OA
ATOM     15  C   UNL     1      -1.290   1.858  24.738  0.00  0.00    +0.186 C 
ATOM     16  C   UNL     1      -1.348   2.506  25.245  0.00  0.00    +0.229 C 
ATOM     17  C   UNL     1      -1.091   2.271  25.993  0.00  0.00    +0.188 C 
ATOM     18  O   UNL     1      -0.874   1.477  25.949  0.00  0.00    -0.348 OA
ATOM     19  C   UNL     1      -0.997   1.221  25.174  0.00  0.00    +0.166 C 
ENDROOT
BRANCH  12  11
ATOM     11  N   UNL     1      -0.670  -0.181  24.875  0.00  0.00    -0.074 NA
BRANCH  11   8
ATOM      8  S   UNL     1      -1.179  -0.828  24.827  0.00  0.00    +0.077 S 
ATOM      9  O   UNL     1      -1.228  -0.853  25.650  0.00  0.00    -0.152 OA
ATOM     10  O   UNL     1      -1.131  -0.804  24.003  0.00  0.00    -0.152 OA
BRANCH   8   5
ATOM      1  C   UNL     1      -3.216  -3.417  24.629  0.00  0.00    +0.031 C 
ATOM      2  C   UNL     1      -2.706  -2.770  24.678  0.00  0.00    -0.022 A 
ATOM      3  C   UNL     1      -1.943  -2.821  24.370  0.00  0.00    -0.003 A 
ATOM      4  C   UNL     1      -1.434  -2.174  24.419  0.00  0.00    +0.020 A 
ATOM      5  C   UNL     1      -1.688  -1.475  24.777  0.00  0.00    +0.124 A 
ATOM      6  C   UNL     1      -2.452  -1.424  25.086  0.00  0.00    +0.020 A 
ATOM      7  C   UNL     1      -2.960  -2.071  25.036  0.00  0.00    -0.003 A 
ENDBRANCH   8   5
ENDBRANCH  11   8
ENDBRANCH  12  11
BRANCH  16  20
ATOM     20  O   UNL     1      -1.616   3.259  25.039  0.00  0.00    -0.432 OA
BRANCH  20  21
ATOM     21  C   UNL     1      -2.366   3.510  25.276  0.00  0.00    +0.425 C 
ATOM     22  O   UNL     1      -2.465   3.876  26.009  0.00  0.00    -0.224 OA
ATOM     23  N   UNL     1      -3.015   3.395  24.782  0.00  0.00    -0.142 NA
BRANCH  23  24
ATOM     24  C   UNL     1      -3.765   3.646  25.020  0.00  0.00    +0.077 A 
ATOM     25  C   UNL     1      -3.986   4.434  24.924  0.00  0.00    +0.017 A 
ATOM     26  C   UNL     1      -4.734   4.685  25.161  0.00  0.00    +0.001 A 
ATOM     27  C   UNL     1      -5.263   4.146  25.495  0.00  0.00    +0.000 A 
ATOM     28  C   UNL     1      -5.042   3.357  25.591  0.00  0.00    +0.001 A 
ATOM     29  C   UNL     1      -4.293   3.107  25.354  0.00  0.00    +0.017 A 
ENDBRANCH  23  24
ENDBRANCH  20  21
ENDBRANCH  16  20
TORSDOF 6
ENDMDL
