MODEL 1
REMARK VINA RESULT:     -12.4      0.000      0.000
REMARK  Name = 
REMARK  4 active torsions:
REMARK  status: ('A' for Active; 'I' for Inactive)
REMARK    1  A    between atoms: N_4  and  C_23
REMARK    2  A    between atoms: C_7  and  C_8
REMARK    3  A    between atoms: C_10  and  N_11
REMARK    4  A    between atoms: N_14  and  C_15
REMARK                            x       y       z     vdW  Elec       q    Type
REMARK                         _______ _______ _______ _____ _____    ______ ____
ROOT
ATOM      1  C   UNL     1      -6.007   1.217  25.368  0.00  0.00    +0.054 C 
ATOM      2  C   UNL     1      -5.346   0.799  25.101  0.00  0.00    +0.077 A 
ATOM      3  N   UNL     1      -5.281  -0.020  25.045  0.00  0.00    -0.170 NA
ATOM      4  N   UNL     1      -4.530  -0.197  24.753  0.00  0.00    -0.234 N 
ATOM      5  C   UNL     1      -4.131   0.514  24.628  0.00  0.00    +0.058 A 
ATOM      6  C   UNL     1      -3.362   0.594  24.339  0.00  0.00    +0.052 C 
ATOM      7  C   UNL     1      -4.636   1.130  24.843  0.00  0.00    +0.010 A 
ENDROOT
BRANCH   4  23
ATOM     23  C   UNL     1      -4.230  -0.953  24.610  0.00  0.00    +0.083 A 
ATOM     24  C   UNL     1      -3.831  -1.357  25.208  0.00  0.00    +0.030 A 
ATOM     25  C   UNL     1      -3.531  -2.113  25.066  0.00  0.00    +0.055 A 
ATOM     26 CL   UNL     1      -3.131  -2.518  25.664  0.00  0.00    -0.083 Cl
ATOM     27  C   UNL     1      -3.631  -2.463  24.327  0.00  0.00    -0.011 A 
ATOM     28  C   UNL     1      -3.331  -3.219  24.184  0.00  0.00    +0.032 C 
ATOM     29  C   UNL     1      -4.031  -2.059  23.728  0.00  0.00    -0.002 A 
ATOM     30  C   UNL     1      -4.331  -1.304  23.871  0.00  0.00    +0.019 A 
ENDBRANCH   4  23
BRANCH   7   8
ATOM      8  C   UNL     1      -4.459   1.936  24.807  0.00  0.00    +0.048 C 
ATOM      9  C   UNL     1      -3.971   2.350  25.326  0.00  0.00    +0.035 C 
ATOM     10  C   UNL     1      -3.951   3.137  25.084  0.00  0.00    +0.119 C 
ATOM     21  C   UNL     1      -4.427   3.210  24.414  0.00  0.00    -0.009 C 
ATOM     22  C   UNL     1      -4.741   2.468  24.243  0.00  0.00    -0.025 C 
BRANCH  10  11
ATOM     11  N   UNL     1      -3.529   3.746  25.447  0.00  0.00    -0.184 NA
ATOM     12  C   UNL     1      -2.789   3.968  25.155  0.00  0.00    +0.344 C 
ATOM     13  O   UNL     1      -2.471   3.580  24.500  0.00  0.00    -0.249 OA
ATOM     14  N   UNL     1      -2.368   4.577  25.519  0.00  0.00    -0.161 NA
BRANCH  14  15
ATOM     15  C   UNL     1      -1.629   4.799  25.227  0.00  0.00    +0.075 A 
ATOM     16  C   UNL     1      -0.996   4.271  25.264  0.00  0.00    +0.017 A 
ATOM     17  C   UNL     1      -0.256   4.492  24.973  0.00  0.00    +0.001 A 
ATOM     18  C   UNL     1      -0.150   5.242  24.644  0.00  0.00    +0.000 A 
ATOM     19  C   UNL     1      -0.784   5.769  24.606  0.00  0.00    +0.001 A 
ATOM     20  C   UNL     1      -1.523   5.548  24.898  0.00  0.00    +0.017 A 
ENDBRANCH  14  15
ENDBRANCH  10  11
ENDBRANCH   7   8
TORSDOF 4
ENDMDL
MODEL 2
REMARK VINA RESULT:     -11.2      1.665      5.661
REMARK  Name = 
REMARK  4 active torsions:
REMARK  status: ('A' for Active; 'I' for Inactive)
REMARK    1  A    between atoms: N_4  and  C_23
REMARK    2  A    between atoms: C_7  and  C_8
REMARK    3  A    between atoms: C_10  and  N_11
REMARK    4  A    between atoms: N_14  and  C_15
REMARK                            x       y       z     vdW  Elec       q    Type
REMARK                         _______ _______ _______ _____ _____    ______ ____
ROOT
ATOM      1  C   UNL     1      -4.979   3.326  26.055  0.00  0.00    +0.054 C 
ATOM      2  C   UNL     1      -4.243   3.338  25.680  0.00  0.00    +0.077 A 
ATOM      3  N   UNL     1      -3.695   3.953  25.709  0.00  0.00    -0.170 NA
ATOM      4  N   UNL     1      -3.040   3.731  25.258  0.00  0.00    -0.234 N 
ATOM      5  C   UNL     1      -3.184   2.979  24.951  0.00  0.00    +0.058 A 
ATOM      6  C   UNL     1      -2.673   2.546  24.468  0.00  0.00    +0.052 C 
ATOM      7  C   UNL     1      -3.928   2.736  25.213  0.00  0.00    +0.010 A 
ENDROOT
BRANCH   4  23
ATOM     23  C   UNL     1      -2.360   4.183  25.135  0.00  0.00    +0.083 A 
ATOM     24  C   UNL     1      -1.618   3.865  25.306  0.00  0.00    +0.030 A 
ATOM     25  C   UNL     1      -0.938   4.317  25.184  0.00  0.00    +0.055 A 
ATOM     26 CL   UNL     1      -0.196   3.999  25.355  0.00  0.00    -0.083 Cl
ATOM     27  C   UNL     1      -1.000   5.084  24.891  0.00  0.00    -0.011 A 
ATOM     28  C   UNL     1      -0.320   5.536  24.768  0.00  0.00    +0.032 C 
ATOM     29  C   UNL     1      -1.743   5.403  24.719  0.00  0.00    -0.002 A 
ATOM     30  C   UNL     1      -2.423   4.951  24.842  0.00  0.00    +0.019 A 
ENDBRANCH   4  23
BRANCH   7   8
ATOM      8  C   UNL     1      -4.292   2.016  25.036  0.00  0.00    +0.048 C 
ATOM      9  C   UNL     1      -4.144   1.294  25.405  0.00  0.00    +0.035 C 
ATOM     10  C   UNL     1      -4.628   0.726  25.056  0.00  0.00    +0.119 C 
ATOM     21  C   UNL     1      -5.076   1.097  24.470  0.00  0.00    -0.009 C 
ATOM     22  C   UNL     1      -4.868   1.894  24.458  0.00  0.00    -0.025 C 
BRANCH  10  11
ATOM     11  N   UNL     1      -4.660  -0.074  25.256  0.00  0.00    -0.184 NA
ATOM     12  C   UNL     1      -4.116  -0.603  24.932  0.00  0.00    +0.344 C 
ATOM     13  O   UNL     1      -3.539  -0.333  24.408  0.00  0.00    -0.249 OA
ATOM     14  N   UNL     1      -4.149  -1.403  25.132  0.00  0.00    -0.161 NA
BRANCH  14  15
ATOM     15  C   UNL     1      -3.605  -1.932  24.809  0.00  0.00    +0.075 A 
ATOM     16  C   UNL     1      -3.832  -2.431  24.193  0.00  0.00    +0.017 A 
ATOM     17  C   UNL     1      -3.288  -2.961  23.868  0.00  0.00    +0.001 A 
ATOM     18  C   UNL     1      -2.517  -2.990  24.161  0.00  0.00    +0.000 A 
ATOM     19  C   UNL     1      -2.290  -2.491  24.778  0.00  0.00    +0.001 A 
ATOM     20  C   UNL     1      -2.834  -1.962  25.102  0.00  0.00    +0.017 A 
ENDBRANCH  14  15
ENDBRANCH  10  11
ENDBRANCH   7   8
TORSDOF 4
ENDMDL
MODEL 3
REMARK VINA RESULT:     -10.8      2.537      6.378
REMARK  Name = 
REMARK  4 active torsions:
REMARK  status: ('A' for Active; 'I' for Inactive)
REMARK    1  A    between atoms: N_4  and  C_23
REMARK    2  A    between atoms: C_7  and  C_8
REMARK    3  A    between atoms: C_10  and  N_11
REMARK    4  A    between atoms: N_14  and  C_15
REMARK                            x       y       z     vdW  Elec       q    Type
REMARK                         _______ _______ _______ _____ _____    ______ ____
ROOT
ATOM      1  C   UNL     1       0.284   1.709  26.664  0.00  0.00    +0.054 C 
ATOM      2  C   UNL     1      -0.186   2.144  26.143  0.00  0.00    +0.077 A 
ATOM      3  N   UNL     1      -0.290   2.961  26.152  0.00  0.00    -0.170 NA
ATOM      4  N   UNL     1      -0.802   3.160  25.535  0.00  0.00    -0.234 N 
ATOM      5  C   UNL     1      -1.014   2.464  25.146  0.00  0.00    +0.058 A 
ATOM      6  C   UNL     1      -1.519   2.407  24.495  0.00  0.00    +0.052 C 
ATOM      7  C   UNL     1      -0.633   1.835  25.522  0.00  0.00    +0.010 A 
ENDROOT
BRANCH   4  23
ATOM     23  C   UNL     1      -1.057   3.921  25.342  0.00  0.00    +0.083 A 
ATOM     24  C   UNL     1      -1.782   4.195  25.624  0.00  0.00    +0.030 A 
ATOM     25  C   UNL     1      -2.037   4.956  25.431  0.00  0.00    +0.055 A 
ATOM     26 CL   UNL     1      -2.763   5.232  25.713  0.00  0.00    -0.083 Cl
ATOM     27  C   UNL     1      -1.568   5.441  24.957  0.00  0.00    -0.011 A 
ATOM     28  C   UNL     1      -1.824   6.202  24.764  0.00  0.00    +0.032 C 
ATOM     29  C   UNL     1      -0.843   5.166  24.675  0.00  0.00    -0.002 A 
ATOM     30  C   UNL     1      -0.588   4.405  24.868  0.00  0.00    +0.019 A 
ENDBRANCH   4  23
BRANCH   7   8
ATOM      8  C   UNL     1      -0.690   1.040  25.312  0.00  0.00    +0.048 C 
ATOM      9  C   UNL     1      -1.211   0.489  25.634  0.00  0.00    +0.035 C 
ATOM     10  C   UNL     1      -1.079  -0.236  25.264  0.00  0.00    +0.119 C 
ATOM     21  C   UNL     1      -0.475  -0.132  24.711  0.00  0.00    -0.009 C 
ATOM     22  C   UNL     1      -0.235   0.656  24.740  0.00  0.00    -0.025 C 
BRANCH  10  11
ATOM     11  N   UNL     1      -1.479  -0.941  25.418  0.00  0.00    -0.184 NA
ATOM     12  C   UNL     1      -2.129  -1.156  24.958  0.00  0.00    +0.344 C 
ATOM     13  O   UNL     1      -2.380  -0.666  24.344  0.00  0.00    -0.249 OA
ATOM     14  N   UNL     1      -2.529  -1.861  25.113  0.00  0.00    -0.161 NA
BRANCH  14  15
ATOM     15  C   UNL     1      -3.179  -2.076  24.653  0.00  0.00    +0.075 A 
ATOM     16  C   UNL     1      -3.800  -1.546  24.544  0.00  0.00    +0.017 A 
ATOM     17  C   UNL     1      -4.452  -1.760  24.084  0.00  0.00    +0.001 A 
ATOM     18  C   UNL     1      -4.479  -2.506  23.733  0.00  0.00    +0.000 A 
ATOM     19  C   UNL     1      -3.857  -3.038  23.842  0.00  0.00    +0.001 A 
ATOM     20  C   UNL     1      -3.207  -2.822  24.302  0.00  0.00    +0.017 A 
ENDBRANCH  14  15
ENDBRANCH  10  11
ENDBRANCH   7   8
TORSDOF 4
ENDMDL
MODEL 4
REMARK VINA RESULT:     -10.7      4.055      5.174
REMARK  Name = 
REMARK  4 active torsions:
REMARK  status: ('A' for Active; 'I' for Inactive)
REMARK    1  A    between atoms: N_4  and  C_23
REMARK    2  A    between atoms: C_7  and  C_8
REMARK    3  A    between atoms: C_10  and  N_11
REMARK    4  A    between atoms: N_14  and  C_15
REMARK                            x       y       z     vdW  Elec       q    Type
REMARK                         _______ _______ _______ _____ _____    ______ ____
ROOT
ATOM      1  C   UNL     1      -0.556   1.529  25.569  0.00  0.00    +0.054 C 
ATOM      2  C   UNL     1      -1.270   1.338  25.201  0.00  0.00    +0.077 A 
ATOM      3  N   UNL     1      -2.008   1.658  25.382  0.00  0.00    -0.170 NA
ATOM      4  N   UNL     1      -2.565   1.312  24.881  0.00  0.00    -0.234 N 
ATOM      5  C   UNL     1      -2.170   0.779  24.390  0.00  0.00    +0.058 A 
ATOM      6  C   UNL     1      -2.516   0.311  23.804  0.00  0.00    +0.052 C 
ATOM      7  C   UNL     1      -1.369   0.795  24.588  0.00  0.00    +0.010 A 
ENDROOT
BRANCH   4  23
ATOM     23  C   UNL     1      -3.375   1.471  24.871  0.00  0.00    +0.083 A 
ATOM     24  C   UNL     1      -3.645   2.215  24.639  0.00  0.00    +0.030 A 
ATOM     25  C   UNL     1      -4.455   2.374  24.630  0.00  0.00    +0.055 A 
ATOM     26 CL   UNL     1      -4.727   3.118  24.398  0.00  0.00    -0.083 Cl
ATOM     27  C   UNL     1      -4.993   1.791  24.853  0.00  0.00    -0.011 A 
ATOM     28  C   UNL     1      -5.803   1.950  24.843  0.00  0.00    +0.032 C 
ATOM     29  C   UNL     1      -4.722   1.046  25.085  0.00  0.00    -0.002 A 
ATOM     30  C   UNL     1      -3.912   0.887  25.094  0.00  0.00    +0.019 A 
ENDBRANCH   4  23
BRANCH   7   8
ATOM      8  C   UNL     1      -0.774   0.346  24.234  0.00  0.00    +0.048 C 
ATOM      9  C   UNL     1      -0.291   0.585  23.611  0.00  0.00    +0.035 C 
ATOM     10  C   UNL     1       0.224  -0.034  23.435  0.00  0.00    +0.119 C 
ATOM     21  C   UNL     1       0.058  -0.657  23.949  0.00  0.00    -0.009 C 
ATOM     22  C   UNL     1      -0.558  -0.423  24.444  0.00  0.00    -0.025 C 
BRANCH  10  11
ATOM     11  N   UNL     1       0.803  -0.032  22.847  0.00  0.00    -0.184 NA
ATOM     12  C   UNL     1       1.592   0.101  23.045  0.00  0.00    +0.344 C 
ATOM     13  O   UNL     1       1.804   0.232  23.831  0.00  0.00    -0.249 OA
ATOM     14  N   UNL     1       2.171   0.102  22.456  0.00  0.00    -0.161 NA
BRANCH  14  15
ATOM     15  C   UNL     1       2.961   0.235  22.655  0.00  0.00    +0.075 A 
ATOM     16  C   UNL     1       3.431  -0.391  22.913  0.00  0.00    +0.017 A 
ATOM     17  C   UNL     1       4.222  -0.259  23.111  0.00  0.00    +0.001 A 
ATOM     18  C   UNL     1       4.540   0.500  23.051  0.00  0.00    +0.000 A 
ATOM     19  C   UNL     1       4.069   1.126  22.792  0.00  0.00    +0.001 A 
ATOM     20  C   UNL     1       3.279   0.994  22.594  0.00  0.00    +0.017 A 
ENDBRANCH  14  15
ENDBRANCH  10  11
ENDBRANCH   7   8
TORSDOF 4
ENDMDL
MODEL 5
REMARK VINA RESULT:     -10.7      1.977      2.711
REMARK  Name = 
REMARK  4 active torsions:
REMARK  status: ('A' for Active; 'I' for Inactive)
REMARK    1  A    between atoms: N_4  and  C_23
REMARK    2  A    between atoms: C_7  and  C_8
REMARK    3  A    between atoms: C_10  and  N_11
REMARK    4  A    between atoms: N_14  and  C_15
REMARK                            x       y       z     vdW  Elec       q    Type
REMARK                         _______ _______ _______ _____ _____    ______ ____
ROOT
ATOM      1  C   UNL     1      -0.924  -0.725  26.430  0.00  0.00    +0.054 C 
ATOM      2  C   UNL     1      -1.441  -0.738  25.786  0.00  0.00    +0.077 A 
ATOM      3  N   UNL     1      -2.034  -1.294  25.651  0.00  0.00    -0.170 NA
ATOM      4  N   UNL     1      -2.413  -1.096  24.946  0.00  0.00    -0.234 N 
ATOM      5  C   UNL     1      -2.054  -0.417  24.645  0.00  0.00    +0.058 A 
ATOM      6  C   UNL     1      -2.260  -0.028  23.946  0.00  0.00    +0.052 C 
ATOM      7  C   UNL     1      -1.452  -0.196  25.164  0.00  0.00    +0.010 A 
ENDROOT
BRANCH   4  23
ATOM     23  C   UNL     1      -3.042  -1.505  24.601  0.00  0.00    +0.083 A 
ATOM     24  C   UNL     1      -3.000  -2.324  24.510  0.00  0.00    +0.030 A 
ATOM     25  C   UNL     1      -3.628  -2.733  24.166  0.00  0.00    +0.055 A 
ATOM     26 CL   UNL     1      -3.587  -3.552  24.075  0.00  0.00    -0.083 Cl
ATOM     27  C   UNL     1      -4.298  -2.324  23.914  0.00  0.00    -0.011 A 
ATOM     28  C   UNL     1      -4.927  -2.733  23.569  0.00  0.00    +0.032 C 
ATOM     29  C   UNL     1      -4.340  -1.505  24.005  0.00  0.00    -0.002 A 
ATOM     30  C   UNL     1      -3.712  -1.095  24.349  0.00  0.00    +0.019 A 
ENDBRANCH   4  23
BRANCH   7   8
ATOM      8  C   UNL     1      -0.951   0.454  25.076  0.00  0.00    +0.048 C 
ATOM      9  C   UNL     1      -0.980   1.152  25.513  0.00  0.00    +0.035 C 
ATOM     10  C   UNL     1      -0.381   1.648  25.242  0.00  0.00    +0.119 C 
ATOM     21  C   UNL     1       0.020   1.256  24.636  0.00  0.00    -0.009 C 
ATOM     22  C   UNL     1      -0.333   0.519  24.534  0.00  0.00    -0.025 C 
BRANCH  10  11
ATOM     11  N   UNL     1      -0.210   2.404  25.525  0.00  0.00    -0.184 NA
ATOM     12  C   UNL     1      -0.664   3.049  25.282  0.00  0.00    +0.344 C 
ATOM     13  O   UNL     1      -1.289   2.939  24.756  0.00  0.00    -0.249 OA
ATOM     14  N   UNL     1      -0.492   3.805  25.566  0.00  0.00    -0.161 NA
BRANCH  14  15
ATOM     15  C   UNL     1      -0.946   4.450  25.324  0.00  0.00    +0.075 A 
ATOM     16  C   UNL     1      -1.717   4.539  25.602  0.00  0.00    +0.017 A 
ATOM     17  C   UNL     1      -2.171   5.184  25.359  0.00  0.00    +0.001 A 
ATOM     18  C   UNL     1      -1.853   5.739  24.838  0.00  0.00    +0.000 A 
ATOM     19  C   UNL     1      -1.081   5.650  24.560  0.00  0.00    +0.001 A 
ATOM     20  C   UNL     1      -0.627   5.005  24.803  0.00  0.00    +0.017 A 
ENDBRANCH  14  15
ENDBRANCH  10  11
ENDBRANCH   7   8
TORSDOF 4
ENDMDL
MODEL 6
REMARK VINA RESULT:      -9.8      2.675      4.672
REMARK  Name = 
REMARK  4 active torsions:
REMARK  status: ('A' for Active; 'I' for Inactive)
REMARK    1  A    between atoms: N_4  and  C_23
REMARK    2  A    between atoms: C_7  and  C_8
REMARK    3  A    between atoms: C_10  and  N_11
REMARK    4  A    between atoms: N_14  and  C_15
REMARK                            x       y       z     vdW  Elec       q    Type
REMARK                         _______ _______ _______ _____ _____    ______ ____
ROOT
ATOM      1  C   UNL     1      -0.239   2.754  26.559  0.00  0.00    +0.054 C 
ATOM      2  C   UNL     1      -0.222   2.493  25.776  0.00  0.00    +0.077 A 
ATOM      3  N   UNL     1       0.268   1.904  25.473  0.00  0.00    -0.170 NA
ATOM      4  N   UNL     1       0.101   1.823  24.668  0.00  0.00    -0.234 N 
ATOM      5  C   UNL     1      -0.492   2.363  24.475  0.00  0.00    +0.058 A 
ATOM      6  C   UNL     1      -0.826   2.470  23.728  0.00  0.00    +0.052 C 
ATOM      7  C   UNL     1      -0.692   2.778  25.160  0.00  0.00    +0.010 A 
ENDROOT
BRANCH   4  23
ATOM     23  C   UNL     1       0.464   1.294  24.148  0.00  0.00    +0.083 A 
ATOM     24  C   UNL     1       0.125   0.556  24.009  0.00  0.00    +0.030 A 
ATOM     25  C   UNL     1       0.488   0.027  23.489  0.00  0.00    +0.055 A 
ATOM     26 CL   UNL     1       0.150  -0.713  23.350  0.00  0.00    -0.083 Cl
ATOM     27  C   UNL     1       1.188   0.238  23.109  0.00  0.00    -0.011 A 
ATOM     28  C   UNL     1       1.551  -0.291  22.589  0.00  0.00    +0.032 C 
ATOM     29  C   UNL     1       1.528   0.977  23.248  0.00  0.00    -0.002 A 
ATOM     30  C   UNL     1       1.165   1.506  23.768  0.00  0.00    +0.019 A 
ENDBRANCH   4  23
BRANCH   7   8
ATOM      8  C   UNL     1      -1.261   3.372  25.217  0.00  0.00    +0.048 C 
ATOM      9  C   UNL     1      -2.076   3.260  25.264  0.00  0.00    +0.035 C 
ATOM     10  C   UNL     1      -2.434   4.001  25.314  0.00  0.00    +0.119 C 
ATOM     21  C   UNL     1      -1.838   4.572  25.297  0.00  0.00    -0.009 C 
ATOM     22  C   UNL     1      -1.114   4.184  25.238  0.00  0.00    -0.025 C 
BRANCH  10  11
ATOM     11  N   UNL     1      -3.244   4.148  25.370  0.00  0.00    -0.184 NA
ATOM     12  C   UNL     1      -3.778   3.519  25.376  0.00  0.00    +0.344 C 
ATOM     13  O   UNL     1      -3.503   2.743  25.326  0.00  0.00    -0.249 OA
ATOM     14  N   UNL     1      -4.588   3.667  25.432  0.00  0.00    -0.161 NA
BRANCH  14  15
ATOM     15  C   UNL     1      -5.122   3.038  25.438  0.00  0.00    +0.075 A 
ATOM     16  C   UNL     1      -5.290   2.634  24.739  0.00  0.00    +0.017 A 
ATOM     17  C   UNL     1      -5.825   2.004  24.745  0.00  0.00    +0.001 A 
ATOM     18  C   UNL     1      -6.191   1.781  25.450  0.00  0.00    +0.000 A 
ATOM     19  C   UNL     1      -6.023   2.187  26.149  0.00  0.00    +0.001 A 
ATOM     20  C   UNL     1      -5.489   2.815  26.143  0.00  0.00    +0.017 A 
ENDBRANCH  14  15
ENDBRANCH  10  11
ENDBRANCH   7   8
TORSDOF 4
ENDMDL
