MODEL 1
REMARK VINA RESULT:      -9.7      0.000      0.000
REMARK  Name = 
REMARK  12 active torsions:
REMARK  status: ('A' for Active; 'I' for Inactive)
REMARK    1  A    between atoms: C_2  and  C_4
REMARK    2  A    between atoms: C_4  and  C_5
REMARK    3  A    between atoms: C_4  and  N_11
REMARK    4  A    between atoms: C_5  and  C_6
REMARK    5  A    between atoms: C_12  and  C_14
REMARK    6  A    between atoms: C_16  and  N_28
REMARK    7  A    between atoms: C_20  and  C_22
REMARK    8  A    between atoms: C_22  and  O_23
REMARK    9  A    between atoms: O_23  and  C_24
REMARK   10  A    between atoms: C_24  and  C_25
REMARK   11  A    between atoms: N_28  and  S_29
REMARK   12  A    between atoms: S_29  and  C_32
REMARK                            x       y       z     vdW  Elec       q    Type
REMARK                         _______ _______ _______ _____ _____    ______ ____
ROOT
ATOM     14  C   UNL     1      -0.820   0.532  24.539  0.00  0.00    +0.155 C 
ATOM     15  C   UNL     1      -1.397   0.115  24.956  0.00  0.00    +0.049 C 
ATOM     16  C   UNL     1      -1.369  -0.709  24.987  0.00  0.00    +0.102 C 
ATOM     17  C   UNL     1      -0.763  -1.116  24.600  0.00  0.00    +0.041 C 
ATOM     18  C   UNL     1      -0.187  -0.698  24.183  0.00  0.00    +0.095 C 
ATOM     19  N   UNL     1      -0.216   0.126  24.152  0.00  0.00    -0.271 N 
ATOM     20  C   UNL     1       0.360   0.543  23.735  0.00  0.00    +0.256 C 
ATOM     21  O   UNL     1       0.332   1.368  23.705  0.00  0.00    -0.272 OA
ENDROOT
BRANCH  14  12
ATOM     11  N   UNL     1      -1.382   1.769  24.984  0.00  0.00    -0.196 NA
ATOM     12  C   UNL     1      -0.849   1.357  24.508  0.00  0.00    +0.260 C 
ATOM     13  O   UNL     1      -0.344   1.768  24.002  0.00  0.00    -0.272 OA
BRANCH  11   4
ATOM      4  C   UNL     1      -1.411   2.593  24.953  0.00  0.00    +0.179 C 
BRANCH   4   2
ATOM      1  N   UNL     1      -0.563   3.712  25.219  0.00  0.00    -0.086 NA
ATOM      2  C   UNL     1      -0.964   3.041  25.483  0.00  0.00    +0.281 C 
ATOM      3  O   UNL     1      -0.919   2.819  26.275  0.00  0.00    -0.270 OA
ENDBRANCH   4   2
BRANCH   4   5
ATOM      5  C   UNL     1      -1.886   2.969  24.392  0.00  0.00    +0.064 C 
BRANCH   5   6
ATOM      6  C   UNL     1      -2.697   3.037  24.519  0.00  0.00    +0.010 A 
ATOM      7  C   UNL     1      -3.288   2.641  24.100  0.00  0.00    +0.003 A 
ATOM      8  C   UNL     1      -4.018   2.872  24.409  0.00  0.00    +0.007 A 
ATOM      9  C   UNL     1      -3.878   3.412  25.017  0.00  0.00    +0.035 A 
ATOM     10  S   UNL     1      -3.062   3.513  25.085  0.00  0.00    -0.091 S 
ENDBRANCH   5   6
ENDBRANCH   4   5
ENDBRANCH  11   4
ENDBRANCH  14  12
BRANCH  20  22
ATOM     22  C   UNL     1       0.966   0.137  23.349  0.00  0.00    +0.228 C 
BRANCH  22  23
ATOM     23  O   UNL     1       1.641   0.540  23.101  0.00  0.00    -0.333 OA
BRANCH  23  24
ATOM     24  C   UNL     1       2.298   0.119  22.832  0.00  0.00    +0.257 C 
BRANCH  24  25
ATOM     25  C   UNL     1       2.968   0.523  22.571  0.00  0.00    +0.394 C 
ATOM     26  O   UNL     1       3.365   1.037  23.080  0.00  0.00    -0.243 OA
ATOM     27  O   UNL     1       3.241   0.412  21.799  0.00  0.00    -0.243 OA
ENDBRANCH  24  25
ENDBRANCH  23  24
ENDBRANCH  22  23
ENDBRANCH  20  22
BRANCH  16  28
ATOM     28  N   UNL     1      -1.945  -1.127  25.405  0.00  0.00    -0.079 NA
BRANCH  28  29
ATOM     29  S   UNL     1      -2.598  -1.437  25.008  0.00  0.00    +0.082 S 
ATOM     30  O   UNL     1      -2.141  -2.078  24.758  0.00  0.00    -0.151 OA
ATOM     31  O   UNL     1      -3.054  -0.796  25.258  0.00  0.00    -0.151 OA
BRANCH  29  32
ATOM     32  C   UNL     1      -3.252  -1.748  24.611  0.00  0.00    +0.153 A 
ATOM     33  C   UNL     1      -3.838  -1.312  24.228  0.00  0.00    +0.027 A 
ATOM     34  C   UNL     1      -4.382  -1.844  23.908  0.00  0.00    +0.009 A 
ATOM     35  C   UNL     1      -4.131  -2.608  24.093  0.00  0.00    +0.037 A 
ATOM     36  S   UNL     1      -3.432  -2.548  24.528  0.00  0.00    -0.067 S 
ENDBRANCH  29  32
ENDBRANCH  28  29
ENDBRANCH  16  28
TORSDOF 12
ENDMDL
MODEL 2
REMARK VINA RESULT:      -8.8      1.472      4.125
REMARK  Name = 
REMARK  12 active torsions:
REMARK  status: ('A' for Active; 'I' for Inactive)
REMARK    1  A    between atoms: C_2  and  C_4
REMARK    2  A    between atoms: C_4  and  C_5
REMARK    3  A    between atoms: C_4  and  N_11
REMARK    4  A    between atoms: C_5  and  C_6
REMARK    5  A    between atoms: C_12  and  C_14
REMARK    6  A    between atoms: C_16  and  N_28
REMARK    7  A    between atoms: C_20  and  C_22
REMARK    8  A    between atoms: C_22  and  O_23
REMARK    9  A    between atoms: O_23  and  C_24
REMARK   10  A    between atoms: C_24  and  C_25
REMARK   11  A    between atoms: N_28  and  S_29
REMARK   12  A    between atoms: S_29  and  C_32
REMARK                            x       y       z     vdW  Elec       q    Type
REMARK                         _______ _______ _______ _____ _____    ______ ____
ROOT
ATOM     14  C   UNL     1      -2.263   0.844  24.219  0.00  0.00    +0.155 C 
ATOM     15  C   UNL     1      -2.937   1.303  24.091  0.00  0.00    +0.049 C 
ATOM     16  C   UNL     1      -2.889   1.986  23.630  0.00  0.00    +0.102 C 
ATOM     17  C   UNL     1      -2.167   2.209  23.297  0.00  0.00    +0.041 C 
ATOM     18  C   UNL     1      -1.495   1.750  23.426  0.00  0.00    +0.095 C 
ATOM     19  N   UNL     1      -1.543   1.067  23.887  0.00  0.00    -0.271 N 
ATOM     20  C   UNL     1      -0.870   0.609  24.015  0.00  0.00    +0.256 C 
ATOM     21  O   UNL     1      -0.918  -0.075  24.476  0.00  0.00    -0.272 OA
ENDROOT
BRANCH  14  12
ATOM     11  N   UNL     1      -2.989  -0.309  24.652  0.00  0.00    -0.196 NA
ATOM     12  C   UNL     1      -2.311   0.161  24.680  0.00  0.00    +0.260 C 
ATOM     13  O   UNL     1      -1.682  -0.051  25.169  0.00  0.00    -0.272 OA
BRANCH  11   4
ATOM      4  C   UNL     1      -3.037  -0.991  25.113  0.00  0.00    +0.179 C 
BRANCH   4   2
ATOM      1  N   UNL     1      -2.890  -1.297  26.501  0.00  0.00    -0.086 NA
ATOM      2  C   UNL     1      -3.317  -0.947  25.889  0.00  0.00    +0.281 C 
ATOM      3  O   UNL     1      -4.023  -0.553  26.050  0.00  0.00    -0.270 OA
ENDBRANCH   4   2
BRANCH   4   5
ATOM      5  C   UNL     1      -2.805  -1.719  24.799  0.00  0.00    +0.064 C 
BRANCH   5   6
ATOM      6  C   UNL     1      -3.350  -2.185  24.393  0.00  0.00    +0.010 A 
ATOM      7  C   UNL     1      -3.958  -1.909  23.908  0.00  0.00    +0.003 A 
ATOM      8  C   UNL     1      -4.367  -2.563  23.614  0.00  0.00    +0.007 A 
ATOM      9  C   UNL     1      -4.011  -3.243  23.918  0.00  0.00    +0.035 A 
ATOM     10  S   UNL     1      -3.383  -3.009  24.399  0.00  0.00    -0.091 S 
ENDBRANCH   5   6
ENDBRANCH   4   5
ENDBRANCH  11   4
ENDBRANCH  14  12
BRANCH  20  22
ATOM     22  C   UNL     1      -0.148   0.832  23.683  0.00  0.00    +0.228 C 
BRANCH  22  23
ATOM     23  O   UNL     1       0.372   0.257  23.401  0.00  0.00    -0.333 OA
BRANCH  23  24
ATOM     24  C   UNL     1       1.114   0.476  23.114  0.00  0.00    +0.257 C 
BRANCH  24  25
ATOM     25  C   UNL     1       1.559  -0.057  22.670  0.00  0.00    +0.394 C 
ATOM     26  O   UNL     1       1.273  -0.333  21.947  0.00  0.00    -0.243 OA
ATOM     27  O   UNL     1       2.291  -0.317  22.950  0.00  0.00    -0.243 OA
ENDBRANCH  24  25
ENDBRANCH  23  24
ENDBRANCH  22  23
ENDBRANCH  20  22
BRANCH  16  28
ATOM     28  N   UNL     1      -3.563   2.445  23.501  0.00  0.00    -0.079 NA
BRANCH  28  29
ATOM     29  S   UNL     1      -3.947   2.800  24.138  0.00  0.00    +0.082 S 
ATOM     30  O   UNL     1      -3.345   3.363  24.187  0.00  0.00    -0.151 OA
ATOM     31  O   UNL     1      -4.549   2.238  24.088  0.00  0.00    -0.151 OA
BRANCH  29  32
ATOM     32  C   UNL     1      -4.333   3.156  24.776  0.00  0.00    +0.153 A 
ATOM     33  C   UNL     1      -4.054   3.796  25.214  0.00  0.00    +0.027 A 
ATOM     34  C   UNL     1      -4.613   3.969  25.796  0.00  0.00    +0.009 A 
ATOM     35  C   UNL     1      -5.237   3.436  25.716  0.00  0.00    +0.037 A 
ATOM     36  S   UNL     1      -5.064   2.933  25.085  0.00  0.00    -0.067 S 
ENDBRANCH  29  32
ENDBRANCH  28  29
ENDBRANCH  16  28
TORSDOF 12
ENDMDL
MODEL 3
REMARK VINA RESULT:      -8.5      1.652      3.907
REMARK  Name = 
REMARK  12 active torsions:
REMARK  status: ('A' for Active; 'I' for Inactive)
REMARK    1  A    between atoms: C_2  and  C_4
REMARK    2  A    between atoms: C_4  and  C_5
REMARK    3  A    between atoms: C_4  and  N_11
REMARK    4  A    between atoms: C_5  and  C_6
REMARK    5  A    between atoms: C_12  and  C_14
REMARK    6  A    between atoms: C_16  and  N_28
REMARK    7  A    between atoms: C_20  and  C_22
REMARK    8  A    between atoms: C_22  and  O_23
REMARK    9  A    between atoms: O_23  and  C_24
REMARK   10  A    between atoms: C_24  and  C_25
REMARK   11  A    between atoms: N_28  and  S_29
REMARK   12  A    between atoms: S_29  and  C_32
REMARK                            x       y       z     vdW  Elec       q    Type
REMARK                         _______ _______ _______ _____ _____    ______ ____
ROOT
ATOM     14  C   UNL     1      -1.193   1.052  24.838  0.00  0.00    +0.155 C 
ATOM     15  C   UNL     1      -1.340   1.689  25.341  0.00  0.00    +0.049 C 
ATOM     16  C   UNL     1      -0.718   2.172  25.587  0.00  0.00    +0.102 C 
ATOM     17  C   UNL     1       0.051   2.018  25.330  0.00  0.00    +0.041 C 
ATOM     18  C   UNL     1       0.197   1.380  24.826  0.00  0.00    +0.095 C 
ATOM     19  N   UNL     1      -0.425   0.898  24.580  0.00  0.00    -0.271 N 
ATOM     20  C   UNL     1      -0.278   0.261  24.078  0.00  0.00    +0.256 C 
ATOM     21  O   UNL     1      -0.901  -0.222  23.831  0.00  0.00    -0.272 OA
ENDROOT
BRANCH  14  12
ATOM     11  N   UNL     1      -2.487   0.488  25.064  0.00  0.00    -0.196 NA
ATOM     12  C   UNL     1      -1.816   0.568  24.591  0.00  0.00    +0.260 C 
ATOM     13  O   UNL     1      -1.766   0.166  23.873  0.00  0.00    -0.272 OA
BRANCH  11   4
ATOM      4  C   UNL     1      -3.109   0.005  24.818  0.00  0.00    +0.179 C 
BRANCH   4   2
ATOM      1  N   UNL     1      -3.341  -1.379  24.550  0.00  0.00    -0.086 NA
ATOM      2  C   UNL     1      -3.154  -0.777  25.081  0.00  0.00    +0.281 C 
ATOM      3  O   UNL     1      -3.012  -0.954  25.873  0.00  0.00    -0.270 OA
ENDBRANCH   4   2
BRANCH   4   5
ATOM      5  C   UNL     1      -3.687   0.303  24.309  0.00  0.00    +0.064 C 
BRANCH   5   6
ATOM      6  C   UNL     1      -4.269   0.809  24.598  0.00  0.00    +0.010 A 
ATOM      7  C   UNL     1      -4.788   0.647  25.220  0.00  0.00    +0.003 A 
ATOM      8  C   UNL     1      -5.276   1.305  25.323  0.00  0.00    +0.007 A 
ATOM      9  C   UNL     1      -5.059   1.873  24.765  0.00  0.00    +0.035 A 
ATOM     10  S   UNL     1      -4.437   1.566  24.317  0.00  0.00    -0.091 S 
ENDBRANCH   5   6
ENDBRANCH   4   5
ENDBRANCH  11   4
ENDBRANCH  14  12
BRANCH  20  22
ATOM     22  C   UNL     1       0.490   0.106  23.820  0.00  0.00    +0.228 C 
BRANCH  22  23
ATOM     23  O   UNL     1       0.630  -0.090  23.032  0.00  0.00    -0.333 OA
BRANCH  23  24
ATOM     24  C   UNL     1       1.342  -0.445  22.814  0.00  0.00    +0.257 C 
BRANCH  24  25
ATOM     25  C   UNL     1       1.705  -0.241  22.102  0.00  0.00    +0.394 C 
ATOM     26  O   UNL     1       1.352  -0.446  21.385  0.00  0.00    -0.243 OA
ATOM     27  O   UNL     1       2.422   0.169  22.107  0.00  0.00    -0.243 OA
ENDBRANCH  24  25
ENDBRANCH  23  24
ENDBRANCH  22  23
ENDBRANCH  20  22
BRANCH  16  28
ATOM     28  N   UNL     1      -0.865   2.809  26.091  0.00  0.00    -0.079 NA
BRANCH  28  29
ATOM     29  S   UNL     1      -1.130   3.526  25.782  0.00  0.00    +0.082 S 
ATOM     30  O   UNL     1      -0.382   3.663  25.459  0.00  0.00    -0.151 OA
ATOM     31  O   UNL     1      -1.877   3.389  26.105  0.00  0.00    -0.151 OA
BRANCH  29  32
ATOM     32  C   UNL     1      -1.396   4.244  25.473  0.00  0.00    +0.153 A 
ATOM     33  C   UNL     1      -0.931   4.809  25.092  0.00  0.00    +0.027 A 
ATOM     34  C   UNL     1      -1.421   5.437  24.874  0.00  0.00    +0.009 A 
ATOM     35  C   UNL     1      -2.188   5.259  25.121  0.00  0.00    +0.037 A 
ATOM     36  S   UNL     1      -2.172   4.521  25.491  0.00  0.00    -0.067 S 
ENDBRANCH  29  32
ENDBRANCH  28  29
ENDBRANCH  16  28
TORSDOF 12
ENDMDL
