REMARK  Name = 
REMARK  5 active torsions:
REMARK  status: ('A' for Active; 'I' for Inactive)
REMARK    1  A    between atoms: N_2  and  C_3
REMARK    2  A    between atoms: C_3  and  C_4
REMARK    3  A    between atoms: N_6  and  C_7
REMARK    4  A    between atoms: C_7  and  C_8
REMARK    5  A    between atoms: C_15  and  C_16
REMARK                            x       y       z     vdW  Elec       q    Type
REMARK                         _______ _______ _______ _____ _____    ______ ____
ROOT
ATOM      8  C   UNL     1       1.814  -2.106   0.000  0.00  0.00    +0.082 C 
ATOM      9  C   UNL     1       1.661  -1.343   0.000  0.00  0.00    +0.019 C 
ATOM     10  C   UNL     1       0.923  -1.010   0.000  0.00  0.00    +0.013 C 
ATOM     11  C   UNL     1       0.961  -0.114   0.000  0.00  0.00    +0.018 C 
ATOM     12  C   UNL     1       1.205  -0.720   0.000  0.00  0.00    +0.072 C 
ATOM     13  N   UNL     1       1.065  -1.759   0.000  0.00  0.00    -0.272 NA
ATOM     14  C   UNL     1       0.226  -2.118   0.000  0.00  0.00    +0.081 C 
ATOM     15  C   UNL     1       0.119  -1.362   0.000  0.00  0.00    +0.093 C 
ENDROOT
BRANCH  15  16
ATOM     16  C   UNL     1      -0.602  -0.960   0.000  0.00  0.00    +0.227 C 
ATOM     17  O   UNL     1      -1.310  -1.384   0.000  0.00  0.00    -0.275 OA
ATOM     18  N   UNL     1      -0.614  -0.136   0.000  0.00  0.00    -0.280 N 
ATOM     19  C   UNL     1      -1.289   0.339   0.000  0.00  0.00    +0.093 C 
ATOM     20  C   UNL     1      -1.046   1.128   0.000  0.00  0.00    +0.023 C 
ATOM     21  C   UNL     1      -0.221   1.140   0.000  0.00  0.00    +0.023 C 
ATOM     22  C   UNL     1       0.046   0.359   0.000  0.00  0.00    +0.093 C 
ENDBRANCH  15  16
BRANCH   8   7
ATOM      7  C   UNL     1       2.324  -2.754   0.000  0.00  0.00    +0.145 C 
BRANCH   7   6
ATOM      4  C   UNL     1       1.164  -4.546   0.000  0.00  0.00    +0.118 A 
ATOM      5  C   UNL     1       1.219  -3.722   0.000  0.00  0.00    +0.115 A 
ATOM      6  N   UNL     1       2.018  -3.520   0.000  0.00  0.00    -0.229 N 
ATOM     23  N   UNL     1       2.458  -4.218   0.000  0.00  0.00    -0.064 NA
ATOM     24  N   UNL     1       1.930  -4.852   0.000  0.00  0.00    -0.132 NA
BRANCH   4   3
ATOM      3  C   UNL     1       0.466  -4.986   0.000  0.00  0.00    +0.138 C 
BRANCH   3   2
ATOM      1  C   UNL     1      -0.200  -6.250   0.000  0.00  0.00    +0.108 C 
ATOM      2  N   UNL     1       0.498  -5.810   0.000  0.00  0.00    -0.210 NA
ENDBRANCH   3   2
ENDBRANCH   4   3
ENDBRANCH   7   6
ENDBRANCH   8   7
TORSDOF 5
