MODEL 1
REMARK VINA RESULT:      -9.3      0.000      0.000
REMARK  Name = 
REMARK  7 active torsions:
REMARK  status: ('A' for Active; 'I' for Inactive)
REMARK    1  A    between atoms: O_2  and  C_3
REMARK    2  A    between atoms: C_6  and  C_9
REMARK    3  A    between atoms: N_14  and  C_15
REMARK    4  A    between atoms: C_19  and  O_23
REMARK    5  A    between atoms: O_23  and  C_24
REMARK    6  A    between atoms: N_26  and  C_27
REMARK    7  A    between atoms: C_30  and  C_33
REMARK                            x       y       z     vdW  Elec       q    Type
REMARK                         _______ _______ _______ _____ _____    ______ ____
ROOT
ATOM     15  C   UNL     1      -1.165   1.246  23.931  0.00  0.00    +0.155 C 
ATOM     16  C   UNL     1      -0.858   1.836  23.443  0.00  0.00    +0.166 C 
ATOM     17  O   UNL     1      -0.220   1.516  23.028  0.00  0.00    -0.348 OA
ATOM     18  C   UNL     1      -0.133   0.730  23.260  0.00  0.00    +0.186 C 
ATOM     19  C   UNL     1       0.314   0.046  23.148  0.00  0.00    +0.229 C 
ATOM     20  C   UNL     1       0.007  -0.544  23.636  0.00  0.00    +0.188 C 
ATOM     21  O   UNL     1      -0.630  -0.224  24.051  0.00  0.00    -0.348 OA
ATOM     22  C   UNL     1      -0.717   0.563  23.818  0.00  0.00    +0.168 C 
ENDROOT
BRANCH  15  14
ATOM      9  C   UNL     1      -3.831   2.144  24.435  0.00  0.00    +0.086 A 
ATOM     10  C   UNL     1      -3.880   2.432  23.664  0.00  0.00    +0.040 A 
ATOM     11  C   UNL     1      -3.237   2.352  23.152  0.00  0.00    +0.103 A 
ATOM     12  N   UNL     1      -2.546   1.984  23.411  0.00  0.00    -0.211 NA
ATOM     13  C   UNL     1      -2.498   1.695  24.183  0.00  0.00    +0.237 A 
ATOM     14  N   UNL     1      -1.807   1.326  24.443  0.00  0.00    -0.200 NA
ATOM     37  N   UNL     1      -3.140   1.775  24.694  0.00  0.00    -0.212 NA
BRANCH   9   6
ATOM      3  C   UNL     1      -5.759   2.385  25.969  0.00  0.00    +0.139 A 
ATOM      4  C   UNL     1      -5.655   1.685  25.543  0.00  0.00    +0.037 A 
ATOM      5  C   UNL     1      -5.013   1.605  25.032  0.00  0.00    +0.005 A 
ATOM      6  C   UNL     1      -4.473   2.224  24.946  0.00  0.00    +0.018 A 
ATOM      7  C   UNL     1      -4.577   2.923  25.371  0.00  0.00    +0.005 A 
ATOM      8  C   UNL     1      -5.220   3.004  25.883  0.00  0.00    +0.037 A 
BRANCH   3   2
ATOM      1  C   UNL     1      -6.654   1.820  26.928  0.00  0.00    +0.252 C 
ATOM      2  O   UNL     1      -6.401   2.465  26.480  0.00  0.00    -0.471 OA
ENDBRANCH   3   2
ENDBRANCH   9   6
ENDBRANCH  15  14
BRANCH  19  23
ATOM     23  O   UNL     1       0.957  -0.034  22.636  0.00  0.00    -0.432 OA
BRANCH  23  24
ATOM     24  C   UNL     1       1.721  -0.101  22.940  0.00  0.00    +0.425 C 
ATOM     25  O   UNL     1       1.841  -0.439  23.683  0.00  0.00    -0.224 OA
ATOM     26  N   UNL     1       2.364   0.170  22.502  0.00  0.00    -0.142 NA
BRANCH  26  27
ATOM     27  C   UNL     1       3.129   0.104  22.806  0.00  0.00    +0.077 A 
ATOM     28  C   UNL     1       3.408  -0.627  23.066  0.00  0.00    +0.016 A 
ATOM     29  C   UNL     1       4.171  -0.693  23.370  0.00  0.00    -0.003 A 
ATOM     30  C   UNL     1       4.657  -0.028  23.414  0.00  0.00    -0.023 A 
ATOM     31  C   UNL     1       4.378   0.704  23.154  0.00  0.00    -0.003 A 
ATOM     32  C   UNL     1       3.614   0.770  22.850  0.00  0.00    +0.016 A 
BRANCH  30  33
ATOM     33  C   UNL     1       5.420  -0.093  23.717  0.00  0.00    +0.019 C 
ATOM     34  C   UNL     1       6.186  -0.158  24.021  0.00  0.00    +0.004 C 
ATOM     35  C   UNL     1       5.302  -0.900  23.844  0.00  0.00    +0.004 C 
ATOM     36  C   UNL     1       5.540   0.713  23.591  0.00  0.00    +0.004 C 
ENDBRANCH  30  33
ENDBRANCH  26  27
ENDBRANCH  23  24
ENDBRANCH  19  23
TORSDOF 7
ENDMDL
MODEL 2
REMARK VINA RESULT:      -8.8      1.260      7.996
REMARK  Name = 
REMARK  7 active torsions:
REMARK  status: ('A' for Active; 'I' for Inactive)
REMARK    1  A    between atoms: O_2  and  C_3
REMARK    2  A    between atoms: C_6  and  C_9
REMARK    3  A    between atoms: N_14  and  C_15
REMARK    4  A    between atoms: C_19  and  O_23
REMARK    5  A    between atoms: O_23  and  C_24
REMARK    6  A    between atoms: N_26  and  C_27
REMARK    7  A    between atoms: C_30  and  C_33
REMARK                            x       y       z     vdW  Elec       q    Type
REMARK                         _______ _______ _______ _____ _____    ______ ____
ROOT
ATOM     15  C   UNL     1      -0.030   0.550  23.763  0.00  0.00    +0.155 C 
ATOM     16  C   UNL     1      -0.432   0.870  23.118  0.00  0.00    +0.166 C 
ATOM     17  O   UNL     1      -1.236   0.713  23.217  0.00  0.00    -0.348 OA
ATOM     18  C   UNL     1      -1.330   0.297  23.922  0.00  0.00    +0.186 C 
ATOM     19  C   UNL     1      -1.885  -0.057  24.420  0.00  0.00    +0.229 C 
ATOM     20  C   UNL     1      -1.482  -0.376  25.065  0.00  0.00    +0.188 C 
ATOM     21  O   UNL     1      -0.678  -0.220  24.966  0.00  0.00    -0.348 OA
ATOM     22  C   UNL     1      -0.584   0.197  24.260  0.00  0.00    +0.168 C 
ENDROOT
BRANCH  15  14
ATOM      9  C   UNL     1       2.636   0.099  22.834  0.00  0.00    +0.086 A 
ATOM     10  C   UNL     1       2.338  -0.185  22.119  0.00  0.00    +0.040 A 
ATOM     11  C   UNL     1       1.523  -0.214  21.993  0.00  0.00    +0.103 A 
ATOM     12  N   UNL     1       1.005   0.041  22.583  0.00  0.00    -0.211 NA
ATOM     13  C   UNL     1       1.303   0.325  23.299  0.00  0.00    +0.237 A 
ATOM     14  N   UNL     1       0.785   0.579  23.888  0.00  0.00    -0.200 NA
ATOM     37  N   UNL     1       2.118   0.354  23.424  0.00  0.00    -0.212 NA
BRANCH   9   6
ATOM      3  C   UNL     1       5.081   0.185  23.210  0.00  0.00    +0.139 A 
ATOM      4  C   UNL     1       4.683   0.848  22.919  0.00  0.00    +0.037 A 
ATOM      5  C   UNL     1       3.869   0.819  22.794  0.00  0.00    +0.005 A 
ATOM      6  C   UNL     1       3.450   0.128  22.959  0.00  0.00    +0.018 A 
ATOM      7  C   UNL     1       3.846  -0.535  23.249  0.00  0.00    +0.005 A 
ATOM      8  C   UNL     1       4.662  -0.506  23.375  0.00  0.00    +0.037 A 
BRANCH   3   2
ATOM      1  C   UNL     1       6.235  -0.233  23.939  0.00  0.00    +0.252 C 
ATOM      2  O   UNL     1       5.895   0.214  23.335  0.00  0.00    -0.471 OA
ENDBRANCH   3   2
ENDBRANCH   9   6
ENDBRANCH  15  14
BRANCH  19  23
ATOM     23  O   UNL     1      -2.700  -0.086  24.295  0.00  0.00    -0.432 OA
BRANCH  23  24
ATOM     24  C   UNL     1      -3.192   0.478  24.643  0.00  0.00    +0.425 C 
ATOM     25  O   UNL     1      -3.132   0.634  25.451  0.00  0.00    -0.224 OA
ATOM     26  N   UNL     1      -3.743   0.884  24.185  0.00  0.00    -0.142 NA
BRANCH  26  27
ATOM     27  C   UNL     1      -4.235   1.448  24.533  0.00  0.00    +0.077 A 
ATOM     28  C   UNL     1      -4.924   1.212  24.919  0.00  0.00    +0.016 A 
ATOM     29  C   UNL     1      -5.416   1.775  25.267  0.00  0.00    -0.003 A 
ATOM     30  C   UNL     1      -5.218   2.575  25.230  0.00  0.00    -0.023 A 
ATOM     31  C   UNL     1      -4.528   2.812  24.844  0.00  0.00    -0.003 A 
ATOM     32  C   UNL     1      -4.037   2.248  24.496  0.00  0.00    +0.016 A 
BRANCH  30  33
ATOM     33  C   UNL     1      -5.709   3.138  25.578  0.00  0.00    +0.019 C 
ATOM     34  C   UNL     1      -6.201   3.703  25.927  0.00  0.00    +0.004 C 
ATOM     35  C   UNL     1      -5.200   3.738  25.328  0.00  0.00    +0.004 C 
ATOM     36  C   UNL     1      -6.218   2.540  25.828  0.00  0.00    +0.004 C 
ENDBRANCH  30  33
ENDBRANCH  26  27
ENDBRANCH  23  24
ENDBRANCH  19  23
TORSDOF 7
ENDMDL
MODEL 3
REMARK VINA RESULT:      -6.9     14.952     18.090
REMARK  Name = 
REMARK  7 active torsions:
REMARK  status: ('A' for Active; 'I' for Inactive)
REMARK    1  A    between atoms: O_2  and  C_3
REMARK    2  A    between atoms: C_6  and  C_9
REMARK    3  A    between atoms: N_14  and  C_15
REMARK    4  A    between atoms: C_19  and  O_23
REMARK    5  A    between atoms: O_23  and  C_24
REMARK    6  A    between atoms: N_26  and  C_27
REMARK    7  A    between atoms: C_30  and  C_33
REMARK                            x       y       z     vdW  Elec       q    Type
REMARK                         _______ _______ _______ _____ _____    ______ ____
ROOT
ATOM     15  C   UNL     1      13.465  -5.835  32.480  0.00  0.00    +0.155 C 
ATOM     16  C   UNL     1      13.829  -6.566  32.360  0.00  0.00    +0.166 C 
ATOM     17  O   UNL     1      13.248  -7.150  32.409  0.00  0.00    -0.348 OA
ATOM     18  C   UNL     1      12.527  -6.781  32.560  0.00  0.00    +0.186 C 
ATOM     19  C   UNL     1      11.722  -6.913  32.685  0.00  0.00    +0.229 C 
ATOM     20  C   UNL     1      11.359  -6.182  32.805  0.00  0.00    +0.188 C 
ATOM     21  O   UNL     1      11.939  -5.598  32.756  0.00  0.00    -0.348 OA
ATOM     22  C   UNL     1      12.661  -5.968  32.604  0.00  0.00    +0.168 C 
ENDROOT
BRANCH  15  14
ATOM      9  C   UNL     1      15.332  -4.014  31.310  0.00  0.00    +0.086 A 
ATOM     10  C   UNL     1      15.514  -4.573  30.731  0.00  0.00    +0.040 A 
ATOM     11  C   UNL     1      15.138  -5.307  30.734  0.00  0.00    +0.103 A 
ATOM     12  N   UNL     1      14.580  -5.484  31.316  0.00  0.00    -0.211 NA
ATOM     13  C   UNL     1      14.399  -4.924  31.895  0.00  0.00    +0.237 A 
ATOM     14  N   UNL     1      13.841  -5.101  32.477  0.00  0.00    -0.200 NA
ATOM     37  N   UNL     1      14.774  -4.190  31.892  0.00  0.00    -0.212 NA
BRANCH   9   6
ATOM      3  C   UNL     1      16.459  -1.811  31.302  0.00  0.00    +0.139 A 
ATOM      4  C   UNL     1      16.294  -2.193  30.589  0.00  0.00    +0.037 A 
ATOM      5  C   UNL     1      15.919  -2.927  30.592  0.00  0.00    +0.005 A 
ATOM      6  C   UNL     1      15.708  -3.280  31.307  0.00  0.00    +0.018 A 
ATOM      7  C   UNL     1      15.872  -2.898  32.020  0.00  0.00    +0.005 A 
ATOM      8  C   UNL     1      16.248  -2.164  32.017  0.00  0.00    +0.037 A 
BRANCH   3   2
ATOM      1  C   UNL     1      17.147  -0.770  31.998  0.00  0.00    +0.252 C 
ATOM      2  O   UNL     1      16.835  -1.077  31.298  0.00  0.00    -0.471 OA
ENDBRANCH   3   2
ENDBRANCH   9   6
ENDBRANCH  15  14
BRANCH  19  23
ATOM     23  O   UNL     1      11.346  -7.647  32.687  0.00  0.00    -0.432 OA
BRANCH  23  24
ATOM     24  C   UNL     1      10.567  -7.714  32.423  0.00  0.00    +0.425 C 
ATOM     25  O   UNL     1      10.317  -7.283  31.766  0.00  0.00    -0.224 OA
ATOM     26  N   UNL     1      10.039  -8.211  32.816  0.00  0.00    -0.142 NA
BRANCH  26  27
ATOM     27  C   UNL     1       9.260  -8.277  32.551  0.00  0.00    +0.077 A 
ATOM     28  C   UNL     1       9.068  -8.825  31.966  0.00  0.00    +0.016 A 
ATOM     29  C   UNL     1       8.290  -8.892  31.702  0.00  0.00    -0.003 A 
ATOM     30  C   UNL     1       7.703  -8.409  32.024  0.00  0.00    -0.023 A 
ATOM     31  C   UNL     1       7.895  -7.861  32.610  0.00  0.00    -0.003 A 
ATOM     32  C   UNL     1       8.673  -7.795  32.873  0.00  0.00    +0.016 A 
BRANCH  30  33
ATOM     33  C   UNL     1       6.925  -8.475  31.760  0.00  0.00    +0.019 C 
ATOM     34  C   UNL     1       6.145  -8.541  31.496  0.00  0.00    +0.004 C 
ATOM     35  C   UNL     1       6.654  -8.391  32.535  0.00  0.00    +0.004 C 
ATOM     36  C   UNL     1       7.194  -8.559  30.985  0.00  0.00    +0.004 C 
ENDBRANCH  30  33
ENDBRANCH  26  27
ENDBRANCH  23  24
ENDBRANCH  19  23
TORSDOF 7
ENDMDL
MODEL 4
REMARK VINA RESULT:      -6.3     15.050     18.325
REMARK  Name = 
REMARK  7 active torsions:
REMARK  status: ('A' for Active; 'I' for Inactive)
REMARK    1  A    between atoms: O_2  and  C_3
REMARK    2  A    between atoms: C_6  and  C_9
REMARK    3  A    between atoms: N_14  and  C_15
REMARK    4  A    between atoms: C_19  and  O_23
REMARK    5  A    between atoms: O_23  and  C_24
REMARK    6  A    between atoms: N_26  and  C_27
REMARK    7  A    between atoms: C_30  and  C_33
REMARK                            x       y       z     vdW  Elec       q    Type
REMARK                         _______ _______ _______ _____ _____    ______ ____
ROOT
ATOM     15  C   UNL     1      13.663  -7.104  30.435  0.00  0.00    +0.155 C 
ATOM     16  C   UNL     1      13.968  -7.676  30.944  0.00  0.00    +0.166 C 
ATOM     17  O   UNL     1      13.362  -7.917  31.450  0.00  0.00    -0.348 OA
ATOM     18  C   UNL     1      12.683  -7.494  31.253  0.00  0.00    +0.186 C 
ATOM     19  C   UNL     1      11.888  -7.380  31.443  0.00  0.00    +0.229 C 
ATOM     20  C   UNL     1      11.582  -6.808  30.934  0.00  0.00    +0.188 C 
ATOM     21  O   UNL     1      12.188  -6.568  30.428  0.00  0.00    -0.348 OA
ATOM     22  C   UNL     1      12.869  -6.992  30.626  0.00  0.00    +0.168 C 
ENDROOT
BRANCH  15  14
ATOM      9  C   UNL     1      15.520  -7.167  28.263  0.00  0.00    +0.086 A 
ATOM     10  C   UNL     1      15.617  -7.979  28.369  0.00  0.00    +0.040 A 
ATOM     11  C   UNL     1      15.200  -8.370  28.965  0.00  0.00    +0.103 A 
ATOM     12  N   UNL     1      14.688  -7.948  29.455  0.00  0.00    -0.211 NA
ATOM     13  C   UNL     1      14.592  -7.135  29.349  0.00  0.00    +0.237 A 
ATOM     14  N   UNL     1      14.079  -6.714  29.839  0.00  0.00    -0.200 NA
ATOM     37  N   UNL     1      15.007  -6.745  28.753  0.00  0.00    -0.212 NA
BRANCH   9   6
ATOM      3  C   UNL     1      16.768  -5.996  26.475  0.00  0.00    +0.139 A 
ATOM      4  C   UNL     1      17.002  -5.915  27.263  0.00  0.00    +0.037 A 
ATOM      5  C   UNL     1      16.586  -6.305  27.858  0.00  0.00    +0.005 A 
ATOM      6  C   UNL     1      15.936  -6.777  27.668  0.00  0.00    +0.018 A 
ATOM      7  C   UNL     1      15.702  -6.857  26.881  0.00  0.00    +0.005 A 
ATOM      8  C   UNL     1      16.118  -6.467  26.284  0.00  0.00    +0.037 A 
BRANCH   3   2
ATOM      1  C   UNL     1      17.130  -4.785  25.809  0.00  0.00    +0.252 C 
ATOM      2  O   UNL     1      17.184  -5.606  25.880  0.00  0.00    -0.471 OA
ENDBRANCH   3   2
ENDBRANCH   9   6
ENDBRANCH  15  14
BRANCH  19  23
ATOM     23  O   UNL     1      11.472  -7.771  32.039  0.00  0.00    -0.432 OA
BRANCH  23  24
ATOM     24  C   UNL     1      10.648  -7.727  32.065  0.00  0.00    +0.425 C 
ATOM     25  O   UNL     1      10.271  -7.000  31.963  0.00  0.00    -0.224 OA
ATOM     26  N   UNL     1      10.202  -8.408  32.192  0.00  0.00    -0.142 NA
BRANCH  26  27
ATOM     27  C   UNL     1       9.379  -8.364  32.218  0.00  0.00    +0.077 A 
ATOM     28  C   UNL     1       9.005  -7.986  32.848  0.00  0.00    +0.016 A 
ATOM     29  C   UNL     1       8.182  -7.941  32.873  0.00  0.00    -0.003 A 
ATOM     30  C   UNL     1       7.732  -8.276  32.268  0.00  0.00    -0.023 A 
ATOM     31  C   UNL     1       8.105  -8.655  31.637  0.00  0.00    -0.003 A 
ATOM     32  C   UNL     1       8.929  -8.698  31.612  0.00  0.00    +0.016 A 
BRANCH  30  33
ATOM     33  C   UNL     1       6.909  -8.232  32.293  0.00  0.00    +0.019 C 
ATOM     34  C   UNL     1       6.085  -8.189  32.318  0.00  0.00    +0.004 C 
ATOM     35  C   UNL     1       6.957  -7.435  32.503  0.00  0.00    +0.004 C 
ATOM     36  C   UNL     1       6.860  -9.028  32.083  0.00  0.00    +0.004 C 
ENDBRANCH  30  33
ENDBRANCH  26  27
ENDBRANCH  23  24
ENDBRANCH  19  23
TORSDOF 7
ENDMDL
MODEL 5
REMARK VINA RESULT:      -6.3      1.963      7.954
REMARK  Name = 
REMARK  7 active torsions:
REMARK  status: ('A' for Active; 'I' for Inactive)
REMARK    1  A    between atoms: O_2  and  C_3
REMARK    2  A    between atoms: C_6  and  C_9
REMARK    3  A    between atoms: N_14  and  C_15
REMARK    4  A    between atoms: C_19  and  O_23
REMARK    5  A    between atoms: O_23  and  C_24
REMARK    6  A    between atoms: N_26  and  C_27
REMARK    7  A    between atoms: C_30  and  C_33
REMARK                            x       y       z     vdW  Elec       q    Type
REMARK                         _______ _______ _______ _____ _____    ______ ____
ROOT
ATOM     15  C   UNL     1      -0.035   2.713  25.230  0.00  0.00    +0.155 C 
ATOM     16  C   UNL     1      -0.411   2.283  25.825  0.00  0.00    +0.166 C 
ATOM     17  O   UNL     1      -1.106   2.679  26.025  0.00  0.00    -0.348 OA
ATOM     18  C   UNL     1      -1.161   3.353  25.554  0.00  0.00    +0.186 C 
ATOM     19  C   UNL     1      -1.624   4.015  25.386  0.00  0.00    +0.229 C 
ATOM     20  C   UNL     1      -1.248   4.446  24.791  0.00  0.00    +0.188 C 
ATOM     21  O   UNL     1      -0.553   4.050  24.591  0.00  0.00    -0.348 OA
ATOM     22  C   UNL     1      -0.499   3.375  25.063  0.00  0.00    +0.168 C 
ENDROOT
BRANCH  15  14
ATOM      9  C   UNL     1       1.487   0.981  23.541  0.00  0.00    +0.086 A 
ATOM     10  C   UNL     1       0.821   0.508  23.425  0.00  0.00    +0.040 A 
ATOM     11  C   UNL     1       0.107   0.705  23.790  0.00  0.00    +0.103 A 
ATOM     12  N   UNL     1       0.059   1.375  24.270  0.00  0.00    -0.211 NA
ATOM     13  C   UNL     1       0.726   1.847  24.385  0.00  0.00    +0.237 A 
ATOM     14  N   UNL     1       0.679   2.517  24.865  0.00  0.00    -0.200 NA
ATOM     37  N   UNL     1       1.440   1.650  24.021  0.00  0.00    -0.212 NA
BRANCH   9   6
ATOM      3  C   UNL     1       3.628   0.390  22.448  0.00  0.00    +0.139 A 
ATOM      4  C   UNL     1       3.564   1.091  22.879  0.00  0.00    +0.037 A 
ATOM      5  C   UNL     1       2.851   1.288  23.243  0.00  0.00    +0.005 A 
ATOM      6  C   UNL     1       2.201   0.784  23.177  0.00  0.00    +0.018 A 
ATOM      7  C   UNL     1       2.264   0.083  22.747  0.00  0.00    +0.005 A 
ATOM      8  C   UNL     1       2.978  -0.114  22.382  0.00  0.00    +0.037 A 
BRANCH   3   2
ATOM      1  C   UNL     1       5.024   0.102  22.538  0.00  0.00    +0.252 C 
ATOM      2  O   UNL     1       4.341   0.193  22.084  0.00  0.00    -0.471 OA
ENDBRANCH   3   2
ENDBRANCH   9   6
ENDBRANCH  15  14
BRANCH  19  23
ATOM     23  O   UNL     1      -2.338   4.212  25.751  0.00  0.00    -0.432 OA
BRANCH  23  24
ATOM     24  C   UNL     1      -3.039   3.852  25.506  0.00  0.00    +0.425 C 
ATOM     25  O   UNL     1      -3.296   3.939  24.727  0.00  0.00    -0.224 OA
ATOM     26  N   UNL     1      -3.482   3.407  26.039  0.00  0.00    -0.142 NA
BRANCH  26  27
ATOM     27  C   UNL     1      -4.183   3.047  25.795  0.00  0.00    +0.077 A 
ATOM     28  C   UNL     1      -4.170   2.281  25.490  0.00  0.00    +0.016 A 
ATOM     29  C   UNL     1      -4.870   1.922  25.245  0.00  0.00    -0.003 A 
ATOM     30  C   UNL     1      -5.586   2.329  25.306  0.00  0.00    -0.023 A 
ATOM     31  C   UNL     1      -5.600   3.096  25.611  0.00  0.00    -0.003 A 
ATOM     32  C   UNL     1      -4.898   3.454  25.855  0.00  0.00    +0.016 A 
BRANCH  30  33
ATOM     33  C   UNL     1      -6.287   1.971  25.061  0.00  0.00    +0.019 C 
ATOM     34  C   UNL     1      -6.989   1.611  24.816  0.00  0.00    +0.004 C 
ATOM     35  C   UNL     1      -6.614   2.100  25.808  0.00  0.00    +0.004 C 
ATOM     36  C   UNL     1      -5.961   1.841  24.315  0.00  0.00    +0.004 C 
ENDBRANCH  30  33
ENDBRANCH  26  27
ENDBRANCH  23  24
ENDBRANCH  19  23
TORSDOF 7
ENDMDL
MODEL 6
REMARK VINA RESULT:      -5.8      2.294      7.549
REMARK  Name = 
REMARK  7 active torsions:
REMARK  status: ('A' for Active; 'I' for Inactive)
REMARK    1  A    between atoms: O_2  and  C_3
REMARK    2  A    between atoms: C_6  and  C_9
REMARK    3  A    between atoms: N_14  and  C_15
REMARK    4  A    between atoms: C_19  and  O_23
REMARK    5  A    between atoms: O_23  and  C_24
REMARK    6  A    between atoms: N_26  and  C_27
REMARK    7  A    between atoms: C_30  and  C_33
REMARK                            x       y       z     vdW  Elec       q    Type
REMARK                         _______ _______ _______ _____ _____    ______ ____
ROOT
ATOM     15  C   UNL     1       0.387   1.566  23.984  0.00  0.00    +0.155 C 
ATOM     16  C   UNL     1      -0.081   1.683  23.315  0.00  0.00    +0.166 C 
ATOM     17  O   UNL     1      -0.871   1.671  23.552  0.00  0.00    -0.348 OA
ATOM     18  C   UNL     1      -0.892   1.547  24.366  0.00  0.00    +0.186 C 
ATOM     19  C   UNL     1      -1.392   1.462  25.017  0.00  0.00    +0.229 C 
ATOM     20  C   UNL     1      -0.924   1.346  25.686  0.00  0.00    +0.188 C 
ATOM     21  O   UNL     1      -0.134   1.358  25.449  0.00  0.00    -0.348 OA
ATOM     22  C   UNL     1      -0.114   1.482  24.634  0.00  0.00    +0.168 C 
ENDROOT
BRANCH  15  14
ATOM      9  C   UNL     1       2.842   0.396  23.106  0.00  0.00    +0.086 A 
ATOM     10  C   UNL     1       2.421  -0.134  22.635  0.00  0.00    +0.040 A 
ATOM     11  C   UNL     1       1.596  -0.106  22.618  0.00  0.00    +0.103 A 
ATOM     12  N   UNL     1       1.193   0.451  23.074  0.00  0.00    -0.211 NA
ATOM     13  C   UNL     1       1.615   0.981  23.545  0.00  0.00    +0.237 A 
ATOM     14  N   UNL     1       1.211   1.539  24.000  0.00  0.00    -0.200 NA
ATOM     37  N   UNL     1       2.439   0.954  23.561  0.00  0.00    -0.212 NA
BRANCH   9   6
ATOM      3  C   UNL     1       5.316   0.313  23.154  0.00  0.00    +0.139 A 
ATOM      4  C   UNL     1       4.875  -0.310  23.468  0.00  0.00    +0.037 A 
ATOM      5  C   UNL     1       4.051  -0.282  23.452  0.00  0.00    +0.005 A 
ATOM      6  C   UNL     1       3.666   0.368  23.122  0.00  0.00    +0.018 A 
ATOM      7  C   UNL     1       4.106   0.992  22.808  0.00  0.00    +0.005 A 
ATOM      8  C   UNL     1       4.930   0.964  22.824  0.00  0.00    +0.037 A 
BRANCH   3   2
ATOM      1  C   UNL     1       6.523  -0.348  23.533  0.00  0.00    +0.252 C 
ATOM      2  O   UNL     1       6.139   0.286  23.170  0.00  0.00    -0.471 OA
ENDBRANCH   3   2
ENDBRANCH   9   6
ENDBRANCH  15  14
BRANCH  19  23
ATOM     23  O   UNL     1      -2.217   1.490  25.001  0.00  0.00    -0.432 OA
BRANCH  23  24
ATOM     24  C   UNL     1      -2.646   0.844  24.718  0.00  0.00    +0.425 C 
ATOM     25  O   UNL     1      -3.093   0.917  24.029  0.00  0.00    -0.224 OA
ATOM     26  N   UNL     1      -2.629   0.127  25.124  0.00  0.00    -0.142 NA
BRANCH  26  27
ATOM     27  C   UNL     1      -3.058  -0.518  24.842  0.00  0.00    +0.077 A 
ATOM     28  C   UNL     1      -3.881  -0.488  24.818  0.00  0.00    +0.016 A 
ATOM     29  C   UNL     1      -4.310  -1.133  24.535  0.00  0.00    -0.003 A 
ATOM     30  C   UNL     1      -3.915  -1.810  24.276  0.00  0.00    -0.023 A 
ATOM     31  C   UNL     1      -3.091  -1.840  24.300  0.00  0.00    -0.003 A 
ATOM     32  C   UNL     1      -2.663  -1.195  24.583  0.00  0.00    +0.016 A 
BRANCH  30  33
ATOM     33  C   UNL     1      -4.343  -2.455  23.994  0.00  0.00    +0.019 C 
ATOM     34  C   UNL     1      -4.772  -3.102  23.711  0.00  0.00    +0.004 C 
ATOM     35  C   UNL     1      -4.810  -1.947  23.540  0.00  0.00    +0.004 C 
ATOM     36  C   UNL     1      -3.877  -2.962  24.448  0.00  0.00    +0.004 C 
ENDBRANCH  30  33
ENDBRANCH  26  27
ENDBRANCH  23  24
ENDBRANCH  19  23
TORSDOF 7
ENDMDL
