MODEL 1
REMARK VINA RESULT:     -10.2      0.000      0.000
REMARK  Name = 
REMARK  6 active torsions:
REMARK  status: ('A' for Active; 'I' for Inactive)
REMARK    1  A    between atoms: C_1  and  N_2
REMARK    2  A    between atoms: C_1  and  C_19
REMARK    3  A    between atoms: N_2  and  C_3
REMARK    4  A    between atoms: C_3  and  C_4
REMARK    5  A    between atoms: C_4  and  C_5
REMARK    6  A    between atoms: C_8  and  C_10
REMARK                            x       y       z     vdW  Elec       q    Type
REMARK                         _______ _______ _______ _____ _____    ______ ____
ROOT
ATOM      4  C   UNL     1      -4.173   1.926  24.455  0.00  0.00    +0.070 C 
ENDROOT
BRANCH   4   5
ATOM      5  C   UNL     1      -4.257   1.151  24.724  0.00  0.00    +0.102 A 
ATOM      6  N   UNL     1      -4.688   0.911  25.385  0.00  0.00    -0.081 NA
ATOM      7  O   UNL     1      -4.622   0.091  25.448  0.00  0.00    -0.352 OA
ATOM      8  C   UNL     1      -4.150  -0.176  24.826  0.00  0.00    +0.194 A 
ATOM      9  C   UNL     1      -3.924   0.479  24.379  0.00  0.00    +0.060 A 
BRANCH   8  10
ATOM     10  C   UNL     1      -3.940  -0.960  24.678  0.00  0.00    +0.118 A 
ATOM     11  N   UNL     1      -3.366  -1.328  25.144  0.00  0.00    -0.241 NA
ATOM     12  C   UNL     1      -3.157  -2.112  24.995  0.00  0.00    +0.099 A 
ATOM     13  C   UNL     1      -3.520  -2.528  24.382  0.00  0.00    +0.021 A 
ATOM     14  C   UNL     1      -4.093  -2.159  23.917  0.00  0.00    +0.003 A 
ATOM     15  C   UNL     1      -4.303  -1.375  24.065  0.00  0.00    +0.022 A 
ENDBRANCH   8  10
ENDBRANCH   4   5
BRANCH   4   3
ATOM      3  C   UNL     1      -4.413   2.556  24.931  0.00  0.00    +0.120 C 
ATOM     16  C   UNL     1      -4.653   3.185  25.407  0.00  0.00    +0.161 C 
ATOM     17  O   UNL     1      -5.438   3.048  25.194  0.00  0.00    -0.351 OA
ATOM     18  C   UNL     1      -5.198   2.417  24.718  0.00  0.00    +0.161 C 
BRANCH   3   2
ATOM      2  N   UNL     1      -3.628   2.694  25.145  0.00  0.00    -0.207 NA
BRANCH   2   1
ATOM      1  C   UNL     1      -3.320   3.457  25.116  0.00  0.00    +0.153 C 
BRANCH   1  19
ATOM     19  C   UNL     1      -2.520   3.587  25.272  0.00  0.00    +0.141 A 
ATOM     20  C   UNL     1      -2.068   4.221  24.998  0.00  0.00    +0.038 A 
ATOM     21  C   UNL     1      -1.301   4.130  25.286  0.00  0.00    +0.043 A 
ATOM     22  C   UNL     1      -1.278   3.440  25.738  0.00  0.00    +0.179 A 
ATOM     23  O   UNL     1      -2.031   3.105  25.729  0.00  0.00    -0.453 OA
ENDBRANCH   1  19
ENDBRANCH   2   1
ENDBRANCH   3   2
ENDBRANCH   4   3
TORSDOF 6
ENDMDL
MODEL 2
REMARK VINA RESULT:      -9.9      0.992      4.437
REMARK  Name = 
REMARK  6 active torsions:
REMARK  status: ('A' for Active; 'I' for Inactive)
REMARK    1  A    between atoms: C_1  and  N_2
REMARK    2  A    between atoms: C_1  and  C_19
REMARK    3  A    between atoms: N_2  and  C_3
REMARK    4  A    between atoms: C_3  and  C_4
REMARK    5  A    between atoms: C_4  and  C_5
REMARK    6  A    between atoms: C_8  and  C_10
REMARK                            x       y       z     vdW  Elec       q    Type
REMARK                         _______ _______ _______ _____ _____    ______ ____
ROOT
ATOM      4  C   UNL     1      -4.422   2.189  24.536  0.00  0.00    +0.070 C 
ENDROOT
BRANCH   4   5
ATOM      5  C   UNL     1      -3.926   2.733  24.908  0.00  0.00    +0.102 A 
ATOM      6  N   UNL     1      -4.077   3.121  25.620  0.00  0.00    -0.081 NA
ATOM      7  O   UNL     1      -3.436   3.613  25.785  0.00  0.00    -0.352 OA
ATOM      8  C   UNL     1      -2.887   3.529  25.174  0.00  0.00    +0.194 A 
ATOM      9  C   UNL     1      -3.190   2.986  24.632  0.00  0.00    +0.060 A 
BRANCH   8  10
ATOM     10  C   UNL     1      -2.163   3.920  25.115  0.00  0.00    +0.118 A 
ATOM     11  N   UNL     1      -1.469   3.488  25.003  0.00  0.00    -0.241 NA
ATOM     12  C   UNL     1      -0.745   3.879  24.944  0.00  0.00    +0.099 A 
ATOM     13  C   UNL     1      -0.715   4.701  24.997  0.00  0.00    +0.021 A 
ATOM     14  C   UNL     1      -1.409   5.133  25.108  0.00  0.00    +0.003 A 
ATOM     15  C   UNL     1      -2.133   4.742  25.167  0.00  0.00    +0.022 A 
ENDBRANCH   8  10
ENDBRANCH   4   5
BRANCH   4   3
ATOM      3  C   UNL     1      -5.002   1.795  24.973  0.00  0.00    +0.120 C 
ATOM     16  C   UNL     1      -5.581   1.401  25.408  0.00  0.00    +0.161 C 
ATOM     17  O   UNL     1      -6.080   2.054  25.336  0.00  0.00    -0.351 OA
ATOM     18  C   UNL     1      -5.500   2.449  24.900  0.00  0.00    +0.161 C 
BRANCH   3   2
ATOM      2  N   UNL     1      -4.502   1.142  25.045  0.00  0.00    -0.207 NA
BRANCH   2   1
ATOM      1  C   UNL     1      -4.781   0.387  24.865  0.00  0.00    +0.153 C 
BRANCH   1  19
ATOM     19  C   UNL     1      -4.275  -0.263  24.914  0.00  0.00    +0.141 A 
ATOM     20  C   UNL     1      -4.099  -0.789  24.302  0.00  0.00    +0.038 A 
ATOM     21  C   UNL     1      -3.572  -1.351  24.595  0.00  0.00    +0.043 A 
ATOM     22  C   UNL     1      -3.422  -1.174  25.386  0.00  0.00    +0.179 A 
ATOM     23  O   UNL     1      -3.856  -0.501  25.583  0.00  0.00    -0.453 OA
ENDBRANCH   1  19
ENDBRANCH   2   1
ENDBRANCH   3   2
ENDBRANCH   4   3
TORSDOF 6
ENDMDL
MODEL 3
REMARK VINA RESULT:      -9.2      2.222      5.367
REMARK  Name = 
REMARK  6 active torsions:
REMARK  status: ('A' for Active; 'I' for Inactive)
REMARK    1  A    between atoms: C_1  and  N_2
REMARK    2  A    between atoms: C_1  and  C_19
REMARK    3  A    between atoms: N_2  and  C_3
REMARK    4  A    between atoms: C_3  and  C_4
REMARK    5  A    between atoms: C_4  and  C_5
REMARK    6  A    between atoms: C_8  and  C_10
REMARK                            x       y       z     vdW  Elec       q    Type
REMARK                         _______ _______ _______ _____ _____    ______ ____
ROOT
ATOM      4  C   UNL     1      -1.309   0.528  24.211  0.00  0.00    +0.070 C 
ENDROOT
BRANCH   4   5
ATOM      5  C   UNL     1      -1.206   1.192  24.688  0.00  0.00    +0.102 A 
ATOM      6  N   UNL     1      -0.826   1.211  25.420  0.00  0.00    -0.081 NA
ATOM      7  O   UNL     1      -0.850   1.987  25.701  0.00  0.00    -0.352 OA
ATOM      8  C   UNL     1      -1.245   2.448  25.142  0.00  0.00    +0.194 A 
ATOM      9  C   UNL     1      -1.465   1.957  24.517  0.00  0.00    +0.060 A 
BRANCH   8  10
ATOM     10  C   UNL     1      -1.395   3.257  25.199  0.00  0.00    +0.118 A 
ATOM     11  N   UNL     1      -2.119   3.523  25.493  0.00  0.00    -0.241 NA
ATOM     12  C   UNL     1      -2.268   4.332  25.550  0.00  0.00    +0.099 A 
ATOM     13  C   UNL     1      -1.694   4.875  25.314  0.00  0.00    +0.021 A 
ATOM     14  C   UNL     1      -0.971   4.609  25.020  0.00  0.00    +0.003 A 
ATOM     15  C   UNL     1      -0.821   3.800  24.963  0.00  0.00    +0.022 A 
ENDBRANCH   8  10
ENDBRANCH   4   5
BRANCH   4   3
ATOM      3  C   UNL     1      -0.868  -0.155  24.355  0.00  0.00    +0.120 C 
ATOM     16  C   UNL     1      -0.428  -0.838  24.499  0.00  0.00    +0.161 C 
ATOM     17  O   UNL     1       0.227  -0.492  24.136  0.00  0.00    -0.351 OA
ATOM     18  C   UNL     1      -0.213   0.191  23.992  0.00  0.00    +0.161 C 
BRANCH   3   2
ATOM      2  N   UNL     1      -1.524  -0.501  24.718  0.00  0.00    -0.207 NA
BRANCH   2   1
ATOM      1  C   UNL     1      -1.752  -1.267  24.517  0.00  0.00    +0.153 C 
BRANCH   1  19
ATOM     19  C   UNL     1      -2.473  -1.567  24.782  0.00  0.00    +0.141 A 
ATOM     20  C   UNL     1      -3.002  -2.020  24.340  0.00  0.00    +0.038 A 
ATOM     21  C   UNL     1      -3.648  -2.199  24.822  0.00  0.00    +0.043 A 
ATOM     22  C   UNL     1      -3.518  -1.856  25.560  0.00  0.00    +0.179 A 
ATOM     23  O   UNL     1      -2.792  -1.465  25.536  0.00  0.00    -0.453 OA
ENDBRANCH   1  19
ENDBRANCH   2   1
ENDBRANCH   3   2
ENDBRANCH   4   3
TORSDOF 6
ENDMDL
MODEL 4
REMARK VINA RESULT:      -9.1      1.828      2.838
REMARK  Name = 
REMARK  6 active torsions:
REMARK  status: ('A' for Active; 'I' for Inactive)
REMARK    1  A    between atoms: C_1  and  N_2
REMARK    2  A    between atoms: C_1  and  C_19
REMARK    3  A    between atoms: N_2  and  C_3
REMARK    4  A    between atoms: C_3  and  C_4
REMARK    5  A    between atoms: C_4  and  C_5
REMARK    6  A    between atoms: C_8  and  C_10
REMARK                            x       y       z     vdW  Elec       q    Type
REMARK                         _______ _______ _______ _____ _____    ______ ____
ROOT
ATOM      4  C   UNL     1      -1.073   1.470  24.776  0.00  0.00    +0.070 C 
ENDROOT
BRANCH   4   5
ATOM      5  C   UNL     1      -1.276   0.730  25.078  0.00  0.00    +0.102 A 
ATOM      6  N   UNL     1      -0.978   0.387  25.766  0.00  0.00    -0.081 NA
ATOM      7  O   UNL     1      -1.332  -0.353  25.857  0.00  0.00    -0.352 OA
ATOM      8  C   UNL     1      -1.850  -0.467  25.225  0.00  0.00    +0.194 A 
ATOM      9  C   UNL     1      -1.816   0.202  24.744  0.00  0.00    +0.060 A 
BRANCH   8  10
ATOM     10  C   UNL     1      -2.320  -1.133  25.097  0.00  0.00    +0.118 A 
ATOM     11  N   UNL     1      -2.039  -1.751  24.627  0.00  0.00    -0.241 NA
ATOM     12  C   UNL     1      -2.508  -2.417  24.499  0.00  0.00    +0.099 A 
ATOM     13  C   UNL     1      -3.258  -2.465  24.840  0.00  0.00    +0.021 A 
ATOM     14  C   UNL     1      -3.539  -1.847  25.308  0.00  0.00    +0.003 A 
ATOM     15  C   UNL     1      -3.069  -1.181  25.437  0.00  0.00    +0.022 A 
ENDBRANCH   8  10
ENDBRANCH   4   5
BRANCH   4   3
ATOM      3  C   UNL     1      -0.689   2.020  25.258  0.00  0.00    +0.120 C 
ATOM     16  C   UNL     1      -0.305   2.569  25.739  0.00  0.00    +0.161 C 
ATOM     17  O   UNL     1       0.421   2.219  25.560  0.00  0.00    -0.351 OA
ATOM     18  C   UNL     1       0.037   1.670  25.079  0.00  0.00    +0.161 C 
BRANCH   3   2
ATOM      2  N   UNL     1      -1.414   2.370  25.437  0.00  0.00    -0.207 NA
BRANCH   2   1
ATOM      1  C   UNL     1      -1.519   3.180  25.331  0.00  0.00    +0.153 C 
BRANCH   1  19
ATOM     19  C   UNL     1      -2.267   3.516  25.427  0.00  0.00    +0.141 A 
ATOM     20  C   UNL     1      -2.546   3.895  26.104  0.00  0.00    +0.038 A 
ATOM     21  C   UNL     1      -3.318   4.145  25.956  0.00  0.00    +0.043 A 
ATOM     22  C   UNL     1      -3.516   3.920  25.188  0.00  0.00    +0.179 A 
ATOM     23  O   UNL     1      -2.867   3.531  24.860  0.00  0.00    -0.453 OA
ENDBRANCH   1  19
ENDBRANCH   2   1
ENDBRANCH   3   2
ENDBRANCH   4   3
TORSDOF 6
ENDMDL
