REMARK  Name = 
REMARK  4 active torsions:
REMARK  status: ('A' for Active; 'I' for Inactive)
REMARK    1  A    between atoms: C_2  and  C_15
REMARK    2  A    between atoms: N_3  and  C_4
REMARK    3  A    between atoms: C_4  and  C_5
REMARK    4  A    between atoms: C_12  and  C_13
REMARK                            x       y       z     vdW  Elec       q    Type
REMARK                         _______ _______ _______ _____ _____    ______ ____
ROOT
ATOM      5  C   UNL     1       1.814  -2.106   0.000  0.00  0.00    +0.079 C 
ATOM      6  C   UNL     1       1.661  -1.343   0.000  0.00  0.00    +0.019 C 
ATOM      7  C   UNL     1       0.923  -1.010   0.000  0.00  0.00    +0.016 C 
ATOM      8  C   UNL     1       0.961  -0.114   0.000  0.00  0.00    +0.018 C 
ATOM      9  C   UNL     1       1.205  -0.720   0.000  0.00  0.00    +0.072 C 
ATOM     10  N   UNL     1       1.065  -1.759   0.000  0.00  0.00    -0.271 NA
ATOM     11  C   UNL     1       0.226  -2.118   0.000  0.00  0.00    +0.085 C 
ATOM     12  C   UNL     1       0.119  -1.362   0.000  0.00  0.00    +0.081 C 
ENDROOT
BRANCH  12  13
ATOM     13  C   UNL     1      -0.602  -0.960   0.000  0.00  0.00    -0.078 C 
ATOM     14  C   UNL     1      -1.322  -0.559   0.000  0.00  0.00    -0.014 C 
ENDBRANCH  12  13
BRANCH   5   4
ATOM      4  C   UNL     1       2.324  -2.754   0.000  0.00  0.00    +0.131 C 
BRANCH   4   3
ATOM      1  O   UNL     1       3.345  -4.050   0.000  0.00  0.00    -0.265 OA
ATOM      2  C   UNL     1       2.529  -4.168   0.000  0.00  0.00    +0.300 C 
ATOM      3  N   UNL     1       2.018  -3.520   0.000  0.00  0.00    -0.198 NA
BRANCH   2  15
ATOM     15  C   UNL     1       2.223  -4.934   0.000  0.00  0.00    +0.200 A 
ATOM     16  C   UNL     1       2.663  -5.632   0.000  0.00  0.00    +0.046 A 
ATOM     17  C   UNL     1       2.135  -6.266   0.000  0.00  0.00    +0.044 A 
ATOM     18  C   UNL     1       1.369  -5.960   0.000  0.00  0.00    +0.180 A 
ATOM     19  O   UNL     1       1.423  -5.137   0.000  0.00  0.00    -0.446 OA
ENDBRANCH   2  15
ENDBRANCH   4   3
ENDBRANCH   5   4
TORSDOF 4
