MODEL 1
REMARK VINA RESULT:     -11.6      0.000      0.000
REMARK  Name = 
REMARK  9 active torsions:
REMARK  status: ('A' for Active; 'I' for Inactive)
REMARK    1  A    between atoms: N_2  and  C_3
REMARK    2  A    between atoms: N_2  and  C_23
REMARK    3  A    between atoms: C_3  and  C_4
REMARK    4  A    between atoms: C_6  and  C_7
REMARK    5  A    between atoms: C_7  and  C_8
REMARK    6  A    between atoms: C_8  and  N_12
REMARK    7  A    between atoms: N_12  and  C_13
REMARK    8  A    between atoms: C_13  and  C_14
REMARK    9  A    between atoms: C_23  and  C_24
REMARK                            x       y       z     vdW  Elec       q    Type
REMARK                         _______ _______ _______ _____ _____    ______ ____
ROOT
ATOM      4  C   UNL     1      -4.306   1.173  24.329  0.00  0.00    +0.170 A 
ATOM      5  C   UNL     1      -3.879   1.878  24.283  0.00  0.00    +0.055 A 
ATOM      6  C   UNL     1      -4.332   2.473  24.634  0.00  0.00    +0.102 A 
ATOM     21  N   UNL     1      -5.037   2.136  24.897  0.00  0.00    -0.082 NA
ATOM     22  O   UNL     1      -5.021   1.333  24.708  0.00  0.00    -0.357 OA
ENDROOT
BRANCH   4   3
ATOM      3  C   UNL     1      -4.060   0.439  24.046  0.00  0.00    +0.141 C 
BRANCH   3   2
ATOM      1  C   UNL     1      -2.862   0.009  24.695  0.00  0.00    +0.090 C 
ATOM      2  N   UNL     1      -3.668  -0.087  24.547  0.00  0.00    -0.261 NA
BRANCH   2  23
ATOM     23  C   UNL     1      -4.081  -0.707  24.899  0.00  0.00    +0.100 C 
BRANCH  23  24
ATOM     24  C   UNL     1      -3.905  -1.488  24.699  0.00  0.00    -0.006 A 
ATOM     25  C   UNL     1      -3.437  -1.945  25.202  0.00  0.00    -0.003 A 
ATOM     26  C   UNL     1      -3.260  -2.726  25.003  0.00  0.00    -0.000 A 
ATOM     27  C   UNL     1      -3.551  -3.049  24.301  0.00  0.00    -0.000 A 
ATOM     28  C   UNL     1      -4.019  -2.591  23.799  0.00  0.00    -0.000 A 
ATOM     29  C   UNL     1      -4.195  -1.811  23.998  0.00  0.00    -0.003 A 
ENDBRANCH  23  24
ENDBRANCH   2  23
ENDBRANCH   3   2
ENDBRANCH   4   3
BRANCH   6   7
ATOM      7  C   UNL     1      -4.115   3.266  24.709  0.00  0.00    +0.070 C 
BRANCH   7   8
ATOM      8  C   UNL     1      -4.022   3.599  25.457  0.00  0.00    +0.120 C 
ATOM      9  C   UNL     1      -3.929   3.932  26.207  0.00  0.00    +0.161 C 
ATOM     10  O   UNL     1      -4.748   4.012  26.272  0.00  0.00    -0.351 OA
ATOM     11  C   UNL     1      -4.841   3.679  25.524  0.00  0.00    +0.161 C 
BRANCH   8  12
ATOM     12  N   UNL     1      -3.204   3.518  25.392  0.00  0.00    -0.211 NA
BRANCH  12  13
ATOM     13  C   UNL     1      -2.715   4.170  25.521  0.00  0.00    +0.116 C 
BRANCH  13  14
ATOM     14  C   UNL     1      -1.899   4.099  25.421  0.00  0.00    +0.006 A 
ATOM     15  C   UNL     1      -1.521   3.391  25.612  0.00  0.00    -0.002 A 
ATOM     16  C   UNL     1      -0.705   3.319  25.512  0.00  0.00    -0.000 A 
ATOM     17  C   UNL     1      -0.267   3.955  25.221  0.00  0.00    +0.001 A 
ATOM     18  C   UNL     1      -0.645   4.663  25.030  0.00  0.00    +0.011 A 
ATOM     19  C   UNL     1      -1.461   4.734  25.130  0.00  0.00    +0.055 A 
ATOM     20 CL   UNL     1      -1.839   5.443  24.939  0.00  0.00    -0.083 Cl
ENDBRANCH  13  14
ENDBRANCH  12  13
ENDBRANCH   8  12
ENDBRANCH   7   8
ENDBRANCH   6   7
TORSDOF 9
ENDMDL
MODEL 2
REMARK VINA RESULT:     -11.0      1.904      3.075
REMARK  Name = 
REMARK  9 active torsions:
REMARK  status: ('A' for Active; 'I' for Inactive)
REMARK    1  A    between atoms: N_2  and  C_3
REMARK    2  A    between atoms: N_2  and  C_23
REMARK    3  A    between atoms: C_3  and  C_4
REMARK    4  A    between atoms: C_6  and  C_7
REMARK    5  A    between atoms: C_7  and  C_8
REMARK    6  A    between atoms: C_8  and  N_12
REMARK    7  A    between atoms: N_12  and  C_13
REMARK    8  A    between atoms: C_13  and  C_14
REMARK    9  A    between atoms: C_23  and  C_24
REMARK                            x       y       z     vdW  Elec       q    Type
REMARK                         _______ _______ _______ _____ _____    ______ ____
ROOT
ATOM      4  C   UNL     1      -0.996  -0.086  25.364  0.00  0.00    +0.170 A 
ATOM      5  C   UNL     1      -1.271   0.622  25.686  0.00  0.00    +0.055 A 
ATOM      6  C   UNL     1      -0.844   1.240  25.343  0.00  0.00    +0.102 A 
ATOM     21  N   UNL     1      -0.305   0.913  24.810  0.00  0.00    -0.082 NA
ATOM     22  O   UNL     1      -0.399   0.094  24.823  0.00  0.00    -0.357 OA
ENDROOT
BRANCH   4   3
ATOM      3  C   UNL     1      -1.270  -0.842  25.552  0.00  0.00    +0.141 C 
BRANCH   3   2
ATOM      1  C   UNL     1      -1.588  -1.565  24.362  0.00  0.00    +0.090 C 
ATOM      2  N   UNL     1      -1.826  -1.211  25.067  0.00  0.00    -0.261 NA
BRANCH   2  23
ATOM     23  C   UNL     1      -2.620  -1.225  25.289  0.00  0.00    +0.100 C 
BRANCH  23  24
ATOM     24  C   UNL     1      -3.170  -1.639  24.833  0.00  0.00    -0.006 A 
ATOM     25  C   UNL     1      -3.688  -1.227  24.339  0.00  0.00    -0.003 A 
ATOM     26  C   UNL     1      -4.237  -1.640  23.883  0.00  0.00    -0.000 A 
ATOM     27  C   UNL     1      -4.269  -2.464  23.920  0.00  0.00    -0.000 A 
ATOM     28  C   UNL     1      -3.751  -2.875  24.414  0.00  0.00    -0.000 A 
ATOM     29  C   UNL     1      -3.201  -2.462  24.870  0.00  0.00    -0.003 A 
ENDBRANCH  23  24
ENDBRANCH   2  23
ENDBRANCH   3   2
ENDBRANCH   4   3
BRANCH   6   7
ATOM      7  C   UNL     1      -0.939   2.043  25.505  0.00  0.00    +0.070 C 
BRANCH   7   8
ATOM      8  C   UNL     1      -0.998   2.584  24.886  0.00  0.00    +0.120 C 
ATOM      9  C   UNL     1      -1.057   3.126  24.265  0.00  0.00    +0.161 C 
ATOM     10  O   UNL     1      -0.234   3.172  24.228  0.00  0.00    -0.351 OA
ATOM     11  C   UNL     1      -0.175   2.631  24.848  0.00  0.00    +0.161 C 
BRANCH   8  12
ATOM     12  N   UNL     1      -1.821   2.538  24.922  0.00  0.00    -0.211 NA
BRANCH  12  13
ATOM     13  C   UNL     1      -2.266   3.220  25.054  0.00  0.00    +0.116 C 
BRANCH  13  14
ATOM     14  C   UNL     1      -3.090   3.178  25.068  0.00  0.00    +0.006 A 
ATOM     15  C   UNL     1      -3.485   2.672  24.550  0.00  0.00    -0.002 A 
ATOM     16  C   UNL     1      -4.309   2.630  24.563  0.00  0.00    -0.000 A 
ATOM     17  C   UNL     1      -4.737   3.092  25.094  0.00  0.00    +0.001 A 
ATOM     18  C   UNL     1      -4.342   3.599  25.612  0.00  0.00    +0.011 A 
ATOM     19  C   UNL     1      -3.518   3.641  25.599  0.00  0.00    +0.055 A 
ATOM     20 CL   UNL     1      -3.123   4.147  26.117  0.00  0.00    -0.083 Cl
ENDBRANCH  13  14
ENDBRANCH  12  13
ENDBRANCH   8  12
ENDBRANCH   7   8
ENDBRANCH   6   7
TORSDOF 9
ENDMDL
MODEL 3
REMARK VINA RESULT:     -10.3      2.793      6.043
REMARK  Name = 
REMARK  9 active torsions:
REMARK  status: ('A' for Active; 'I' for Inactive)
REMARK    1  A    between atoms: N_2  and  C_3
REMARK    2  A    between atoms: N_2  and  C_23
REMARK    3  A    between atoms: C_3  and  C_4
REMARK    4  A    between atoms: C_6  and  C_7
REMARK    5  A    between atoms: C_7  and  C_8
REMARK    6  A    between atoms: C_8  and  N_12
REMARK    7  A    between atoms: N_12  and  C_13
REMARK    8  A    between atoms: C_13  and  C_14
REMARK    9  A    between atoms: C_23  and  C_24
REMARK                            x       y       z     vdW  Elec       q    Type
REMARK                         _______ _______ _______ _____ _____    ______ ____
ROOT
ATOM      4  C   UNL     1      -0.138   1.340  24.165  0.00  0.00    +0.170 A 
ATOM      5  C   UNL     1      -0.737   0.771  24.181  0.00  0.00    +0.055 A 
ATOM      6  C   UNL     1      -0.387   0.031  24.076  0.00  0.00    +0.102 A 
ATOM     21  N   UNL     1       0.426   0.141  23.994  0.00  0.00    -0.082 NA
ATOM     22  O   UNL     1       0.580   0.950  24.049  0.00  0.00    -0.357 OA
ENDROOT
BRANCH   4   3
ATOM      3  C   UNL     1      -0.242   2.154  24.249  0.00  0.00    +0.141 C 
BRANCH   3   2
ATOM      1  C   UNL     1      -0.042   2.449  25.633  0.00  0.00    +0.090 C 
ATOM      2  N   UNL     1      -0.521   2.463  24.961  0.00  0.00    -0.261 NA
BRANCH   2  23
ATOM     23  C   UNL     1      -1.278   2.786  25.001  0.00  0.00    +0.100 C 
BRANCH  23  24
ATOM     24  C   UNL     1      -1.377   3.601  25.087  0.00  0.00    -0.006 A 
ATOM     25  C   UNL     1      -2.016   3.895  25.519  0.00  0.00    -0.003 A 
ATOM     26  C   UNL     1      -2.115   4.709  25.606  0.00  0.00    -0.000 A 
ATOM     27  C   UNL     1      -1.575   5.229  25.261  0.00  0.00    -0.000 A 
ATOM     28  C   UNL     1      -0.936   4.935  24.829  0.00  0.00    -0.000 A 
ATOM     29  C   UNL     1      -0.837   4.121  24.743  0.00  0.00    -0.003 A 
ENDBRANCH  23  24
ENDBRANCH   2  23
ENDBRANCH   3   2
ENDBRANCH   4   3
BRANCH   6   7
ATOM      7  C   UNL     1      -0.783  -0.693  24.056  0.00  0.00    +0.070 C 
BRANCH   7   8
ATOM      8  C   UNL     1      -0.938  -1.097  24.757  0.00  0.00    +0.120 C 
ATOM      9  C   UNL     1      -1.094  -1.502  25.460  0.00  0.00    +0.161 C 
ATOM     10  O   UNL     1      -0.288  -1.657  25.549  0.00  0.00    -0.351 OA
ATOM     11  C   UNL     1      -0.133  -1.253  24.847  0.00  0.00    +0.161 C 
BRANCH   8  12
ATOM     12  N   UNL     1      -1.744  -0.942  24.669  0.00  0.00    -0.211 NA
BRANCH  12  13
ATOM     13  C   UNL     1      -2.284  -1.566  24.658  0.00  0.00    +0.116 C 
BRANCH  13  14
ATOM     14  C   UNL     1      -3.079  -1.419  24.493  0.00  0.00    +0.006 A 
ATOM     15  C   UNL     1      -3.392  -0.665  24.615  0.00  0.00    -0.002 A 
ATOM     16  C   UNL     1      -4.187  -0.518  24.450  0.00  0.00    -0.000 A 
ATOM     17  C   UNL     1      -4.668  -1.123  24.164  0.00  0.00    +0.001 A 
ATOM     18  C   UNL     1      -4.355  -1.876  24.041  0.00  0.00    +0.011 A 
ATOM     19  C   UNL     1      -3.560  -2.023  24.206  0.00  0.00    +0.055 A 
ATOM     20 CL   UNL     1      -3.247  -2.777  24.083  0.00  0.00    -0.083 Cl
ENDBRANCH  13  14
ENDBRANCH  12  13
ENDBRANCH   8  12
ENDBRANCH   7   8
ENDBRANCH   6   7
TORSDOF 9
ENDMDL
