REMARK  Name = 
REMARK  4 active torsions:
REMARK  status: ('A' for Active; 'I' for Inactive)
REMARK    1  A    between atoms: O_2  and  C_3
REMARK    2  A    between atoms: C_5  and  C_9
REMARK    3  A    between atoms: N_11  and  C_12
REMARK    4  A    between atoms: C_18  and  C_19
REMARK                            x       y       z     vdW  Elec       q    Type
REMARK                         _______ _______ _______ _____ _____    ______ ____
ROOT
ATOM     12  C   UNL     1       0.715  -1.238   0.000  0.00  0.00    +0.133 C 
ATOM     13  C   UNL     1       1.382  -1.722   0.000  0.00  0.00    +0.202 C 
ATOM     14  O   UNL     1       2.167  -1.468   0.000  0.00  0.00    -0.219 OA
ATOM     15  C   UNL     1       1.127  -2.507   0.000  0.00  0.00    +0.184 C 
ATOM     16  O   UNL     1       1.612  -3.175   0.000  0.00  0.00    -0.220 OA
ATOM     17  C   UNL     1       0.302  -2.507   0.000  0.00  0.00    +0.042 C 
ATOM     18  C   UNL     1       0.047  -1.722   0.000  0.00  0.00    +0.049 C 
ENDROOT
BRANCH  18  19
ATOM     19  C   UNL     1      -0.738  -1.468   0.000  0.00  0.00    -0.002 A 
ATOM     20  C   UNL     1      -1.351  -2.019   0.000  0.00  0.00    -0.001 A 
ATOM     21  C   UNL     1      -2.135  -1.765   0.000  0.00  0.00    +0.020 A 
ATOM     22  C   UNL     1      -2.307  -0.958   0.000  0.00  0.00    +0.099 A 
ATOM     23  N   UNL     1      -1.694  -0.406   0.000  0.00  0.00    -0.243 NA
ATOM     24  C   UNL     1      -0.909  -0.660   0.000  0.00  0.00    +0.095 A 
ENDBRANCH  18  19
BRANCH  12  11
ATOM      9  C   UNL     1       1.429   0.000   0.000  0.00  0.00    +0.265 C 
ATOM     10  O   UNL     1       2.143  -0.412   0.000  0.00  0.00    -0.268 OA
ATOM     11  N   UNL     1       0.715  -0.412   0.000  0.00  0.00    -0.200 NA
BRANCH   9   5
ATOM      3  C   UNL     1       2.143   2.062   0.000  0.00  0.00    +0.139 A 
ATOM      4  C   UNL     1       2.143   1.238   0.000  0.00  0.00    +0.041 A 
ATOM      5  C   UNL     1       1.429   0.825   0.000  0.00  0.00    +0.058 A 
ATOM      6  C   UNL     1       0.715   1.238   0.000  0.00  0.00    +0.005 A 
ATOM      7  C   UNL     1       0.715   2.062   0.000  0.00  0.00    +0.003 A 
ATOM      8  C   UNL     1       1.429   2.475   0.000  0.00  0.00    +0.037 A 
BRANCH   3   2
ATOM      1  C   UNL     1       2.858   3.300   0.000  0.00  0.00    +0.252 C 
ATOM      2  O   UNL     1       2.858   2.475   0.000  0.00  0.00    -0.471 OA
ENDBRANCH   3   2
ENDBRANCH   9   5
ENDBRANCH  12  11
TORSDOF 4
