REMARK  Name = 
REMARK  6 active torsions:
REMARK  status: ('A' for Active; 'I' for Inactive)
REMARK    1  A    between atoms: O_2  and  C_3
REMARK    2  A    between atoms: C_5  and  O_6
REMARK    3  A    between atoms: C_8  and  C_11
REMARK    4  A    between atoms: C_20  and  N_25
REMARK    5  A    between atoms: N_25  and  S_26
REMARK    6  A    between atoms: S_26  and  C_29
REMARK                            x       y       z     vdW  Elec       q    Type
REMARK                         _______ _______ _______ _____ _____    ______ ____
ROOT
ATOM     11  C   UNL     1       5.671   1.585   0.000  0.00  0.00    +0.003 A 
ATOM     12  C   UNL     1       4.886   1.837   0.000  0.00  0.00    +0.006 A 
ATOM     13  C   UNL     1       4.275   1.282   0.000  0.00  0.00    +0.069 A 
ATOM     14  C   UNL     1       4.449   0.476   0.000  0.00  0.00    +0.078 A 
ATOM     15  N   UNL     1       3.928  -0.163   0.000  0.00  0.00    -0.178 NA
ATOM     16  C   UNL     1       3.103  -0.154   0.000  0.00  0.00    +0.264 C 
ATOM     17  O   UNL     1       2.736  -0.893   0.000  0.00  0.00    -0.271 OA
ATOM     18  C   UNL     1       2.596   0.497   0.000  0.00  0.00    +0.156 C 
ATOM     19  C   UNL     1       1.773   0.432   0.000  0.00  0.00    +0.050 C 
ATOM     20  C   UNL     1       1.457   1.194   0.000  0.00  0.00    +0.120 C 
ATOM     21  C   UNL     1       2.085   1.730   0.000  0.00  0.00    +0.113 C 
ATOM     22  N   UNL     1       2.788   1.299   0.000  0.00  0.00    -0.268 N 
ATOM     23  C   UNL     1       3.535   1.649   0.000  0.00  0.00    +0.251 C 
ATOM     24  O   UNL     1       3.545   2.474   0.000  0.00  0.00    -0.270 OA
ATOM     36  C   UNL     1       5.235   0.224   0.000  0.00  0.00    +0.017 A 
ATOM     37  C   UNL     1       5.846   0.778   0.000  0.00  0.00    +0.001 A 
ENDROOT
BRANCH  11   8
ATOM      3  C   UNL     1       7.504   3.248   0.000  0.00  0.00    +0.142 A 
ATOM      4  C   UNL     1       7.679   2.442   0.000  0.00  0.00    +0.074 A 
ATOM      5  C   UNL     1       7.068   1.887   0.000  0.00  0.00    +0.142 A 
ATOM      8  C   UNL     1       6.282   2.139   0.000  0.00  0.00    +0.034 A 
ATOM      9  C   UNL     1       6.108   2.946   0.000  0.00  0.00    +0.006 A 
ATOM     10  C   UNL     1       6.719   3.500   0.000  0.00  0.00    +0.037 A 
BRANCH   3   2
ATOM      1  C   UNL     1       7.941   4.609   0.000  0.00  0.00    +0.252 C 
ATOM      2  O   UNL     1       8.115   3.802   0.000  0.00  0.00    -0.471 OA
ENDBRANCH   3   2
BRANCH   5   6
ATOM      6  O   UNL     1       7.242   1.081   0.000  0.00  0.00    -0.471 OA
ATOM      7  C   UNL     1       6.631   0.526   0.000  0.00  0.00    +0.252 C 
ENDBRANCH   5   6
ENDBRANCH  11   8
BRANCH  20  25
ATOM     25  N   UNL     1       0.655   1.387   0.000  0.00  0.00    -0.077 NA
BRANCH  25  26
ATOM     26  S   UNL     1       0.421   2.178   0.000  0.00  0.00    +0.077 S 
ATOM     27  O   UNL     1       1.212   2.412   0.000  0.00  0.00    -0.152 OA
ATOM     28  O   UNL     1      -0.370   1.944   0.000  0.00  0.00    -0.152 OA
BRANCH  26  29
ATOM     29  C   UNL     1       0.186   2.969   0.000  0.00  0.00    +0.124 A 
ATOM     30  C   UNL     1      -0.616   3.161   0.000  0.00  0.00    +0.022 A 
ATOM     31  C   UNL     1      -0.850   3.953   0.000  0.00  0.00    +0.031 A 
ATOM     32  C   UNL     1      -0.282   4.551   0.000  0.00  0.00    +0.140 A 
ATOM     33  F   UNL     1      -0.516   5.342   0.000  0.00  0.00    -0.204 F 
ATOM     34  C   UNL     1       0.520   4.358   0.000  0.00  0.00    +0.031 A 
ATOM     35  C   UNL     1       0.754   3.567   0.000  0.00  0.00    +0.022 A 
ENDBRANCH  26  29
ENDBRANCH  25  26
ENDBRANCH  20  25
TORSDOF 6
