MODEL 1
REMARK VINA RESULT:     -12.6      0.000      0.000
REMARK  Name = 
REMARK  7 active torsions:
REMARK  status: ('A' for Active; 'I' for Inactive)
REMARK    1  A    between atoms: N_2  and  C_3
REMARK    2  A    between atoms: C_3  and  C_4
REMARK    3  A    between atoms: C_10  and  C_12
REMARK    4  A    between atoms: C_12  and  C_13
REMARK    5  A    between atoms: C_15  and  C_16
REMARK    6  A    between atoms: C_16  and  N_17
REMARK    7  A    between atoms: C_18  and  C_20
REMARK                            x       y       z     vdW  Elec       q    Type
REMARK                         _______ _______ _______ _____ _____    ______ ____
ROOT
ATOM     13  C   UNL     1      -1.497   2.813  25.376  0.00  0.00    +0.157 C 
ATOM     14  O   UNL     1      -1.647   2.002  25.410  0.00  0.00    -0.351 OA
ATOM     15  C   UNL     1      -0.925   1.614  25.500  0.00  0.00    +0.170 C 
ATOM     27  C   UNL     1      -0.329   2.184  25.520  0.00  0.00    +0.213 C 
ATOM     28  O   UNL     1       0.478   2.039  25.603  0.00  0.00    -0.218 OA
ATOM     29  C   UNL     1      -0.683   2.925  25.444  0.00  0.00    +0.212 C 
ATOM     30  O   UNL     1      -0.291   3.651  25.436  0.00  0.00    -0.218 OA
ENDROOT
BRANCH  13  12
ATOM     12  C   UNL     1      -2.063   3.407  25.289  0.00  0.00    +0.117 C 
BRANCH  12  10
ATOM      1  C   UNL     1      -3.580   3.700  25.869  0.00  0.00    +0.115 C 
ATOM      2  N   UNL     1      -3.479   3.429  25.097  0.00  0.00    -0.274 N 
ATOM     10  C   UNL     1      -2.721   3.282  24.806  0.00  0.00    +0.228 C 
ATOM     11  O   UNL     1      -2.620   3.011  24.033  0.00  0.00    -0.275 OA
BRANCH   2   3
ATOM      3  C   UNL     1      -4.136   3.304  24.614  0.00  0.00    +0.120 C 
BRANCH   3   4
ATOM      4  C   UNL     1      -4.767   2.845  24.886  0.00  0.00    -0.002 A 
ATOM      5  C   UNL     1      -4.859   2.071  24.617  0.00  0.00    -0.003 A 
ATOM      6  C   UNL     1      -5.489   1.612  24.889  0.00  0.00    -0.000 A 
ATOM      7  C   UNL     1      -6.026   1.927  25.430  0.00  0.00    -0.000 A 
ATOM      8  C   UNL     1      -5.932   2.702  25.699  0.00  0.00    -0.000 A 
ATOM      9  C   UNL     1      -5.303   3.160  25.428  0.00  0.00    -0.003 A 
ENDBRANCH   3   4
ENDBRANCH   2   3
ENDBRANCH  12  10
ENDBRANCH  13  12
BRANCH  15  16
ATOM     16  C   UNL     1      -0.817   0.797  25.558  0.00  0.00    +0.148 C 
BRANCH  16  17
ATOM     17  N   UNL     1      -1.419   0.284  25.325  0.00  0.00    -0.199 NA
ATOM     18  C   UNL     1      -1.369  -0.519  25.506  0.00  0.00    +0.265 C 
ATOM     19  O   UNL     1      -0.718  -0.809  25.922  0.00  0.00    -0.268 OA
BRANCH  18  20
ATOM     20  C   UNL     1      -1.971  -1.033  25.273  0.00  0.00    +0.055 A 
ATOM     21  C   UNL     1      -2.722  -0.969  25.609  0.00  0.00    +0.004 A 
ATOM     22  C   UNL     1      -3.323  -1.484  25.375  0.00  0.00    -0.004 A 
ATOM     23  C   UNL     1      -3.174  -2.061  24.806  0.00  0.00    -0.022 A 
ATOM     24  C   UNL     1      -3.776  -2.575  24.572  0.00  0.00    +0.031 C 
ATOM     25  C   UNL     1      -2.424  -2.125  24.470  0.00  0.00    -0.004 A 
ATOM     26  C   UNL     1      -1.822  -1.611  24.703  0.00  0.00    +0.004 A 
ENDBRANCH  18  20
ENDBRANCH  16  17
ENDBRANCH  15  16
TORSDOF 7
ENDMDL
MODEL 2
REMARK VINA RESULT:     -12.5      1.793      5.311
REMARK  Name = 
REMARK  7 active torsions:
REMARK  status: ('A' for Active; 'I' for Inactive)
REMARK    1  A    between atoms: N_2  and  C_3
REMARK    2  A    between atoms: C_3  and  C_4
REMARK    3  A    between atoms: C_10  and  C_12
REMARK    4  A    between atoms: C_12  and  C_13
REMARK    5  A    between atoms: C_15  and  C_16
REMARK    6  A    between atoms: C_16  and  N_17
REMARK    7  A    between atoms: C_18  and  C_20
REMARK                            x       y       z     vdW  Elec       q    Type
REMARK                         _______ _______ _______ _____ _____    ______ ____
ROOT
ATOM     13  C   UNL     1      -4.928   1.526  24.976  0.00  0.00    +0.157 C 
ATOM     14  O   UNL     1      -4.315   2.000  25.256  0.00  0.00    -0.351 OA
ATOM     15  C   UNL     1      -4.635   2.729  25.472  0.00  0.00    +0.170 C 
ATOM     27  C   UNL     1      -5.446   2.706  25.325  0.00  0.00    +0.213 C 
ATOM     28  O   UNL     1      -5.982   3.317  25.460  0.00  0.00    -0.218 OA
ATOM     29  C   UNL     1      -5.627   1.961  25.018  0.00  0.00    +0.212 C 
ATOM     30  O   UNL     1      -6.376   1.699  24.794  0.00  0.00    -0.218 OA
ENDROOT
BRANCH  13  12
ATOM     12  C   UNL     1      -4.855   0.751  24.701  0.00  0.00    +0.117 C 
BRANCH  12  10
ATOM      1  C   UNL     1      -4.057  -0.523  24.020  0.00  0.00    +0.115 C 
ATOM      2  N   UNL     1      -4.113  -0.463  24.841  0.00  0.00    -0.274 N 
ATOM     10  C   UNL     1      -4.513   0.174  25.182  0.00  0.00    +0.228 C 
ATOM     11  O   UNL     1      -4.569   0.234  26.003  0.00  0.00    -0.275 OA
BRANCH   2   3
ATOM      3  C   UNL     1      -3.771  -1.039  25.322  0.00  0.00    +0.120 C 
BRANCH   3   4
ATOM      4  C   UNL     1      -3.312  -1.637  24.985  0.00  0.00    -0.002 A 
ATOM      5  C   UNL     1      -3.673  -2.321  24.698  0.00  0.00    -0.003 A 
ATOM      6  C   UNL     1      -3.215  -2.919  24.361  0.00  0.00    -0.000 A 
ATOM      7  C   UNL     1      -2.396  -2.833  24.312  0.00  0.00    -0.000 A 
ATOM      8  C   UNL     1      -2.035  -2.148  24.599  0.00  0.00    -0.000 A 
ATOM      9  C   UNL     1      -2.493  -1.551  24.936  0.00  0.00    -0.003 A 
ENDBRANCH   3   4
ENDBRANCH   2   3
ENDBRANCH  12  10
ENDBRANCH  13  12
BRANCH  15  16
ATOM     16  C   UNL     1      -4.217   3.371  25.780  0.00  0.00    +0.148 C 
BRANCH  16  17
ATOM     17  N   UNL     1      -3.488   3.583  25.458  0.00  0.00    -0.199 NA
ATOM     18  C   UNL     1      -2.965   4.051  25.891  0.00  0.00    +0.265 C 
ATOM     19  O   UNL     1      -3.171   4.308  26.647  0.00  0.00    -0.268 OA
BRANCH  18  20
ATOM     20  C   UNL     1      -2.237   4.263  25.568  0.00  0.00    +0.055 A 
ATOM     21  C   UNL     1      -1.624   3.711  25.533  0.00  0.00    +0.004 A 
ATOM     22  C   UNL     1      -0.895   3.924  25.210  0.00  0.00    -0.004 A 
ATOM     23  C   UNL     1      -0.779   4.687  24.922  0.00  0.00    -0.022 A 
ATOM     24  C   UNL     1      -0.049   4.900  24.599  0.00  0.00    +0.031 C 
ATOM     25  C   UNL     1      -1.390   5.239  24.956  0.00  0.00    -0.004 A 
ATOM     26  C   UNL     1      -2.119   5.027  25.279  0.00  0.00    +0.004 A 
ENDBRANCH  18  20
ENDBRANCH  16  17
ENDBRANCH  15  16
TORSDOF 7
ENDMDL
MODEL 3
REMARK VINA RESULT:     -12.3      0.848      4.201
REMARK  Name = 
REMARK  7 active torsions:
REMARK  status: ('A' for Active; 'I' for Inactive)
REMARK    1  A    between atoms: N_2  and  C_3
REMARK    2  A    between atoms: C_3  and  C_4
REMARK    3  A    between atoms: C_10  and  C_12
REMARK    4  A    between atoms: C_12  and  C_13
REMARK    5  A    between atoms: C_15  and  C_16
REMARK    6  A    between atoms: C_16  and  N_17
REMARK    7  A    between atoms: C_18  and  C_20
REMARK                            x       y       z     vdW  Elec       q    Type
REMARK                         _______ _______ _______ _____ _____    ______ ____
ROOT
ATOM     13  C   UNL     1      -0.676   1.380  24.535  0.00  0.00    +0.157 C 
ATOM     14  O   UNL     1      -1.451   1.657  24.588  0.00  0.00    -0.351 OA
ATOM     15  C   UNL     1      -1.437   2.474  24.473  0.00  0.00    +0.170 C 
ATOM     27  C   UNL     1      -0.654   2.701  24.347  0.00  0.00    +0.213 C 
ATOM     28  O   UNL     1      -0.388   3.468  24.209  0.00  0.00    -0.218 OA
ATOM     29  C   UNL     1      -0.184   2.024  24.386  0.00  0.00    +0.212 C 
ATOM     30  O   UNL     1       0.635   1.997  24.292  0.00  0.00    -0.218 OA
ENDROOT
BRANCH  13  12
ATOM     12  C   UNL     1      -0.437   0.594  24.616  0.00  0.00    +0.117 C 
BRANCH  12  10
ATOM      1  C   UNL     1      -0.964  -0.883  24.103  0.00  0.00    +0.115 C 
ATOM      2  N   UNL     1      -1.097  -0.645  24.882  0.00  0.00    -0.274 N 
ATOM     10  C   UNL     1      -0.833   0.094  25.138  0.00  0.00    +0.228 C 
ATOM     11  O   UNL     1      -0.966   0.332  25.917  0.00  0.00    -0.275 OA
BRANCH   2   3
ATOM      3  C   UNL     1      -1.494  -1.145  25.405  0.00  0.00    +0.120 C 
BRANCH   3   4
ATOM      4  C   UNL     1      -2.192  -1.517  25.169  0.00  0.00    -0.002 A 
ATOM      5  C   UNL     1      -2.159  -2.213  24.728  0.00  0.00    -0.003 A 
ATOM      6  C   UNL     1      -2.858  -2.585  24.492  0.00  0.00    -0.000 A 
ATOM      7  C   UNL     1      -3.588  -2.261  24.698  0.00  0.00    -0.000 A 
ATOM      8  C   UNL     1      -3.619  -1.565  25.140  0.00  0.00    -0.000 A 
ATOM      9  C   UNL     1      -2.922  -1.193  25.375  0.00  0.00    -0.003 A 
ENDBRANCH   3   4
ENDBRANCH   2   3
ENDBRANCH  12  10
ENDBRANCH  13  12
BRANCH  15  16
ATOM     16  C   UNL     1      -2.092   2.976  24.481  0.00  0.00    +0.148 C 
BRANCH  16  17
ATOM     17  N   UNL     1      -2.827   2.693  24.723  0.00  0.00    -0.199 NA
ATOM     18  C   UNL     1      -3.498   3.165  24.644  0.00  0.00    +0.265 C 
ATOM     19  O   UNL     1      -3.434   3.923  24.323  0.00  0.00    -0.268 OA
BRANCH  18  20
ATOM     20  C   UNL     1      -4.234   2.881  24.887  0.00  0.00    +0.055 A 
ATOM     21  C   UNL     1      -4.593   2.262  24.476  0.00  0.00    +0.004 A 
ATOM     22  C   UNL     1      -5.329   1.979  24.720  0.00  0.00    -0.004 A 
ATOM     23  C   UNL     1      -5.706   2.314  25.372  0.00  0.00    -0.022 A 
ATOM     24  C   UNL     1      -6.442   2.030  25.615  0.00  0.00    +0.031 C 
ATOM     25  C   UNL     1      -5.347   2.933  25.782  0.00  0.00    -0.004 A 
ATOM     26  C   UNL     1      -4.611   3.217  25.539  0.00  0.00    +0.004 A 
ENDBRANCH  18  20
ENDBRANCH  16  17
ENDBRANCH  15  16
TORSDOF 7
ENDMDL
MODEL 4
REMARK VINA RESULT:     -11.9      1.352      3.886
REMARK  Name = 
REMARK  7 active torsions:
REMARK  status: ('A' for Active; 'I' for Inactive)
REMARK    1  A    between atoms: N_2  and  C_3
REMARK    2  A    between atoms: C_3  and  C_4
REMARK    3  A    between atoms: C_10  and  C_12
REMARK    4  A    between atoms: C_12  and  C_13
REMARK    5  A    between atoms: C_15  and  C_16
REMARK    6  A    between atoms: C_16  and  N_17
REMARK    7  A    between atoms: C_18  and  C_20
REMARK                            x       y       z     vdW  Elec       q    Type
REMARK                         _______ _______ _______ _____ _____    ______ ____
ROOT
ATOM     13  C   UNL     1      -2.278  -0.466  24.732  0.00  0.00    +0.157 C 
ATOM     14  O   UNL     1      -1.963   0.288  24.843  0.00  0.00    -0.351 OA
ATOM     15  C   UNL     1      -1.141   0.223  24.839  0.00  0.00    +0.170 C 
ATOM     27  C   UNL     1      -0.947  -0.571  24.725  0.00  0.00    +0.213 C 
ATOM     28  O   UNL     1      -0.186  -0.884  24.684  0.00  0.00    -0.218 OA
ATOM     29  C   UNL     1      -1.651  -0.997  24.659  0.00  0.00    +0.212 C 
ATOM     30  O   UNL     1      -1.716  -1.810  24.541  0.00  0.00    -0.218 OA
ENDROOT
BRANCH  13  12
ATOM     12  C   UNL     1      -3.081  -0.656  24.700  0.00  0.00    +0.117 C 
BRANCH  12  10
ATOM      1  C   UNL     1      -4.314   0.003  25.576  0.00  0.00    +0.115 C 
ATOM      2  N   UNL     1      -4.229   0.191  24.777  0.00  0.00    -0.274 N 
ATOM     10  C   UNL     1      -3.612  -0.139  24.338  0.00  0.00    +0.228 C 
ATOM     11  O   UNL     1      -3.527   0.049  23.540  0.00  0.00    -0.275 OA
BRANCH   2   3
ATOM      3  C   UNL     1      -4.760   0.708  24.416  0.00  0.00    +0.120 C 
BRANCH   3   4
ATOM      4  C   UNL     1      -4.973   1.411  24.793  0.00  0.00    -0.002 A 
ATOM      5  C   UNL     1      -5.584   1.413  25.346  0.00  0.00    -0.003 A 
ATOM      6  C   UNL     1      -5.796   2.116  25.724  0.00  0.00    -0.000 A 
ATOM      7  C   UNL     1      -5.397   2.816  25.548  0.00  0.00    -0.000 A 
ATOM      8  C   UNL     1      -4.785   2.813  24.994  0.00  0.00    -0.000 A 
ATOM      9  C   UNL     1      -4.573   2.111  24.617  0.00  0.00    -0.003 A 
ENDBRANCH   3   4
ENDBRANCH   2   3
ENDBRANCH  12  10
ENDBRANCH  13  12
BRANCH  15  16
ATOM     16  C   UNL     1      -0.605   0.844  24.932  0.00  0.00    +0.148 C 
BRANCH  16  17
ATOM     17  N   UNL     1      -0.869   1.625  24.914  0.00  0.00    -0.199 NA
ATOM     18  C   UNL     1      -0.371   2.235  25.155  0.00  0.00    +0.265 C 
ATOM     19  O   UNL     1       0.394   2.066  25.414  0.00  0.00    -0.268 OA
BRANCH  18  20
ATOM     20  C   UNL     1      -0.636   3.016  25.136  0.00  0.00    +0.055 A 
ATOM     21  C   UNL     1      -1.140   3.295  25.727  0.00  0.00    +0.004 A 
ATOM     22  C   UNL     1      -1.405   4.077  25.707  0.00  0.00    -0.004 A 
ATOM     23  C   UNL     1      -1.165   4.579  25.099  0.00  0.00    -0.022 A 
ATOM     24  C   UNL     1      -1.430   5.360  25.081  0.00  0.00    +0.031 C 
ATOM     25  C   UNL     1      -0.661   4.301  24.509  0.00  0.00    -0.004 A 
ATOM     26  C   UNL     1      -0.396   3.519  24.528  0.00  0.00    +0.004 A 
ENDBRANCH  18  20
ENDBRANCH  16  17
ENDBRANCH  15  16
TORSDOF 7
ENDMDL
MODEL 5
REMARK VINA RESULT:     -11.7      1.620      3.592
REMARK  Name = 
REMARK  7 active torsions:
REMARK  status: ('A' for Active; 'I' for Inactive)
REMARK    1  A    between atoms: N_2  and  C_3
REMARK    2  A    between atoms: C_3  and  C_4
REMARK    3  A    between atoms: C_10  and  C_12
REMARK    4  A    between atoms: C_12  and  C_13
REMARK    5  A    between atoms: C_15  and  C_16
REMARK    6  A    between atoms: C_16  and  N_17
REMARK    7  A    between atoms: C_18  and  C_20
REMARK                            x       y       z     vdW  Elec       q    Type
REMARK                         _______ _______ _______ _____ _____    ______ ____
ROOT
ATOM     13  C   UNL     1      -4.396   2.882  25.302  0.00  0.00    +0.157 C 
ATOM     14  O   UNL     1      -4.179   2.112  25.104  0.00  0.00    -0.351 OA
ATOM     15  C   UNL     1      -4.868   1.662  25.040  0.00  0.00    +0.170 C 
ATOM     27  C   UNL     1      -5.511   2.155  25.199  0.00  0.00    +0.213 C 
ATOM     28  O   UNL     1      -6.304   1.933  25.196  0.00  0.00    -0.218 OA
ATOM     29  C   UNL     1      -5.218   2.909  25.361  0.00  0.00    +0.212 C 
ATOM     30  O   UNL     1      -5.670   3.574  25.549  0.00  0.00    -0.218 OA
ENDROOT
BRANCH  13  12
ATOM     12  C   UNL     1      -3.881   3.516  25.421  0.00  0.00    +0.117 C 
BRANCH  12  10
ATOM      1  C   UNL     1      -2.442   3.751  26.195  0.00  0.00    +0.115 C 
ATOM      2  N   UNL     1      -2.462   3.683  25.373  0.00  0.00    -0.274 N 
ATOM     10  C   UNL     1      -3.182   3.565  24.986  0.00  0.00    +0.228 C 
ATOM     11  O   UNL     1      -3.201   3.497  24.164  0.00  0.00    -0.275 OA
BRANCH   2   3
ATOM      3  C   UNL     1      -1.763   3.732  24.938  0.00  0.00    +0.120 C 
BRANCH   3   4
ATOM      4  C   UNL     1      -1.136   3.222  25.107  0.00  0.00    -0.002 A 
ATOM      5  C   UNL     1      -0.831   2.734  24.516  0.00  0.00    -0.003 A 
ATOM      6  C   UNL     1      -0.204   2.225  24.684  0.00  0.00    -0.000 A 
ATOM      7  C   UNL     1       0.118   2.204  25.444  0.00  0.00    -0.000 A 
ATOM      8  C   UNL     1      -0.187   2.693  26.034  0.00  0.00    -0.000 A 
ATOM      9  C   UNL     1      -0.814   3.202  25.866  0.00  0.00    -0.003 A 
ENDBRANCH   3   4
ENDBRANCH   2   3
ENDBRANCH  12  10
ENDBRANCH  13  12
BRANCH  15  16
ATOM     16  C   UNL     1      -4.908   0.860  24.850  0.00  0.00    +0.148 C 
BRANCH  16  17
ATOM     17  N   UNL     1      -4.238   0.384  24.925  0.00  0.00    -0.199 NA
ATOM     18  C   UNL     1      -4.227  -0.369  24.590  0.00  0.00    +0.265 C 
ATOM     19  O   UNL     1      -4.887  -0.647  24.178  0.00  0.00    -0.268 OA
BRANCH  18  20
ATOM     20  C   UNL     1      -3.558  -0.845  24.664  0.00  0.00    +0.055 A 
ATOM     21  C   UNL     1      -2.807  -0.525  24.538  0.00  0.00    +0.004 A 
ATOM     22  C   UNL     1      -2.138  -1.002  24.613  0.00  0.00    -0.004 A 
ATOM     23  C   UNL     1      -2.218  -1.797  24.814  0.00  0.00    -0.022 A 
ATOM     24  C   UNL     1      -1.549  -2.273  24.889  0.00  0.00    +0.031 C 
ATOM     25  C   UNL     1      -2.968  -2.117  24.941  0.00  0.00    -0.004 A 
ATOM     26  C   UNL     1      -3.637  -1.641  24.866  0.00  0.00    +0.004 A 
ENDBRANCH  18  20
ENDBRANCH  16  17
ENDBRANCH  15  16
TORSDOF 7
ENDMDL
