MODEL 1
REMARK VINA RESULT:      -8.7      0.000      0.000
REMARK  Name = 
REMARK  6 active torsions:
REMARK  status: ('A' for Active; 'I' for Inactive)
REMARK    1  A    between atoms: N_4  and  C_5
REMARK    2  A    between atoms: C_8  and  S_11
REMARK    3  A    between atoms: S_11  and  N_14
REMARK    4  A    between atoms: N_14  and  C_15
REMARK    5  A    between atoms: C_19  and  N_23
REMARK    6  A    between atoms: C_26  and  C_30
REMARK                            x       y       z     vdW  Elec       q    Type
REMARK                         _______ _______ _______ _____ _____    ______ ____
ROOT
ATOM     15  C   UNL     1      -2.068   0.255  24.320  0.00  0.00    +0.157 C 
ATOM     16  C   UNL     1      -1.754   0.965  24.598  0.00  0.00    +0.164 C 
ATOM     17  O   UNL     1      -0.932   0.913  24.560  0.00  0.00    -0.350 OA
ATOM     18  C   UNL     1      -0.738   0.171  24.259  0.00  0.00    +0.166 C 
ATOM     19  C   UNL     1      -0.110  -0.322  24.048  0.00  0.00    +0.154 C 
ATOM     20  C   UNL     1      -0.424  -1.032  23.770  0.00  0.00    +0.166 C 
ATOM     21  O   UNL     1      -1.246  -0.979  23.809  0.00  0.00    -0.350 OA
ATOM     22  C   UNL     1      -1.440  -0.236  24.110  0.00  0.00    +0.164 C 
ENDROOT
BRANCH  19  23
ATOM     23  N   UNL     1       0.692  -0.136  24.106  0.00  0.00    -0.200 NA
ATOM     24  C   UNL     1       1.166  -0.135  23.431  0.00  0.00    +0.237 A 
ATOM     25  N   UNL     1       1.967   0.051  23.488  0.00  0.00    -0.212 NA
ATOM     26  C   UNL     1       2.440   0.052  22.813  0.00  0.00    +0.086 A 
ATOM     27  C   UNL     1       2.112  -0.134  22.079  0.00  0.00    +0.040 A 
ATOM     28  C   UNL     1       1.310  -0.320  22.021  0.00  0.00    +0.103 A 
ATOM     29  N   UNL     1       0.837  -0.320  22.697  0.00  0.00    -0.211 NA
BRANCH  26  30
ATOM     30  C   UNL     1       3.242   0.238  22.870  0.00  0.00    +0.018 A 
ATOM     31  C   UNL     1       3.508   0.989  22.651  0.00  0.00    +0.001 A 
ATOM     32  C   UNL     1       4.309   1.175  22.709  0.00  0.00    +0.000 A 
ATOM     33  C   UNL     1       4.845   0.611  22.985  0.00  0.00    +0.000 A 
ATOM     34  C   UNL     1       4.579  -0.138  23.204  0.00  0.00    +0.000 A 
ATOM     35  C   UNL     1       3.777  -0.325  23.146  0.00  0.00    +0.001 A 
ENDBRANCH  26  30
ENDBRANCH  19  23
BRANCH  15  14
ATOM     14  N   UNL     1      -2.870   0.069  24.262  0.00  0.00    -0.074 NA
BRANCH  14  11
ATOM     11  S   UNL     1      -3.440   0.641  24.430  0.00  0.00    +0.077 S 
ATOM     12  O   UNL     1      -3.453   0.864  23.636  0.00  0.00    -0.152 OA
ATOM     13  O   UNL     1      -3.428   0.420  25.225  0.00  0.00    -0.152 OA
BRANCH  11   8
ATOM      5  C   UNL     1      -5.149   2.358  24.937  0.00  0.00    +0.073 A 
ATOM      6  C   UNL     1      -5.128   1.657  25.371  0.00  0.00    +0.018 A 
ATOM      7  C   UNL     1      -4.558   1.085  25.202  0.00  0.00    +0.021 A 
ATOM      8  C   UNL     1      -4.010   1.213  24.599  0.00  0.00    +0.124 A 
ATOM      9  C   UNL     1      -4.031   1.915  24.165  0.00  0.00    +0.021 A 
ATOM     10  C   UNL     1      -4.601   2.487  24.334  0.00  0.00    +0.018 A 
BRANCH   5   4
ATOM      1  C   UNL     1      -6.083   4.177  25.703  0.00  0.00    +0.097 C 
ATOM      2  C   UNL     1      -5.513   3.604  25.534  0.00  0.00    +0.246 C 
ATOM      3  O   UNL     1      -4.738   3.705  25.796  0.00  0.00    -0.273 OA
ATOM      4  N   UNL     1      -5.719   2.931  25.105  0.00  0.00    -0.179 NA
ENDBRANCH   5   4
ENDBRANCH  11   8
ENDBRANCH  14  11
ENDBRANCH  15  14
TORSDOF 6
ENDMDL
MODEL 2
REMARK VINA RESULT:      -8.5      1.850      7.277
REMARK  Name = 
REMARK  6 active torsions:
REMARK  status: ('A' for Active; 'I' for Inactive)
REMARK    1  A    between atoms: N_4  and  C_5
REMARK    2  A    between atoms: C_8  and  S_11
REMARK    3  A    between atoms: S_11  and  N_14
REMARK    4  A    between atoms: N_14  and  C_15
REMARK    5  A    between atoms: C_19  and  N_23
REMARK    6  A    between atoms: C_26  and  C_30
REMARK                            x       y       z     vdW  Elec       q    Type
REMARK                         _______ _______ _______ _____ _____    ______ ____
ROOT
ATOM     15  C   UNL     1       0.446   0.217  23.312  0.00  0.00    +0.157 C 
ATOM     16  C   UNL     1       0.544   1.035  23.335  0.00  0.00    +0.164 C 
ATOM     17  O   UNL     1      -0.088   1.355  23.758  0.00  0.00    -0.350 OA
ATOM     18  C   UNL     1      -0.576   0.735  23.997  0.00  0.00    +0.166 C 
ATOM     19  C   UNL     1      -1.267   0.548  24.406  0.00  0.00    +0.154 C 
ATOM     20  C   UNL     1      -1.365  -0.271  24.383  0.00  0.00    +0.166 C 
ATOM     21  O   UNL     1      -0.734  -0.590  23.959  0.00  0.00    -0.350 OA
ATOM     22  C   UNL     1      -0.246   0.031  23.721  0.00  0.00    +0.164 C 
ENDROOT
BRANCH  19  23
ATOM     23  N   UNL     1      -1.773   1.086  24.774  0.00  0.00    -0.200 NA
ATOM     24  C   UNL     1      -2.562   1.139  24.539  0.00  0.00    +0.237 A 
ATOM     25  N   UNL     1      -3.067   1.677  24.907  0.00  0.00    -0.212 NA
ATOM     26  C   UNL     1      -3.857   1.729  24.672  0.00  0.00    +0.086 A 
ATOM     27  C   UNL     1      -4.140   1.243  24.069  0.00  0.00    +0.040 A 
ATOM     28  C   UNL     1      -3.635   0.704  23.701  0.00  0.00    +0.103 A 
ATOM     29  N   UNL     1      -2.846   0.653  23.936  0.00  0.00    -0.211 NA
BRANCH  26  30
ATOM     30  C   UNL     1      -4.362   2.267  25.039  0.00  0.00    +0.018 A 
ATOM     31  C   UNL     1      -5.037   1.997  25.433  0.00  0.00    +0.001 A 
ATOM     32  C   UNL     1      -5.542   2.535  25.800  0.00  0.00    +0.000 A 
ATOM     33  C   UNL     1      -5.374   3.343  25.776  0.00  0.00    +0.000 A 
ATOM     34  C   UNL     1      -4.701   3.612  25.383  0.00  0.00    +0.000 A 
ATOM     35  C   UNL     1      -4.195   3.074  25.015  0.00  0.00    +0.001 A 
ENDBRANCH  26  30
ENDBRANCH  19  23
BRANCH  15  14
ATOM     14  N   UNL     1       0.951  -0.322  22.944  0.00  0.00    -0.074 NA
BRANCH  14  11
ATOM     11  S   UNL     1       1.766  -0.194  22.951  0.00  0.00    +0.077 S 
ATOM     12  O   UNL     1       1.813  -0.530  23.703  0.00  0.00    -0.152 OA
ATOM     13  O   UNL     1       1.721   0.141  22.199  0.00  0.00    -0.152 OA
BRANCH  11   8
ATOM      5  C   UNL     1       4.212   0.188  22.970  0.00  0.00    +0.073 A 
ATOM      6  C   UNL     1       3.702   0.788  22.724  0.00  0.00    +0.018 A 
ATOM      7  C   UNL     1       2.887   0.661  22.717  0.00  0.00    +0.021 A 
ATOM      8  C   UNL     1       2.581  -0.067  22.957  0.00  0.00    +0.124 A 
ATOM      9  C   UNL     1       3.091  -0.667  23.204  0.00  0.00    +0.021 A 
ATOM     10  C   UNL     1       3.906  -0.539  23.211  0.00  0.00    +0.018 A 
BRANCH   5   4
ATOM      1  C   UNL     1       6.238   0.548  23.699  0.00  0.00    +0.097 C 
ATOM      2  C   UNL     1       5.422   0.421  23.693  0.00  0.00    +0.246 C 
ATOM      3  O   UNL     1       5.003   0.400  24.403  0.00  0.00    -0.273 OA
ATOM      4  N   UNL     1       5.027   0.315  22.977  0.00  0.00    -0.179 NA
ENDBRANCH   5   4
ENDBRANCH  11   8
ENDBRANCH  14  11
ENDBRANCH  15  14
TORSDOF 6
ENDMDL
MODEL 3
REMARK VINA RESULT:      -7.2     15.980     17.171
REMARK  Name = 
REMARK  6 active torsions:
REMARK  status: ('A' for Active; 'I' for Inactive)
REMARK    1  A    between atoms: N_4  and  C_5
REMARK    2  A    between atoms: C_8  and  S_11
REMARK    3  A    between atoms: S_11  and  N_14
REMARK    4  A    between atoms: N_14  and  C_15
REMARK    5  A    between atoms: C_19  and  N_23
REMARK    6  A    between atoms: C_26  and  C_30
REMARK                            x       y       z     vdW  Elec       q    Type
REMARK                         _______ _______ _______ _____ _____    ______ ____
ROOT
ATOM     15  C   UNL     1      -5.489  -9.319  10.174  0.00  0.00    +0.157 C 
ATOM     16  C   UNL     1      -5.781  -8.830  10.770  0.00  0.00    +0.164 C 
ATOM     17  O   UNL     1      -5.432  -9.060  11.481  0.00  0.00    -0.350 OA
ATOM     18  C   UNL     1      -4.925  -9.691  11.325  0.00  0.00    +0.166 C 
ATOM     19  C   UNL     1      -4.395 -10.223  11.666  0.00  0.00    +0.154 C 
ATOM     20  C   UNL     1      -4.103 -10.712  11.069  0.00  0.00    +0.166 C 
ATOM     21  O   UNL     1      -4.452 -10.482  10.358  0.00  0.00    -0.350 OA
ATOM     22  C   UNL     1      -4.960  -9.850  10.516  0.00  0.00    +0.164 C 
ENDROOT
BRANCH  19  23
ATOM     23  N   UNL     1      -4.193 -10.260  12.465  0.00  0.00    -0.200 NA
ATOM     24  C   UNL     1      -3.401 -10.326  12.689  0.00  0.00    +0.237 A 
ATOM     25  N   UNL     1      -3.199 -10.363  13.487  0.00  0.00    -0.212 NA
ATOM     26  C   UNL     1      -2.408 -10.429  13.710  0.00  0.00    +0.086 A 
ATOM     27  C   UNL     1      -1.818 -10.458  13.134  0.00  0.00    +0.040 A 
ATOM     28  C   UNL     1      -2.020 -10.421  12.335  0.00  0.00    +0.103 A 
ATOM     29  N   UNL     1      -2.812 -10.355  12.112  0.00  0.00    -0.211 NA
BRANCH  26  30
ATOM     30  C   UNL     1      -2.206 -10.466  14.509  0.00  0.00    +0.018 A 
ATOM     31  C   UNL     1      -1.455 -10.225  14.756  0.00  0.00    +0.001 A 
ATOM     32  C   UNL     1      -1.253 -10.262  15.555  0.00  0.00    +0.000 A 
ATOM     33  C   UNL     1      -1.800 -10.539  16.107  0.00  0.00    +0.000 A 
ATOM     34  C   UNL     1      -2.549 -10.780  15.860  0.00  0.00    +0.000 A 
ATOM     35  C   UNL     1      -2.752 -10.743  15.060  0.00  0.00    +0.001 A 
ENDBRANCH  26  30
ENDBRANCH  19  23
BRANCH  15  14
ATOM     14  N   UNL     1      -5.691  -9.282   9.374  0.00  0.00    -0.074 NA
BRANCH  14  11
ATOM     11  S   UNL     1      -6.368  -8.874   9.138  0.00  0.00    +0.077 S 
ATOM     12  O   UNL     1      -5.940  -8.168   9.128  0.00  0.00    -0.152 OA
ATOM     13  O   UNL     1      -6.796  -9.579   9.147  0.00  0.00    -0.152 OA
BRANCH  11   8
ATOM      5  C   UNL     1      -8.400  -7.652   8.428  0.00  0.00    +0.073 A 
ATOM      6  C   UNL     1      -8.460  -8.274   8.966  0.00  0.00    +0.018 A 
ATOM      7  C   UNL     1      -7.782  -8.681   9.203  0.00  0.00    +0.021 A 
ATOM      8  C   UNL     1      -7.045  -8.467   8.902  0.00  0.00    +0.124 A 
ATOM      9  C   UNL     1      -6.985  -7.844   8.363  0.00  0.00    +0.021 A 
ATOM     10  C   UNL     1      -7.663  -7.437   8.127  0.00  0.00    +0.018 A 
BRANCH   5   4
ATOM      1  C   UNL     1      -9.835  -6.035   8.129  0.00  0.00    +0.097 C 
ATOM      2  C   UNL     1      -9.158  -6.442   8.366  0.00  0.00    +0.246 C 
ATOM      3  O   UNL     1      -8.562  -6.048   8.777  0.00  0.00    -0.273 OA
ATOM      4  N   UNL     1      -9.077  -7.244   8.191  0.00  0.00    -0.179 NA
ENDBRANCH   5   4
ENDBRANCH  11   8
ENDBRANCH  14  11
ENDBRANCH  15  14
TORSDOF 6
ENDMDL
MODEL 4
REMARK VINA RESULT:      -7.0     17.223     18.137
REMARK  Name = 
REMARK  6 active torsions:
REMARK  status: ('A' for Active; 'I' for Inactive)
REMARK    1  A    between atoms: N_4  and  C_5
REMARK    2  A    between atoms: C_8  and  S_11
REMARK    3  A    between atoms: S_11  and  N_14
REMARK    4  A    between atoms: N_14  and  C_15
REMARK    5  A    between atoms: C_19  and  N_23
REMARK    6  A    between atoms: C_26  and  C_30
REMARK                            x       y       z     vdW  Elec       q    Type
REMARK                         _______ _______ _______ _____ _____    ______ ____
ROOT
ATOM     15  C   UNL     1      -8.162  -8.812   9.173  0.00  0.00    +0.157 C 
ATOM     16  C   UNL     1      -8.125  -8.578   9.963  0.00  0.00    +0.164 C 
ATOM     17  O   UNL     1      -7.435  -8.890  10.289  0.00  0.00    -0.350 OA
ATOM     18  C   UNL     1      -7.045  -9.318   9.701  0.00  0.00    +0.166 C 
ATOM     19  C   UNL     1      -6.379  -9.776   9.538  0.00  0.00    +0.154 C 
ATOM     20  C   UNL     1      -6.416 -10.010   8.748  0.00  0.00    +0.166 C 
ATOM     21  O   UNL     1      -7.106  -9.697   8.423  0.00  0.00    -0.350 OA
ATOM     22  C   UNL     1      -7.495  -9.269   9.012  0.00  0.00    +0.164 C 
ENDROOT
BRANCH  19  23
ATOM     23  N   UNL     1      -5.779  -9.966  10.073  0.00  0.00    -0.200 NA
ATOM     24  C   UNL     1      -5.002  -9.733   9.921  0.00  0.00    +0.237 A 
ATOM     25  N   UNL     1      -4.403  -9.922  10.455  0.00  0.00    -0.212 NA
ATOM     26  C   UNL     1      -3.626  -9.689  10.304  0.00  0.00    +0.086 A 
ATOM     27  C   UNL     1      -3.449  -9.267   9.618  0.00  0.00    +0.040 A 
ATOM     28  C   UNL     1      -4.048  -9.077   9.083  0.00  0.00    +0.103 A 
ATOM     29  N   UNL     1      -4.825  -9.310   9.236  0.00  0.00    -0.211 NA
BRANCH  26  30
ATOM     30  C   UNL     1      -3.027  -9.879  10.837  0.00  0.00    +0.018 A 
ATOM     31  C   UNL     1      -2.350  -9.408  10.882  0.00  0.00    +0.001 A 
ATOM     32  C   UNL     1      -1.750  -9.597  11.416  0.00  0.00    +0.000 A 
ATOM     33  C   UNL     1      -1.826 -10.257  11.905  0.00  0.00    +0.000 A 
ATOM     34  C   UNL     1      -2.503 -10.728  11.860  0.00  0.00    +0.000 A 
ATOM     35  C   UNL     1      -3.103 -10.538  11.326  0.00  0.00    +0.001 A 
ENDBRANCH  26  30
ENDBRANCH  19  23
BRANCH  15  14
ATOM     14  N   UNL     1      -8.762  -8.622   8.639  0.00  0.00    -0.074 NA
BRANCH  14  11
ATOM     11  S   UNL     1      -9.154  -7.899   8.699  0.00  0.00    +0.077 S 
ATOM     12  O   UNL     1      -9.653  -8.216   9.273  0.00  0.00    -0.152 OA
ATOM     13  O   UNL     1      -8.655  -7.581   8.124  0.00  0.00    -0.152 OA
BRANCH  11   8
ATOM      5  C   UNL     1     -10.328  -5.727   8.875  0.00  0.00    +0.073 A 
ATOM      6  C   UNL     1     -10.643  -6.397   9.239  0.00  0.00    +0.018 A 
ATOM      7  C   UNL     1     -10.252  -7.121   9.180  0.00  0.00    +0.021 A 
ATOM      8  C   UNL     1      -9.545  -7.175   8.757  0.00  0.00    +0.124 A 
ATOM      9  C   UNL     1      -9.230  -6.505   8.393  0.00  0.00    +0.021 A 
ATOM     10  C   UNL     1      -9.622  -5.781   8.452  0.00  0.00    +0.018 A 
BRANCH   5   4
ATOM      1  C   UNL     1     -10.677  -3.579   9.040  0.00  0.00    +0.097 C 
ATOM      2  C   UNL     1     -10.286  -4.303   8.982  0.00  0.00    +0.246 C 
ATOM      3  O   UNL     1      -9.462  -4.326   8.972  0.00  0.00    -0.273 OA
ATOM      4  N   UNL     1     -10.719  -5.003   8.933  0.00  0.00    -0.179 NA
ENDBRANCH   5   4
ENDBRANCH  11   8
ENDBRANCH  14  11
ENDBRANCH  15  14
TORSDOF 6
ENDMDL
MODEL 5
REMARK VINA RESULT:      -6.8      1.954      2.697
REMARK  Name = 
REMARK  6 active torsions:
REMARK  status: ('A' for Active; 'I' for Inactive)
REMARK    1  A    between atoms: N_4  and  C_5
REMARK    2  A    between atoms: C_8  and  S_11
REMARK    3  A    between atoms: S_11  and  N_14
REMARK    4  A    between atoms: N_14  and  C_15
REMARK    5  A    between atoms: C_19  and  N_23
REMARK    6  A    between atoms: C_26  and  C_30
REMARK                            x       y       z     vdW  Elec       q    Type
REMARK                         _______ _______ _______ _____ _____    ______ ____
ROOT
ATOM     15  C   UNL     1      -1.537   3.931  25.409  0.00  0.00    +0.157 C 
ATOM     16  C   UNL     1      -1.279   4.294  24.715  0.00  0.00    +0.164 C 
ATOM     17  O   UNL     1      -0.616   3.885  24.445  0.00  0.00    -0.350 OA
ATOM     18  C   UNL     1      -0.465   3.269  24.971  0.00  0.00    +0.166 C 
ATOM     19  C   UNL     1       0.038   2.635  25.130  0.00  0.00    +0.154 C 
ATOM     20  C   UNL     1      -0.220   2.271  25.824  0.00  0.00    +0.166 C 
ATOM     21  O   UNL     1      -0.883   2.681  26.094  0.00  0.00    -0.350 OA
ATOM     22  C   UNL     1      -1.034   3.297  25.567  0.00  0.00    +0.164 C 
ENDROOT
BRANCH  19  23
ATOM     23  N   UNL     1       0.687   2.404  24.675  0.00  0.00    -0.200 NA
ATOM     24  C   UNL     1       0.671   1.688  24.266  0.00  0.00    +0.237 A 
ATOM     25  N   UNL     1       1.318   1.457  23.811  0.00  0.00    -0.212 NA
ATOM     26  C   UNL     1       1.302   0.741  23.402  0.00  0.00    +0.086 A 
ATOM     27  C   UNL     1       0.637   0.254  23.449  0.00  0.00    +0.040 A 
ATOM     28  C   UNL     1      -0.011   0.485  23.905  0.00  0.00    +0.103 A 
ATOM     29  N   UNL     1       0.006   1.201  24.313  0.00  0.00    -0.211 NA
BRANCH  26  30
ATOM     30  C   UNL     1       1.950   0.510  22.947  0.00  0.00    +0.018 A 
ATOM     31  C   UNL     1       2.705   0.791  23.131  0.00  0.00    +0.001 A 
ATOM     32  C   UNL     1       3.352   0.560  22.676  0.00  0.00    +0.000 A 
ATOM     33  C   UNL     1       3.247   0.050  22.036  0.00  0.00    +0.000 A 
ATOM     34  C   UNL     1       2.493  -0.230  21.852  0.00  0.00    +0.000 A 
ATOM     35  C   UNL     1       1.845   0.001  22.308  0.00  0.00    +0.001 A 
ENDBRANCH  26  30
ENDBRANCH  19  23
BRANCH  15  14
ATOM     14  N   UNL     1      -2.186   4.161  25.864  0.00  0.00    -0.074 NA
BRANCH  14  11
ATOM     11  S   UNL     1      -2.937   3.864  25.694  0.00  0.00    +0.077 S 
ATOM     12  O   UNL     1      -2.912   4.225  24.953  0.00  0.00    -0.152 OA
ATOM     13  O   UNL     1      -2.962   3.503  26.436  0.00  0.00    -0.152 OA
BRANCH  11   8
ATOM      5  C   UNL     1      -5.189   2.972  25.187  0.00  0.00    +0.073 A 
ATOM      6  C   UNL     1      -4.655   3.115  24.575  0.00  0.00    +0.018 A 
ATOM      7  C   UNL     1      -3.904   3.413  24.744  0.00  0.00    +0.021 A 
ATOM      8  C   UNL     1      -3.687   3.567  25.525  0.00  0.00    +0.124 A 
ATOM      9  C   UNL     1      -4.222   3.424  26.137  0.00  0.00    +0.021 A 
ATOM     10  C   UNL     1      -4.972   3.126  25.968  0.00  0.00    +0.018 A 
BRANCH   5   4
ATOM      1  C   UNL     1      -6.804   1.565  24.768  0.00  0.00    +0.097 C 
ATOM      2  C   UNL     1      -6.053   1.862  24.937  0.00  0.00    +0.246 C 
ATOM      3  O   UNL     1      -5.416   1.346  25.023  0.00  0.00    -0.273 OA
ATOM      4  N   UNL     1      -5.940   2.675  25.019  0.00  0.00    -0.179 NA
ENDBRANCH   5   4
ENDBRANCH  11   8
ENDBRANCH  14  11
ENDBRANCH  15  14
TORSDOF 6
ENDMDL
MODEL 6
REMARK VINA RESULT:      -6.7      1.992      2.803
REMARK  Name = 
REMARK  6 active torsions:
REMARK  status: ('A' for Active; 'I' for Inactive)
REMARK    1  A    between atoms: N_4  and  C_5
REMARK    2  A    between atoms: C_8  and  S_11
REMARK    3  A    between atoms: S_11  and  N_14
REMARK    4  A    between atoms: N_14  and  C_15
REMARK    5  A    between atoms: C_19  and  N_23
REMARK    6  A    between atoms: C_26  and  C_30
REMARK                            x       y       z     vdW  Elec       q    Type
REMARK                         _______ _______ _______ _____ _____    ______ ____
ROOT
ATOM     15  C   UNL     1      -1.428   1.387  25.009  0.00  0.00    +0.157 C 
ATOM     16  C   UNL     1      -0.984   1.057  25.621  0.00  0.00    +0.164 C 
ATOM     17  O   UNL     1      -0.188   1.094  25.406  0.00  0.00    -0.350 OA
ATOM     18  C   UNL     1      -0.140   1.445  24.662  0.00  0.00    +0.166 C 
ATOM     19  C   UNL     1       0.380   1.685  24.069  0.00  0.00    +0.154 C 
ATOM     20  C   UNL     1      -0.064   2.015  23.457  0.00  0.00    +0.166 C 
ATOM     21  O   UNL     1      -0.860   1.978  23.672  0.00  0.00    -0.350 OA
ATOM     22  C   UNL     1      -0.907   1.626  24.417  0.00  0.00    +0.164 C 
ENDROOT
BRANCH  19  23
ATOM     23  N   UNL     1       1.201   1.609  24.085  0.00  0.00    -0.200 NA
ATOM     24  C   UNL     1       1.577   1.078  23.578  0.00  0.00    +0.237 A 
ATOM     25  N   UNL     1       2.398   1.001  23.594  0.00  0.00    -0.212 NA
ATOM     26  C   UNL     1       2.773   0.470  23.086  0.00  0.00    +0.086 A 
ATOM     27  C   UNL     1       2.327   0.014  22.563  0.00  0.00    +0.040 A 
ATOM     28  C   UNL     1       1.505   0.090  22.547  0.00  0.00    +0.103 A 
ATOM     29  N   UNL     1       1.131   0.622  23.054  0.00  0.00    -0.211 NA
BRANCH  26  30
ATOM     30  C   UNL     1       3.594   0.394  23.102  0.00  0.00    +0.018 A 
ATOM     31  C   UNL     1       3.941  -0.261  23.469  0.00  0.00    +0.001 A 
ATOM     32  C   UNL     1       4.761  -0.337  23.485  0.00  0.00    +0.000 A 
ATOM     33  C   UNL     1       5.237   0.240  23.135  0.00  0.00    +0.000 A 
ATOM     34  C   UNL     1       4.890   0.893  22.769  0.00  0.00    +0.000 A 
ATOM     35  C   UNL     1       4.069   0.969  22.753  0.00  0.00    +0.001 A 
ENDBRANCH  26  30
ENDBRANCH  19  23
BRANCH  15  14
ATOM     14  N   UNL     1      -2.249   1.463  24.993  0.00  0.00    -0.074 NA
BRANCH  14  11
ATOM     11  S   UNL     1      -2.721   0.812  24.808  0.00  0.00    +0.077 S 
ATOM     12  O   UNL     1      -2.472   0.434  25.498  0.00  0.00    -0.152 OA
ATOM     13  O   UNL     1      -2.970   1.189  24.118  0.00  0.00    -0.152 OA
BRANCH  11   8
ATOM      5  C   UNL     1      -4.136  -1.140  24.248  0.00  0.00    +0.073 A 
ATOM      6  C   UNL     1      -3.888  -1.020  25.025  0.00  0.00    +0.018 A 
ATOM      7  C   UNL     1      -3.416  -0.370  25.212  0.00  0.00    +0.021 A 
ATOM      8  C   UNL     1      -3.193   0.161  24.621  0.00  0.00    +0.124 A 
ATOM      9  C   UNL     1      -3.441   0.041  23.843  0.00  0.00    +0.021 A 
ATOM     10  C   UNL     1      -3.912  -0.610  23.657  0.00  0.00    +0.018 A 
BRANCH   5   4
ATOM      1  C   UNL     1      -4.732  -3.174  23.725  0.00  0.00    +0.097 C 
ATOM      2  C   UNL     1      -4.260  -2.524  23.913  0.00  0.00    +0.246 C 
ATOM      3  O   UNL     1      -3.441  -2.607  23.952  0.00  0.00    -0.273 OA
ATOM      4  N   UNL     1      -4.608  -1.791  24.060  0.00  0.00    -0.179 NA
ENDBRANCH   5   4
ENDBRANCH  11   8
ENDBRANCH  14  11
ENDBRANCH  15  14
TORSDOF 6
ENDMDL
MODEL 7
REMARK VINA RESULT:      -6.0     15.207     17.448
REMARK  Name = 
REMARK  6 active torsions:
REMARK  status: ('A' for Active; 'I' for Inactive)
REMARK    1  A    between atoms: N_4  and  C_5
REMARK    2  A    between atoms: C_8  and  S_11
REMARK    3  A    between atoms: S_11  and  N_14
REMARK    4  A    between atoms: N_14  and  C_15
REMARK    5  A    between atoms: C_19  and  N_23
REMARK    6  A    between atoms: C_26  and  C_30
REMARK                            x       y       z     vdW  Elec       q    Type
REMARK                         _______ _______ _______ _____ _____    ______ ____
ROOT
ATOM     15  C   UNL     1      -6.209  -9.874  11.673  0.00  0.00    +0.157 C 
ATOM     16  C   UNL     1      -6.058  -9.103  11.922  0.00  0.00    +0.164 C 
ATOM     17  O   UNL     1      -6.646  -8.888  12.458  0.00  0.00    -0.350 OA
ATOM     18  C   UNL     1      -7.161  -9.526  12.541  0.00  0.00    +0.166 C 
ATOM     19  C   UNL     1      -7.843  -9.790  12.924  0.00  0.00    +0.154 C 
ATOM     20  C   UNL     1      -7.995 -10.561  12.675  0.00  0.00    +0.166 C 
ATOM     21  O   UNL     1      -7.406 -10.775  12.139  0.00  0.00    -0.350 OA
ATOM     22  C   UNL     1      -6.891 -10.136  12.056  0.00  0.00    +0.164 C 
ENDROOT
BRANCH  19  23
ATOM     23  N   UNL     1      -8.295  -9.356  13.462  0.00  0.00    -0.200 NA
ATOM     24  C   UNL     1      -8.400  -9.634  14.231  0.00  0.00    +0.237 A 
ATOM     25  N   UNL     1      -8.851  -9.201  14.769  0.00  0.00    -0.212 NA
ATOM     26  C   UNL     1      -8.956  -9.479  15.539  0.00  0.00    +0.086 A 
ATOM     27  C   UNL     1      -8.609 -10.190  15.771  0.00  0.00    +0.040 A 
ATOM     28  C   UNL     1      -8.157 -10.624  15.233  0.00  0.00    +0.103 A 
ATOM     29  N   UNL     1      -8.053 -10.345  14.463  0.00  0.00    -0.211 NA
BRANCH  26  30
ATOM     30  C   UNL     1      -9.407  -9.046  16.076  0.00  0.00    +0.018 A 
ATOM     31  C   UNL     1     -10.227  -8.999  15.983  0.00  0.00    +0.001 A 
ATOM     32  C   UNL     1     -10.678  -8.566  16.520  0.00  0.00    +0.000 A 
ATOM     33  C   UNL     1     -10.311  -8.179  17.151  0.00  0.00    +0.000 A 
ATOM     34  C   UNL     1      -9.493  -8.226  17.243  0.00  0.00    +0.000 A 
ATOM     35  C   UNL     1      -9.041  -8.660  16.706  0.00  0.00    +0.001 A 
ENDBRANCH  26  30
ENDBRANCH  19  23
BRANCH  15  14
ATOM     14  N   UNL     1      -5.758 -10.308  11.135  0.00  0.00    -0.074 NA
BRANCH  14  11
ATOM     11  S   UNL     1      -4.958 -10.132  11.031  0.00  0.00    +0.077 S 
ATOM     12  O   UNL     1      -5.152  -9.606  10.425  0.00  0.00    -0.152 OA
ATOM     13  O   UNL     1      -4.764 -10.657  11.637  0.00  0.00    -0.152 OA
BRANCH  11   8
ATOM      5  C   UNL     1      -2.560  -9.605  10.720  0.00  0.00    +0.073 A 
ATOM      6  C   UNL     1      -2.783 -10.283  11.133  0.00  0.00    +0.018 A 
ATOM      7  C   UNL     1      -3.582 -10.459  11.237  0.00  0.00    +0.021 A 
ATOM      8  C   UNL     1      -4.159  -9.956  10.928  0.00  0.00    +0.124 A 
ATOM      9  C   UNL     1      -3.936  -9.278  10.515  0.00  0.00    +0.021 A 
ATOM     10  C   UNL     1      -3.136  -9.102  10.411  0.00  0.00    +0.018 A 
BRANCH   5   4
ATOM      1  C   UNL     1      -0.490  -9.071  11.164  0.00  0.00    +0.097 C 
ATOM      2  C   UNL     1      -1.290  -9.247  11.268  0.00  0.00    +0.246 C 
ATOM      3  O   UNL     1      -1.618  -9.241  12.025  0.00  0.00    -0.273 OA
ATOM      4  N   UNL     1      -1.761  -9.429  10.616  0.00  0.00    -0.179 NA
ENDBRANCH   5   4
ENDBRANCH  11   8
ENDBRANCH  14  11
ENDBRANCH  15  14
TORSDOF 6
ENDMDL
MODEL 8
REMARK VINA RESULT:      -6.0     15.213     18.246
REMARK  Name = 
REMARK  6 active torsions:
REMARK  status: ('A' for Active; 'I' for Inactive)
REMARK    1  A    between atoms: N_4  and  C_5
REMARK    2  A    between atoms: C_8  and  S_11
REMARK    3  A    between atoms: S_11  and  N_14
REMARK    4  A    between atoms: N_14  and  C_15
REMARK    5  A    between atoms: C_19  and  N_23
REMARK    6  A    between atoms: C_26  and  C_30
REMARK                            x       y       z     vdW  Elec       q    Type
REMARK                         _______ _______ _______ _____ _____    ______ ____
ROOT
ATOM     15  C   UNL     1      12.898  -7.513  31.233  0.00  0.00    +0.157 C 
ATOM     16  C   UNL     1      12.505  -7.054  30.671  0.00  0.00    +0.164 C 
ATOM     17  O   UNL     1      11.705  -7.038  30.870  0.00  0.00    -0.350 OA
ATOM     18  C   UNL     1      11.603  -7.485  31.554  0.00  0.00    +0.166 C 
ATOM     19  C   UNL     1      11.046  -7.752  32.101  0.00  0.00    +0.154 C 
ATOM     20  C   UNL     1      11.439  -8.211  32.663  0.00  0.00    +0.166 C 
ATOM     21  O   UNL     1      12.239  -8.227  32.464  0.00  0.00    -0.350 OA
ATOM     22  C   UNL     1      12.340  -7.779  31.778  0.00  0.00    +0.164 C 
ENDROOT
BRANCH  19  23
ATOM     23  N   UNL     1      10.237  -7.589  32.088  0.00  0.00    -0.200 NA
ATOM     24  C   UNL     1       9.691  -8.208  32.088  0.00  0.00    +0.237 A 
ATOM     25  N   UNL     1       8.883  -8.045  32.075  0.00  0.00    -0.212 NA
ATOM     26  C   UNL     1       8.337  -8.663  32.075  0.00  0.00    +0.086 A 
ATOM     27  C   UNL     1       8.599  -9.445  32.088  0.00  0.00    +0.040 A 
ATOM     28  C   UNL     1       9.408  -9.608  32.101  0.00  0.00    +0.103 A 
ATOM     29  N   UNL     1       9.954  -8.989  32.101  0.00  0.00    -0.211 NA
BRANCH  26  30
ATOM     30  C   UNL     1       7.529  -8.500  32.061  0.00  0.00    +0.018 A 
ATOM     31  C   UNL     1       7.121  -8.491  31.342  0.00  0.00    +0.001 A 
ATOM     32  C   UNL     1       6.313  -8.328  31.329  0.00  0.00    +0.000 A 
ATOM     33  C   UNL     1       5.911  -8.175  32.033  0.00  0.00    +0.000 A 
ATOM     34  C   UNL     1       6.318  -8.185  32.751  0.00  0.00    +0.000 A 
ATOM     35  C   UNL     1       7.127  -8.348  32.764  0.00  0.00    +0.001 A 
ENDBRANCH  26  30
ENDBRANCH  19  23
BRANCH  15  14
ATOM     14  N   UNL     1      13.707  -7.676  31.246  0.00  0.00    -0.074 NA
BRANCH  14  11
ATOM     11  S   UNL     1      14.170  -7.520  30.581  0.00  0.00    +0.077 S 
ATOM     12  O   UNL     1      14.342  -6.769  30.876  0.00  0.00    -0.152 OA
ATOM     13  O   UNL     1      13.999  -8.271  30.286  0.00  0.00    -0.152 OA
BRANCH  11   8
ATOM      5  C   UNL     1      15.561  -7.055  28.587  0.00  0.00    +0.073 A 
ATOM      6  C   UNL     1      15.317  -7.826  28.749  0.00  0.00    +0.018 A 
ATOM      7  C   UNL     1      14.854  -7.982  29.414  0.00  0.00    +0.021 A 
ATOM      8  C   UNL     1      14.634  -7.366  29.917  0.00  0.00    +0.124 A 
ATOM      9  C   UNL     1      14.877  -6.594  29.754  0.00  0.00    +0.021 A 
ATOM     10  C   UNL     1      15.341  -6.439  29.090  0.00  0.00    +0.018 A 
BRANCH   5   4
ATOM      1  C   UNL     1      16.129  -6.602  26.529  0.00  0.00    +0.097 C 
ATOM      2  C   UNL     1      15.666  -6.758  27.194  0.00  0.00    +0.246 C 
ATOM      3  O   UNL     1      14.844  -6.771  27.129  0.00  0.00    -0.273 OA
ATOM      4  N   UNL     1      16.024  -6.900  27.922  0.00  0.00    -0.179 NA
ENDBRANCH   5   4
ENDBRANCH  11   8
ENDBRANCH  14  11
ENDBRANCH  15  14
TORSDOF 6
ENDMDL
MODEL 9
REMARK VINA RESULT:      -5.9     15.629     18.221
REMARK  Name = 
REMARK  6 active torsions:
REMARK  status: ('A' for Active; 'I' for Inactive)
REMARK    1  A    between atoms: N_4  and  C_5
REMARK    2  A    between atoms: C_8  and  S_11
REMARK    3  A    between atoms: S_11  and  N_14
REMARK    4  A    between atoms: N_14  and  C_15
REMARK    5  A    between atoms: C_19  and  N_23
REMARK    6  A    between atoms: C_26  and  C_30
REMARK                            x       y       z     vdW  Elec       q    Type
REMARK                         _______ _______ _______ _____ _____    ______ ____
ROOT
ATOM     15  C   UNL     1      13.045  -6.341  31.841  0.00  0.00    +0.157 C 
ATOM     16  C   UNL     1      12.556  -5.838  31.409  0.00  0.00    +0.164 C 
ATOM     17  O   UNL     1      11.775  -6.071  31.535  0.00  0.00    -0.350 OA
ATOM     18  C   UNL     1      11.781  -6.718  32.045  0.00  0.00    +0.166 C 
ATOM     19  C   UNL     1      11.303  -7.262  32.439  0.00  0.00    +0.154 C 
ATOM     20  C   UNL     1      11.792  -7.766  32.872  0.00  0.00    +0.166 C 
ATOM     21  O   UNL     1      12.573  -7.533  32.746  0.00  0.00    -0.350 OA
ATOM     22  C   UNL     1      12.566  -6.885  32.235  0.00  0.00    +0.164 C 
ENDROOT
BRANCH  19  23
ATOM     23  N   UNL     1      10.479  -7.297  32.406  0.00  0.00    -0.200 NA
ATOM     24  C   UNL     1      10.101  -8.017  32.270  0.00  0.00    +0.237 A 
ATOM     25  N   UNL     1       9.278  -8.052  32.236  0.00  0.00    -0.212 NA
ATOM     26  C   UNL     1       8.900  -8.773  32.100  0.00  0.00    +0.086 A 
ATOM     27  C   UNL     1       9.346  -9.459  31.997  0.00  0.00    +0.040 A 
ATOM     28  C   UNL     1      10.170  -9.425  32.030  0.00  0.00    +0.103 A 
ATOM     29  N   UNL     1      10.547  -8.704  32.167  0.00  0.00    -0.211 NA
BRANCH  26  30
ATOM     30  C   UNL     1       8.077  -8.807  32.067  0.00  0.00    +0.018 A 
ATOM     31  C   UNL     1       7.638  -8.866  32.764  0.00  0.00    +0.001 A 
ATOM     32  C   UNL     1       6.815  -8.901  32.731  0.00  0.00    +0.000 A 
ATOM     33  C   UNL     1       6.429  -8.877  32.002  0.00  0.00    +0.000 A 
ATOM     34  C   UNL     1       6.868  -8.818  31.305  0.00  0.00    +0.000 A 
ATOM     35  C   UNL     1       7.692  -8.783  31.339  0.00  0.00    +0.001 A 
ENDBRANCH  26  30
ENDBRANCH  19  23
BRANCH  15  14
ATOM     14  N   UNL     1      13.869  -6.307  31.875  0.00  0.00    -0.074 NA
BRANCH  14  11
ATOM     11  S   UNL     1      14.259  -5.594  31.733  0.00  0.00    +0.077 S 
ATOM     12  O   UNL     1      14.284  -5.767  30.927  0.00  0.00    -0.152 OA
ATOM     13  O   UNL     1      14.234  -5.420  32.539  0.00  0.00    -0.152 OA
BRANCH  11   8
ATOM      5  C   UNL     1      15.427  -3.453  31.311  0.00  0.00    +0.073 A 
ATOM      6  C   UNL     1      15.482  -4.067  30.764  0.00  0.00    +0.018 A 
ATOM      7  C   UNL     1      15.093  -4.781  30.904  0.00  0.00    +0.021 A 
ATOM      8  C   UNL     1      14.648  -4.880  31.592  0.00  0.00    +0.124 A 
ATOM      9  C   UNL     1      14.593  -4.265  32.140  0.00  0.00    +0.021 A 
ATOM     10  C   UNL     1      14.982  -3.552  31.999  0.00  0.00    +0.018 A 
BRANCH   5   4
ATOM      1  C   UNL     1      16.962  -1.901  31.333  0.00  0.00    +0.097 C 
ATOM      2  C   UNL     1      16.573  -2.615  31.474  0.00  0.00    +0.246 C 
ATOM      3  O   UNL     1      16.941  -3.205  31.917  0.00  0.00    -0.273 OA
ATOM      4  N   UNL     1      15.816  -2.739  31.171  0.00  0.00    -0.179 NA
ENDBRANCH   5   4
ENDBRANCH  11   8
ENDBRANCH  14  11
ENDBRANCH  15  14
TORSDOF 6
ENDMDL
MODEL 10
REMARK VINA RESULT:      -5.8     16.101     17.344
REMARK  Name = 
REMARK  6 active torsions:
REMARK  status: ('A' for Active; 'I' for Inactive)
REMARK    1  A    between atoms: N_4  and  C_5
REMARK    2  A    between atoms: C_8  and  S_11
REMARK    3  A    between atoms: S_11  and  N_14
REMARK    4  A    between atoms: N_14  and  C_15
REMARK    5  A    between atoms: C_19  and  N_23
REMARK    6  A    between atoms: C_26  and  C_30
REMARK                            x       y       z     vdW  Elec       q    Type
REMARK                         _______ _______ _______ _____ _____    ______ ____
ROOT
ATOM     15  C   UNL     1      -6.094  -9.067  10.118  0.00  0.00    +0.157 C 
ATOM     16  C   UNL     1      -5.724  -8.396  10.422  0.00  0.00    +0.164 C 
ATOM     17  O   UNL     1      -5.463  -8.572  11.184  0.00  0.00    -0.350 OA
ATOM     18  C   UNL     1      -5.670  -9.352  11.352  0.00  0.00    +0.166 C 
ATOM     19  C   UNL     1      -5.637  -9.943  11.926  0.00  0.00    +0.154 C 
ATOM     20  C   UNL     1      -6.007 -10.615  11.622  0.00  0.00    +0.166 C 
ATOM     21  O   UNL     1      -6.268 -10.439  10.860  0.00  0.00    -0.350 OA
ATOM     22  C   UNL     1      -6.060  -9.658  10.693  0.00  0.00    +0.164 C 
ENDROOT
BRANCH  19  23
ATOM     23  N   UNL     1      -5.295  -9.875  12.673  0.00  0.00    -0.200 NA
ATOM     24  C   UNL     1      -5.718 -10.102  13.344  0.00  0.00    +0.237 A 
ATOM     25  N   UNL     1      -5.376 -10.033  14.091  0.00  0.00    -0.212 NA
ATOM     26  C   UNL     1      -5.799 -10.260  14.762  0.00  0.00    +0.086 A 
ATOM     27  C   UNL     1      -6.565 -10.556  14.685  0.00  0.00    +0.040 A 
ATOM     28  C   UNL     1      -6.908 -10.625  13.938  0.00  0.00    +0.103 A 
ATOM     29  N   UNL     1      -6.484 -10.398  13.267  0.00  0.00    -0.211 NA
BRANCH  26  30
ATOM     30  C   UNL     1      -5.457 -10.192  15.509  0.00  0.00    +0.018 A 
ATOM     31  C   UNL     1      -4.796 -10.648  15.704  0.00  0.00    +0.001 A 
ATOM     32  C   UNL     1      -4.454 -10.580  16.451  0.00  0.00    +0.000 A 
ATOM     33  C   UNL     1      -4.771 -10.056  17.004  0.00  0.00    +0.000 A 
ATOM     34  C   UNL     1      -5.430  -9.600  16.809  0.00  0.00    +0.000 A 
ATOM     35  C   UNL     1      -5.773  -9.668  16.061  0.00  0.00    +0.001 A 
ENDBRANCH  26  30
ENDBRANCH  19  23
BRANCH  15  14
ATOM     14  N   UNL     1      -6.437  -9.136   9.371  0.00  0.00    -0.074 NA
BRANCH  14  11
ATOM     11  S   UNL     1      -6.997  -8.585   9.121  0.00  0.00    +0.077 S 
ATOM     12  O   UNL     1      -6.398  -8.031   8.997  0.00  0.00    -0.152 OA
ATOM     13  O   UNL     1      -7.597  -9.138   9.246  0.00  0.00    -0.152 OA
BRANCH  11   8
ATOM      5  C   UNL     1      -8.680  -6.931   8.373  0.00  0.00    +0.073 A 
ATOM      6  C   UNL     1      -8.921  -7.617   8.762  0.00  0.00    +0.018 A 
ATOM      7  C   UNL     1      -8.360  -8.169   9.012  0.00  0.00    +0.021 A 
ATOM      8  C   UNL     1      -7.558  -8.034   8.872  0.00  0.00    +0.124 A 
ATOM      9  C   UNL     1      -7.317  -7.347   8.483  0.00  0.00    +0.021 A 
ATOM     10  C   UNL     1      -7.878  -6.796   8.234  0.00  0.00    +0.018 A 
BRANCH   5   4
ATOM      1  C   UNL     1     -10.411  -5.600   8.381  0.00  0.00    +0.097 C 
ATOM      2  C   UNL     1      -9.850  -6.152   8.630  0.00  0.00    +0.246 C 
ATOM      3  O   UNL     1      -9.899  -6.476   9.387  0.00  0.00    -0.273 OA
ATOM      4  N   UNL     1      -9.241  -6.380   8.124  0.00  0.00    -0.179 NA
ENDBRANCH   5   4
ENDBRANCH  11   8
ENDBRANCH  14  11
ENDBRANCH  15  14
TORSDOF 6
ENDMDL
