MODEL 1
REMARK VINA RESULT:     -13.7      0.000      0.000
REMARK  Name = 
REMARK  4 active torsions:
REMARK  status: ('A' for Active; 'I' for Inactive)
REMARK    1  A    between atoms: O_2  and  C_3
REMARK    2  A    between atoms: C_8  and  N_9
REMARK    3  A    between atoms: N_12  and  C_13
REMARK    4  A    between atoms: N_25  and  C_26
REMARK                            x       y       z     vdW  Elec       q    Type
REMARK                         _______ _______ _______ _____ _____    ______ ____
ROOT
ATOM     13  C   UNL     1      -4.005   1.128  24.004  0.00  0.00    +0.131 A 
ATOM     14  C   UNL     1      -4.757   0.965  24.301  0.00  0.00    +0.023 A 
ATOM     15  C   UNL     1      -5.106   1.478  24.844  0.00  0.00    +0.014 A 
ATOM     16  C   UNL     1      -4.703   2.154  25.091  0.00  0.00    +0.041 A 
ATOM     17  C   UNL     1      -4.801   2.880  25.645  0.00  0.00    +0.058 C 
ATOM     18  C   UNL     1      -5.254   3.174  26.094  0.00  0.00    +0.011 C 
ATOM     19  C   UNL     1      -4.511   3.332  25.799  0.00  0.00    +0.043 C 
ATOM     20  C   UNL     1      -3.622   3.690  25.561  0.00  0.00    +0.097 C 
ATOM     21  N   UNL     1      -3.374   3.103  25.021  0.00  0.00    -0.262 N 
ATOM     22  C   UNL     1      -3.943   3.240  25.426  0.00  0.00    +0.101 C 
ATOM     23  C   UNL     1      -2.888   2.707  24.484  0.00  0.00    +0.323 C 
ATOM     24  O   UNL     1      -3.144   2.003  24.138  0.00  0.00    -0.251 OA
ATOM     25  N   UNL     1      -2.147   3.015  24.293  0.00  0.00    -0.190 NA
ATOM     32  C   UNL     1      -4.400   2.576  25.217  0.00  0.00    +0.110 C 
ATOM     33  N   UNL     1      -3.951   2.317  24.794  0.00  0.00    -0.298 N 
ATOM     34  C   UNL     1      -3.602   1.804  24.250  0.00  0.00    +0.276 A 
ATOM     35  O   UNL     1      -2.896   1.748  23.827  0.00  0.00    -0.266 OA
ENDROOT
BRANCH  25  26
ATOM     26  C   UNL     1      -1.891   3.719  24.639  0.00  0.00    +0.097 C 
ATOM     27  C   UNL     1      -1.441   3.699  25.330  0.00  0.00    +0.022 C 
ATOM     28  C   UNL     1      -1.184   4.402  25.676  0.00  0.00    +0.002 C 
ATOM     29  C   UNL     1      -1.379   5.127  25.331  0.00  0.00    +0.000 C 
ATOM     30  C   UNL     1      -1.829   5.146  24.641  0.00  0.00    +0.002 C 
ATOM     31  C   UNL     1      -2.086   4.443  24.295  0.00  0.00    +0.022 C 
ENDBRANCH  25  26
BRANCH  13  12
ATOM      9  N   UNL     1      -3.864  -0.477  24.357  0.00  0.00    -0.158 NA
ATOM     10  C   UNL     1      -3.586  -0.187  23.637  0.00  0.00    +0.348 C 
ATOM     11  O   UNL     1      -3.237  -0.701  23.092  0.00  0.00    -0.248 OA
ATOM     12  N   UNL     1      -3.656   0.615  23.460  0.00  0.00    -0.156 NA
BRANCH   9   8
ATOM      3  C   UNL     1      -3.445  -1.519  25.242  0.00  0.00    +0.154 A 
ATOM      4  C   UNL     1      -3.375  -2.322  25.418  0.00  0.00    +0.038 A 
ATOM      5  C   UNL     1      -3.653  -2.887  24.884  0.00  0.00    +0.003 A 
ATOM      6  C   UNL     1      -4.001  -2.648  24.175  0.00  0.00    +0.002 A 
ATOM      7  C   UNL     1      -4.071  -1.846  24.000  0.00  0.00    +0.020 A 
ATOM      8  C   UNL     1      -3.793  -1.281  24.533  0.00  0.00    +0.109 A 
BRANCH   3   2
ATOM      1  C   UNL     1      -2.795  -1.192  26.472  0.00  0.00    +0.253 C 
ATOM      2  O   UNL     1      -3.168  -0.954  25.776  0.00  0.00    -0.470 OA
ENDBRANCH   3   2
ENDBRANCH   9   8
ENDBRANCH  13  12
TORSDOF 4
ENDMDL
MODEL 2
REMARK VINA RESULT:     -13.1      1.070      4.614
REMARK  Name = 
REMARK  4 active torsions:
REMARK  status: ('A' for Active; 'I' for Inactive)
REMARK    1  A    between atoms: O_2  and  C_3
REMARK    2  A    between atoms: C_8  and  N_9
REMARK    3  A    between atoms: N_12  and  C_13
REMARK    4  A    between atoms: N_25  and  C_26
REMARK                            x       y       z     vdW  Elec       q    Type
REMARK                         _______ _______ _______ _____ _____    ______ ____
ROOT
ATOM     13  C   UNL     1      -3.227   2.149  23.794  0.00  0.00    +0.131 A 
ATOM     14  C   UNL     1      -3.725   2.737  24.089  0.00  0.00    +0.023 A 
ATOM     15  C   UNL     1      -4.373   2.532  24.557  0.00  0.00    +0.014 A 
ATOM     16  C   UNL     1      -4.522   1.740  24.731  0.00  0.00    +0.041 A 
ATOM     17  C   UNL     1      -5.116   1.210  25.190  0.00  0.00    +0.058 C 
ATOM     18  C   UNL     1      -5.692   1.247  25.588  0.00  0.00    +0.011 C 
ATOM     19  C   UNL     1      -5.199   0.669  25.296  0.00  0.00    +0.043 C 
ATOM     20  C   UNL     1      -4.727  -0.161  25.040  0.00  0.00    +0.097 C 
ATOM     21  N   UNL     1      -4.109   0.165  24.582  0.00  0.00    -0.262 N 
ATOM     22  C   UNL     1      -4.671   0.399  24.952  0.00  0.00    +0.101 C 
ATOM     23  C   UNL     1      -3.433   0.192  24.109  0.00  0.00    +0.323 C 
ATOM     24  O   UNL     1      -3.143   0.918  23.844  0.00  0.00    -0.251 OA
ATOM     25  N   UNL     1      -3.047  -0.507  23.902  0.00  0.00    -0.190 NA
ATOM     32  C   UNL     1      -4.574   1.214  24.813  0.00  0.00    +0.110 C 
ATOM     33  N   UNL     1      -4.024   1.152  24.436  0.00  0.00    -0.298 N 
ATOM     34  C   UNL     1      -3.376   1.356  23.967  0.00  0.00    +0.276 A 
ATOM     35  O   UNL     1      -2.761   0.975  23.573  0.00  0.00    -0.266 OA
ENDROOT
BRANCH  25  26
ATOM     26  C   UNL     1      -3.336  -1.232  24.167  0.00  0.00    +0.097 C 
ATOM     27  C   UNL     1      -3.899  -1.640  23.722  0.00  0.00    +0.022 C 
ATOM     28  C   UNL     1      -4.188  -2.365  23.986  0.00  0.00    +0.002 C 
ATOM     29  C   UNL     1      -3.914  -2.684  24.696  0.00  0.00    +0.000 C 
ATOM     30  C   UNL     1      -3.351  -2.277  25.141  0.00  0.00    +0.002 C 
ATOM     31  C   UNL     1      -3.062  -1.552  24.877  0.00  0.00    +0.022 C 
ENDBRANCH  25  26
BRANCH  13  12
ATOM      9  N   UNL     1      -2.070   3.166  24.384  0.00  0.00    -0.158 NA
ATOM     10  C   UNL     1      -2.002   2.862  23.620  0.00  0.00    +0.348 C 
ATOM     11  O   UNL     1      -1.354   3.067  23.151  0.00  0.00    -0.248 OA
ATOM     12  N   UNL     1      -2.580   2.354  23.325  0.00  0.00    -0.156 NA
BRANCH   9   8
ATOM      3  C   UNL     1      -1.022   3.442  25.317  0.00  0.00    +0.154 A 
ATOM      4  C   UNL     1      -0.444   3.951  25.610  0.00  0.00    +0.038 A 
ATOM      5  C   UNL     1      -0.334   4.694  25.267  0.00  0.00    +0.003 A 
ATOM      6  C   UNL     1      -0.803   4.927  24.629  0.00  0.00    +0.002 A 
ATOM      7  C   UNL     1      -1.381   4.418  24.336  0.00  0.00    +0.020 A 
ATOM      8  C   UNL     1      -1.491   3.675  24.679  0.00  0.00    +0.109 A 
BRANCH   3   2
ATOM      1  C   UNL     1      -0.630   2.446  26.263  0.00  0.00    +0.253 C 
ATOM      2  O   UNL     1      -1.132   2.700  25.660  0.00  0.00    -0.470 OA
ENDBRANCH   3   2
ENDBRANCH   9   8
ENDBRANCH  13  12
TORSDOF 4
ENDMDL
MODEL 3
REMARK VINA RESULT:     -12.0      1.570      2.693
REMARK  Name = 
REMARK  4 active torsions:
REMARK  status: ('A' for Active; 'I' for Inactive)
REMARK    1  A    between atoms: O_2  and  C_3
REMARK    2  A    between atoms: C_8  and  N_9
REMARK    3  A    between atoms: N_12  and  C_13
REMARK    4  A    between atoms: N_25  and  C_26
REMARK                            x       y       z     vdW  Elec       q    Type
REMARK                         _______ _______ _______ _____ _____    ______ ____
ROOT
ATOM     13  C   UNL     1      -1.820   1.039  24.533  0.00  0.00    +0.131 A 
ATOM     14  C   UNL     1      -1.502   0.946  23.777  0.00  0.00    +0.023 A 
ATOM     15  C   UNL     1      -1.820   1.365  23.141  0.00  0.00    +0.014 A 
ATOM     16  C   UNL     1      -2.454   1.878  23.261  0.00  0.00    +0.041 A 
ATOM     17  C   UNL     1      -3.003   2.454  22.802  0.00  0.00    +0.058 C 
ATOM     18  C   UNL     1      -3.121   2.705  22.157  0.00  0.00    +0.011 C 
ATOM     19  C   UNL     1      -3.432   2.795  22.905  0.00  0.00    +0.043 C 
ATOM     20  C   UNL     1      -3.938   3.036  23.719  0.00  0.00    +0.097 C 
ATOM     21  N   UNL     1      -3.536   2.563  24.278  0.00  0.00    -0.262 N 
ATOM     22  C   UNL     1      -3.502   2.697  23.579  0.00  0.00    +0.101 C 
ATOM     23  C   UNL     1      -3.346   2.229  25.008  0.00  0.00    +0.323 C 
ATOM     24  O   UNL     1      -2.726   1.687  25.065  0.00  0.00    -0.251 OA
ATOM     25  N   UNL     1      -3.774   2.437  25.681  0.00  0.00    -0.190 NA
ATOM     32  C   UNL     1      -2.863   2.196  23.393  0.00  0.00    +0.110 C 
ATOM     33  N   UNL     1      -2.771   1.972  24.017  0.00  0.00    -0.298 N 
ATOM     34  C   UNL     1      -2.454   1.552  24.653  0.00  0.00    +0.276 A 
ATOM     35  O   UNL     1      -2.586   1.475  25.463  0.00  0.00    -0.266 OA
ENDROOT
BRANCH  25  26
ATOM     26  C   UNL     1      -4.394   2.979  25.625  0.00  0.00    +0.097 C 
ATOM     27  C   UNL     1      -5.165   2.712  25.504  0.00  0.00    +0.022 C 
ATOM     28  C   UNL     1      -5.785   3.253  25.448  0.00  0.00    +0.002 C 
ATOM     29  C   UNL     1      -5.634   4.062  25.512  0.00  0.00    +0.000 C 
ATOM     30  C   UNL     1      -4.863   4.328  25.634  0.00  0.00    +0.002 C 
ATOM     31  C   UNL     1      -4.243   3.788  25.690  0.00  0.00    +0.022 C 
ENDBRANCH  25  26
BRANCH  13  12
ATOM      9  N   UNL     1      -1.924  -0.607  24.569  0.00  0.00    -0.158 NA
ATOM     10  C   UNL     1      -1.554  -0.203  25.186  0.00  0.00    +0.348 C 
ATOM     11  O   UNL     1      -1.235  -0.623  25.822  0.00  0.00    -0.248 OA
ATOM     12  N   UNL     1      -1.502   0.620  25.167  0.00  0.00    -0.156 NA
BRANCH   9   8
ATOM      3  C   UNL     1      -2.695  -1.803  24.430  0.00  0.00    +0.154 A 
ATOM      4  C   UNL     1      -2.746  -2.626  24.449  0.00  0.00    +0.038 A 
ATOM      5  C   UNL     1      -2.078  -3.077  24.626  0.00  0.00    +0.003 A 
ATOM      6  C   UNL     1      -1.359  -2.705  24.784  0.00  0.00    +0.002 A 
ATOM      7  C   UNL     1      -1.308  -1.882  24.765  0.00  0.00    +0.020 A 
ATOM      8  C   UNL     1      -1.976  -1.431  24.588  0.00  0.00    +0.109 A 
BRANCH   3   2
ATOM      1  C   UNL     1      -4.070  -1.725  24.050  0.00  0.00    +0.253 C 
ATOM      2  O   UNL     1      -3.363  -1.352  24.253  0.00  0.00    -0.470 OA
ENDBRANCH   3   2
ENDBRANCH   9   8
ENDBRANCH  13  12
TORSDOF 4
ENDMDL
MODEL 4
REMARK VINA RESULT:     -12.0      1.671      5.252
REMARK  Name = 
REMARK  4 active torsions:
REMARK  status: ('A' for Active; 'I' for Inactive)
REMARK    1  A    between atoms: O_2  and  C_3
REMARK    2  A    between atoms: C_8  and  N_9
REMARK    3  A    between atoms: N_12  and  C_13
REMARK    4  A    between atoms: N_25  and  C_26
REMARK                            x       y       z     vdW  Elec       q    Type
REMARK                         _______ _______ _______ _____ _____    ______ ____
ROOT
ATOM     13  C   UNL     1      -2.280   1.534  23.772  0.00  0.00    +0.131 A 
ATOM     14  C   UNL     1      -1.500   1.794  23.709  0.00  0.00    +0.023 A 
ATOM     15  C   UNL     1      -0.878   1.275  23.865  0.00  0.00    +0.014 A 
ATOM     16  C   UNL     1      -1.036   0.496  24.084  0.00  0.00    +0.041 A 
ATOM     17  C   UNL     1      -0.605  -0.283  24.311  0.00  0.00    +0.058 C 
ATOM     18  C   UNL     1       0.038  -0.552  24.396  0.00  0.00    +0.011 C 
ATOM     19  C   UNL     1      -0.734  -0.806  24.457  0.00  0.00    +0.043 C 
ATOM     20  C   UNL     1      -1.584  -1.294  24.584  0.00  0.00    +0.097 C 
ATOM     21  N   UNL     1      -2.124  -0.683  24.403  0.00  0.00    -0.262 N 
ATOM     22  C   UNL     1      -1.418  -0.768  24.437  0.00  0.00    +0.101 C 
ATOM     23  C   UNL     1      -2.849  -0.306  24.286  0.00  0.00    +0.323 C 
ATOM     24  O   UNL     1      -2.870   0.488  24.060  0.00  0.00    -0.251 OA
ATOM     25  N   UNL     1      -3.552  -0.723  24.394  0.00  0.00    -0.190 NA
ATOM     32  C   UNL     1      -1.193   0.004  24.221  0.00  0.00    +0.110 C 
ATOM     33  N   UNL     1      -1.817   0.235  24.147  0.00  0.00    -0.298 N 
ATOM     34  C   UNL     1      -2.439   0.754  23.991  0.00  0.00    +0.276 A 
ATOM     35  O   UNL     1      -3.263   0.738  23.984  0.00  0.00    -0.266 OA
ENDROOT
BRANCH  25  26
ATOM     26  C   UNL     1      -3.532  -1.516  24.619  0.00  0.00    +0.097 C 
ATOM     27  C   UNL     1      -3.577  -2.108  24.047  0.00  0.00    +0.022 C 
ATOM     28  C   UNL     1      -3.557  -2.901  24.272  0.00  0.00    +0.002 C 
ATOM     29  C   UNL     1      -3.491  -3.103  25.070  0.00  0.00    +0.000 C 
ATOM     30  C   UNL     1      -3.446  -2.510  25.642  0.00  0.00    +0.002 C 
ATOM     31  C   UNL     1      -3.467  -1.717  25.417  0.00  0.00    +0.022 C 
ENDBRANCH  25  26
BRANCH  13  12
ATOM      9  N   UNL     1      -2.474   2.889  24.693  0.00  0.00    -0.158 NA
ATOM     10  C   UNL     1      -2.999   2.730  24.076  0.00  0.00    +0.348 C 
ATOM     11  O   UNL     1      -3.621   3.250  23.919  0.00  0.00    -0.248 OA
ATOM     12  N   UNL     1      -2.901   2.053  23.616  0.00  0.00    -0.156 NA
BRANCH   9   8
ATOM      3  C   UNL     1      -1.962   4.119  25.210  0.00  0.00    +0.154 A 
ATOM      4  C   UNL     1      -2.061   4.796  25.671  0.00  0.00    +0.038 A 
ATOM      5  C   UNL     1      -2.769   4.922  26.074  0.00  0.00    +0.003 A 
ATOM      6  C   UNL     1      -3.380   4.370  26.017  0.00  0.00    +0.002 A 
ATOM      7  C   UNL     1      -3.281   3.692  25.557  0.00  0.00    +0.020 A 
ATOM      8  C   UNL     1      -2.572   3.567  25.154  0.00  0.00    +0.109 A 
BRANCH   3   2
ATOM      1  C   UNL     1      -0.640   4.542  24.869  0.00  0.00    +0.253 C 
ATOM      2  O   UNL     1      -1.253   3.993  24.807  0.00  0.00    -0.470 OA
ENDBRANCH   3   2
ENDBRANCH   9   8
ENDBRANCH  13  12
TORSDOF 4
ENDMDL
MODEL 5
REMARK VINA RESULT:     -11.8      2.050      3.216
REMARK  Name = 
REMARK  4 active torsions:
REMARK  status: ('A' for Active; 'I' for Inactive)
REMARK    1  A    between atoms: O_2  and  C_3
REMARK    2  A    between atoms: C_8  and  N_9
REMARK    3  A    between atoms: N_12  and  C_13
REMARK    4  A    between atoms: N_25  and  C_26
REMARK                            x       y       z     vdW  Elec       q    Type
REMARK                         _______ _______ _______ _____ _____    ______ ____
ROOT
ATOM     13  C   UNL     1      -1.243  -0.278  25.422  0.00  0.00    +0.131 A 
ATOM     14  C   UNL     1      -0.758  -0.784  24.986  0.00  0.00    +0.023 A 
ATOM     15  C   UNL     1      -0.213  -0.472  24.450  0.00  0.00    +0.014 A 
ATOM     16  C   UNL     1      -0.154   0.344  24.350  0.00  0.00    +0.041 A 
ATOM     17  C   UNL     1       0.314   0.972  23.869  0.00  0.00    +0.058 C 
ATOM     18  C   UNL     1       0.818   1.031  23.385  0.00  0.00    +0.011 C 
ATOM     19  C   UNL     1       0.337   1.527  23.817  0.00  0.00    +0.043 C 
ATOM     20  C   UNL     1      -0.147   2.278  24.239  0.00  0.00    +0.097 C 
ATOM     21  N   UNL     1      -0.654   1.850  24.746  0.00  0.00    -0.262 N 
ATOM     22  C   UNL     1      -0.145   1.709  24.268  0.00  0.00    +0.101 C 
ATOM     23  C   UNL     1      -1.239   1.711  25.312  0.00  0.00    +0.323 C 
ATOM     24  O   UNL     1      -1.425   0.938  25.532  0.00  0.00    -0.251 OA
ATOM     25  N   UNL     1      -1.636   2.346  25.658  0.00  0.00    -0.190 NA
ATOM     32  C   UNL     1      -0.157   0.878  24.323  0.00  0.00    +0.110 C 
ATOM     33  N   UNL     1      -0.640   0.849  24.786  0.00  0.00    -0.298 N 
ATOM     34  C   UNL     1      -1.184   0.538  25.322  0.00  0.00    +0.276 A 
ATOM     35  O   UNL     1      -1.752   0.818  25.850  0.00  0.00    -0.266 OA
ENDROOT
BRANCH  25  26
ATOM     26  C   UNL     1      -1.450   3.118  25.439  0.00  0.00    +0.097 C 
ATOM     27  C   UNL     1      -0.824   3.511  25.804  0.00  0.00    +0.022 C 
ATOM     28  C   UNL     1      -0.637   4.284  25.586  0.00  0.00    +0.002 C 
ATOM     29  C   UNL     1      -1.078   4.665  25.000  0.00  0.00    +0.000 C 
ATOM     30  C   UNL     1      -1.704   4.272  24.635  0.00  0.00    +0.002 C 
ATOM     31  C   UNL     1      -1.891   3.500  24.854  0.00  0.00    +0.022 C 
ENDBRANCH  25  26
BRANCH  13  12
ATOM      9  N   UNL     1      -2.445  -1.277  24.892  0.00  0.00    -0.158 NA
ATOM     10  C   UNL     1      -2.387  -1.089  25.693  0.00  0.00    +0.348 C 
ATOM     11  O   UNL     1      -2.931  -1.402  26.230  0.00  0.00    -0.248 OA
ATOM     12  N   UNL     1      -1.786  -0.590  25.958  0.00  0.00    -0.156 NA
BRANCH   9   8
ATOM      3  C   UNL     1      -3.629  -1.488  24.119  0.00  0.00    +0.154 A 
ATOM      4  C   UNL     1      -4.230  -1.987  23.855  0.00  0.00    +0.038 A 
ATOM      5  C   UNL     1      -4.248  -2.775  24.099  0.00  0.00    +0.003 A 
ATOM      6  C   UNL     1      -3.666  -3.064  24.607  0.00  0.00    +0.002 A 
ATOM      7  C   UNL     1      -3.065  -2.564  24.871  0.00  0.00    +0.020 A 
ATOM      8  C   UNL     1      -3.046  -1.776  24.627  0.00  0.00    +0.109 A 
BRANCH   3   2
ATOM      1  C   UNL     1      -4.257  -0.375  23.480  0.00  0.00    +0.253 C 
ATOM      2  O   UNL     1      -3.610  -0.700  23.875  0.00  0.00    -0.470 OA
ENDBRANCH   3   2
ENDBRANCH   9   8
ENDBRANCH  13  12
TORSDOF 4
ENDMDL
MODEL 6
REMARK VINA RESULT:     -11.6      2.114      4.105
REMARK  Name = 
REMARK  4 active torsions:
REMARK  status: ('A' for Active; 'I' for Inactive)
REMARK    1  A    between atoms: O_2  and  C_3
REMARK    2  A    between atoms: C_8  and  N_9
REMARK    3  A    between atoms: N_12  and  C_13
REMARK    4  A    between atoms: N_25  and  C_26
REMARK                            x       y       z     vdW  Elec       q    Type
REMARK                         _______ _______ _______ _____ _____    ______ ____
ROOT
ATOM     13  C   UNL     1      -2.309   3.197  24.599  0.00  0.00    +0.131 A 
ATOM     14  C   UNL     1      -2.257   3.658  25.282  0.00  0.00    +0.023 A 
ATOM     15  C   UNL     1      -1.649   3.526  25.823  0.00  0.00    +0.014 A 
ATOM     16  C   UNL     1      -1.093   2.934  25.682  0.00  0.00    +0.041 A 
ATOM     17  C   UNL     1      -0.344   2.554  26.056  0.00  0.00    +0.058 C 
ATOM     18  C   UNL     1       0.076   2.602  26.616  0.00  0.00    +0.011 C 
ATOM     19  C   UNL     1       0.022   2.149  25.942  0.00  0.00    +0.043 C 
ATOM     20  C   UNL     1       0.124   1.507  25.198  0.00  0.00    +0.097 C 
ATOM     21  N   UNL     1      -0.530   1.731  24.728  0.00  0.00    -0.262 N 
ATOM     22  C   UNL     1      -0.231   1.927  25.344  0.00  0.00    +0.101 C 
ATOM     23  C   UNL     1      -1.061   1.728  24.096  0.00  0.00    +0.323 C 
ATOM     24  O   UNL     1      -1.687   2.266  24.081  0.00  0.00    -0.251 OA
ATOM     25  N   UNL     1      -0.966   1.187  23.481  0.00  0.00    -0.190 NA
ATOM     32  C   UNL     1      -0.760   2.539  25.543  0.00  0.00    +0.110 C 
ATOM     33  N   UNL     1      -1.145   2.473  25.000  0.00  0.00    -0.298 N 
ATOM     34  C   UNL     1      -1.753   2.604  24.458  0.00  0.00    +0.276 A 
ATOM     35  O   UNL     1      -2.010   2.295  23.738  0.00  0.00    -0.266 OA
ENDROOT
BRANCH  25  26
ATOM     26  C   UNL     1      -0.340   0.650  23.496  0.00  0.00    +0.097 C 
ATOM     27  C   UNL     1      -0.436  -0.085  23.858  0.00  0.00    +0.022 C 
ATOM     28  C   UNL     1       0.188  -0.623  23.874  0.00  0.00    +0.002 C 
ATOM     29  C   UNL     1       0.911  -0.426  23.526  0.00  0.00    +0.000 C 
ATOM     30  C   UNL     1       1.007   0.309  23.164  0.00  0.00    +0.002 C 
ATOM     31  C   UNL     1       0.382   0.847  23.149  0.00  0.00    +0.022 C 
ENDBRANCH  25  26
BRANCH  13  12
ATOM      9  N   UNL     1      -3.876   2.918  25.036  0.00  0.00    -0.158 NA
ATOM     10  C   UNL     1      -3.701   3.190  24.276  0.00  0.00    +0.348 C 
ATOM     11  O   UNL     1      -4.310   3.323  23.735  0.00  0.00    -0.248 OA
ATOM     12  N   UNL     1      -2.918   3.329  24.059  0.00  0.00    -0.156 NA
BRANCH   9   8
ATOM      3  C   UNL     1      -4.923   2.007  25.379  0.00  0.00    +0.154 A 
ATOM      4  C   UNL     1      -5.706   1.869  25.596  0.00  0.00    +0.038 A 
ATOM      5  C   UNL     1      -6.228   2.502  25.687  0.00  0.00    +0.003 A 
ATOM      6  C   UNL     1      -5.965   3.274  25.561  0.00  0.00    +0.002 A 
ATOM      7  C   UNL     1      -5.182   3.412  25.343  0.00  0.00    +0.020 A 
ATOM      8  C   UNL     1      -4.660   2.779  25.253  0.00  0.00    +0.109 A 
BRANCH   3   2
ATOM      1  C   UNL     1      -4.676   0.600  25.366  0.00  0.00    +0.253 C 
ATOM      2  O   UNL     1      -4.402   1.374  25.288  0.00  0.00    -0.470 OA
ENDBRANCH   3   2
ENDBRANCH   9   8
ENDBRANCH  13  12
TORSDOF 4
ENDMDL
MODEL 7
REMARK VINA RESULT:     -11.3      2.447      5.670
REMARK  Name = 
REMARK  4 active torsions:
REMARK  status: ('A' for Active; 'I' for Inactive)
REMARK    1  A    between atoms: O_2  and  C_3
REMARK    2  A    between atoms: C_8  and  N_9
REMARK    3  A    between atoms: N_12  and  C_13
REMARK    4  A    between atoms: N_25  and  C_26
REMARK                            x       y       z     vdW  Elec       q    Type
REMARK                         _______ _______ _______ _____ _____    ______ ____
ROOT
ATOM     13  C   UNL     1      -0.306   1.699  25.356  0.00  0.00    +0.131 A 
ATOM     14  C   UNL     1       0.259   2.044  24.864  0.00  0.00    +0.023 A 
ATOM     15  C   UNL     1       0.536   1.635  24.203  0.00  0.00    +0.014 A 
ATOM     16  C   UNL     1       0.248   0.881  24.035  0.00  0.00    +0.041 A 
ATOM     17  C   UNL     1       0.339   0.202  23.422  0.00  0.00    +0.058 C 
ATOM     18  C   UNL     1       0.690   0.031  22.838  0.00  0.00    +0.011 C 
ATOM     19  C   UNL     1       0.131  -0.306  23.326  0.00  0.00    +0.043 C 
ATOM     20  C   UNL     1      -0.534  -0.874  23.786  0.00  0.00    +0.097 C 
ATOM     21  N   UNL     1      -0.736  -0.368  24.419  0.00  0.00    -0.262 N 
ATOM     22  C   UNL     1      -0.301  -0.358  23.855  0.00  0.00    +0.101 C 
ATOM     23  C   UNL     1      -1.113  -0.105  25.105  0.00  0.00    +0.323 C 
ATOM     24  O   UNL     1      -0.937   0.640  25.414  0.00  0.00    -0.251 OA
ATOM     25  N   UNL     1      -1.666  -0.588  25.481  0.00  0.00    -0.190 NA
ATOM     32  C   UNL     1       0.029   0.397  23.971  0.00  0.00    +0.110 C 
ATOM     33  N   UNL     1      -0.318   0.536  24.527  0.00  0.00    -0.298 N 
ATOM     34  C   UNL     1      -0.595   0.945  25.187  0.00  0.00    +0.276 A 
ATOM     35  O   UNL     1      -1.131   0.825  25.803  0.00  0.00    -0.266 OA
ENDROOT
BRANCH  25  26
ATOM     26  C   UNL     1      -1.843  -1.332  25.173  0.00  0.00    +0.097 C 
ATOM     27  C   UNL     1      -2.495  -1.429  24.677  0.00  0.00    +0.022 C 
ATOM     28  C   UNL     1      -2.672  -2.172  24.368  0.00  0.00    +0.002 C 
ATOM     29  C   UNL     1      -2.197  -2.821  24.555  0.00  0.00    +0.000 C 
ATOM     30  C   UNL     1      -1.545  -2.724  25.051  0.00  0.00    +0.002 C 
ATOM     31  C   UNL     1      -1.368  -1.980  25.360  0.00  0.00    +0.022 C 
ENDBRANCH  25  26
BRANCH  13  12
ATOM      9  N   UNL     1      -1.084   3.142  25.165  0.00  0.00    -0.158 NA
ATOM     10  C   UNL     1      -0.971   2.830  25.921  0.00  0.00    +0.348 C 
ATOM     11  O   UNL     1      -1.248   3.240  26.582  0.00  0.00    -0.248 OA
ATOM     12  N   UNL     1      -0.583   2.109  26.016  0.00  0.00    -0.156 NA
BRANCH   9   8
ATOM      3  C   UNL     1      -2.215   3.889  24.712  0.00  0.00    +0.154 A 
ATOM      4  C   UNL     1      -2.604   4.611  24.619  0.00  0.00    +0.038 A 
ATOM      5  C   UNL     1      -2.250   5.307  24.884  0.00  0.00    +0.003 A 
ATOM      6  C   UNL     1      -1.507   5.282  25.243  0.00  0.00    +0.002 A 
ATOM      7  C   UNL     1      -1.119   4.561  25.336  0.00  0.00    +0.020 A 
ATOM      8  C   UNL     1      -1.473   3.864  25.071  0.00  0.00    +0.109 A 
BRANCH   3   2
ATOM      1  C   UNL     1      -3.284   3.224  24.036  0.00  0.00    +0.253 C 
ATOM      2  O   UNL     1      -2.569   3.193  24.447  0.00  0.00    -0.470 OA
ENDBRANCH   3   2
ENDBRANCH   9   8
ENDBRANCH  13  12
TORSDOF 4
ENDMDL
MODEL 8
REMARK VINA RESULT:     -11.1      2.281      4.223
REMARK  Name = 
REMARK  4 active torsions:
REMARK  status: ('A' for Active; 'I' for Inactive)
REMARK    1  A    between atoms: O_2  and  C_3
REMARK    2  A    between atoms: C_8  and  N_9
REMARK    3  A    between atoms: N_12  and  C_13
REMARK    4  A    between atoms: N_25  and  C_26
REMARK                            x       y       z     vdW  Elec       q    Type
REMARK                         _______ _______ _______ _____ _____    ______ ____
ROOT
ATOM     13  C   UNL     1      -3.215   0.753  24.288  0.00  0.00    +0.131 A 
ATOM     14  C   UNL     1      -3.591   0.369  24.914  0.00  0.00    +0.023 A 
ATOM     15  C   UNL     1      -3.156  -0.116  25.420  0.00  0.00    +0.014 A 
ATOM     16  C   UNL     1      -2.346  -0.217  25.301  0.00  0.00    +0.041 A 
ATOM     17  C   UNL     1      -1.622  -0.656  25.656  0.00  0.00    +0.058 C 
ATOM     18  C   UNL     1      -1.443  -1.091  26.177  0.00  0.00    +0.011 C 
ATOM     19  C   UNL     1      -1.075  -0.710  25.558  0.00  0.00    +0.043 C 
ATOM     20  C   UNL     1      -0.460  -0.342  24.878  0.00  0.00    +0.097 C 
ATOM     21  N   UNL     1      -1.000   0.119  24.436  0.00  0.00    -0.262 N 
ATOM     22  C   UNL     1      -1.015  -0.308  25.006  0.00  0.00    +0.101 C 
ATOM     23  C   UNL     1      -1.276   0.628  23.848  0.00  0.00    +0.323 C 
ATOM     24  O   UNL     1      -2.074   0.835  23.823  0.00  0.00    -0.251 OA
ATOM     25  N   UNL     1      -0.753   0.930  23.286  0.00  0.00    -0.190 NA
ATOM     32  C   UNL     1      -1.827  -0.248  25.179  0.00  0.00    +0.110 C 
ATOM     33  N   UNL     1      -1.971   0.168  24.675  0.00  0.00    -0.298 N 
ATOM     34  C   UNL     1      -2.405   0.653  24.168  0.00  0.00    +0.276 A 
ATOM     35  O   UNL     1      -2.270   1.123  23.504  0.00  0.00    -0.266 OA
ENDROOT
BRANCH  25  26
ATOM     26  C   UNL     1       0.045   0.723  23.311  0.00  0.00    +0.097 C 
ATOM     27  C   UNL     1       0.580   1.194  23.725  0.00  0.00    +0.022 C 
ATOM     28  C   UNL     1       1.378   0.989  23.750  0.00  0.00    +0.002 C 
ATOM     29  C   UNL     1       1.642   0.310  23.360  0.00  0.00    +0.000 C 
ATOM     30  C   UNL     1       1.106  -0.161  22.946  0.00  0.00    +0.002 C 
ATOM     31  C   UNL     1       0.308   0.045  22.921  0.00  0.00    +0.022 C 
ENDBRANCH  25  26
BRANCH  13  12
ATOM      9  N   UNL     1      -4.078   2.020  24.898  0.00  0.00    -0.158 NA
ATOM     10  C   UNL     1      -4.082   1.871  24.086  0.00  0.00    +0.348 C 
ATOM     11  O   UNL     1      -4.517   2.356  23.579  0.00  0.00    -0.248 OA
ATOM     12  N   UNL     1      -3.650   1.238  23.782  0.00  0.00    -0.156 NA
BRANCH   9   8
ATOM      3  C   UNL     1      -4.120   3.281  25.570  0.00  0.00    +0.154 A 
ATOM      4  C   UNL     1      -4.552   3.915  25.874  0.00  0.00    +0.038 A 
ATOM      5  C   UNL     1      -5.375   3.921  25.810  0.00  0.00    +0.003 A 
ATOM      6  C   UNL     1      -5.765   3.294  25.443  0.00  0.00    +0.002 A 
ATOM      7  C   UNL     1      -5.333   2.661  25.139  0.00  0.00    +0.020 A 
ATOM      8  C   UNL     1      -4.510   2.654  25.202  0.00  0.00    +0.109 A 
BRANCH   3   2
ATOM      1  C   UNL     1      -2.909   3.881  26.037  0.00  0.00    +0.253 C 
ATOM      2  O   UNL     1      -3.297   3.275  25.634  0.00  0.00    -0.470 OA
ENDBRANCH   3   2
ENDBRANCH   9   8
ENDBRANCH  13  12
TORSDOF 4
ENDMDL
