MODEL 1
REMARK VINA RESULT:     -11.8      0.000      0.000
REMARK  Name = 
REMARK  8 active torsions:
REMARK  status: ('A' for Active; 'I' for Inactive)
REMARK    1  A    between atoms: N_5  and  C_8
REMARK    2  A    between atoms: C_9  and  C_10
REMARK    3  A    between atoms: C_10  and  N_11
REMARK    4  A    between atoms: N_11  and  C_12
REMARK    5  A    between atoms: N_11  and  C_20
REMARK    6  A    between atoms: C_12  and  C_13
REMARK    7  A    between atoms: C_20  and  C_21
REMARK    8  A    between atoms: C_29  and  C_30
REMARK                            x       y       z     vdW  Elec       q    Type
REMARK                         _______ _______ _______ _____ _____    ______ ____
ROOT
ATOM     11  N   UNL     1      -3.803   0.953  24.848  0.00  0.00    -0.263 NA
ENDROOT
BRANCH  11  10
ATOM     10  C   UNL     1      -2.987   1.074  24.852  0.00  0.00    +0.104 C 
BRANCH  10   9
ATOM      8  C   UNL     1      -1.873   1.732  24.155  0.00  0.00    +0.120 C 
ATOM      9  C   UNL     1      -2.610   1.361  24.178  0.00  0.00    +0.148 C 
ATOM     28  O   UNL     1      -2.901   1.328  23.407  0.00  0.00    -0.350 OA
ATOM     29  C   UNL     1      -2.345   1.678  22.908  0.00  0.00    +0.180 C 
ATOM     32  C   UNL     1      -1.710   1.928  23.371  0.00  0.00    +0.198 C 
ATOM     33  O   UNL     1      -1.030   2.308  23.096  0.00  0.00    -0.219 OA
BRANCH   8   5
ATOM      1  C   UNL     1       0.078   2.328  26.749  0.00  0.00    +0.090 C 
ATOM      2  N   UNL     1      -0.409   2.179  26.100  0.00  0.00    -0.269 NA
ATOM      3  C   UNL     1      -0.375   1.449  25.718  0.00  0.00    +0.090 C 
ATOM      4  C   UNL     1      -0.863   1.300  25.070  0.00  0.00    +0.090 C 
ATOM      5  N   UNL     1      -1.385   1.881  24.803  0.00  0.00    -0.267 NA
ATOM      6  C   UNL     1      -1.419   2.611  25.186  0.00  0.00    +0.090 C 
ATOM      7  C   UNL     1      -0.931   2.760  25.835  0.00  0.00    +0.090 C 
ENDBRANCH   8   5
BRANCH  29  30
ATOM     30  C   UNL     1      -2.414   1.764  22.090  0.00  0.00    +0.214 C 
ATOM     31  O   UNL     1      -2.902   2.348  21.776  0.00  0.00    -0.218 OA
ENDBRANCH  29  30
ENDBRANCH  10   9
ENDBRANCH  11  10
BRANCH  11  12
ATOM     12  C   UNL     1      -4.129   0.320  25.266  0.00  0.00    +0.099 C 
BRANCH  12  13
ATOM     13  C   UNL     1      -3.942  -0.454  25.052  0.00  0.00    -0.006 A 
ATOM     14  C   UNL     1      -4.255  -0.779  24.361  0.00  0.00    -0.002 A 
ATOM     15  C   UNL     1      -4.068  -1.554  24.148  0.00  0.00    +0.011 A 
ATOM     16  C   UNL     1      -3.568  -2.004  24.626  0.00  0.00    +0.058 A 
ATOM     17 CL   UNL     1      -3.382  -2.779  24.412  0.00  0.00    -0.082 Cl
ATOM     18  C   UNL     1      -3.255  -1.680  25.317  0.00  0.00    +0.011 A 
ATOM     19  C   UNL     1      -3.443  -0.905  25.530  0.00  0.00    -0.002 A 
ENDBRANCH  12  13
ENDBRANCH  11  12
BRANCH  11  20
ATOM     20  C   UNL     1      -4.294   1.464  24.425  0.00  0.00    +0.099 C 
BRANCH  20  21
ATOM     21  C   UNL     1      -4.864   1.911  24.821  0.00  0.00    -0.005 A 
ATOM     22  C   UNL     1      -5.645   1.648  24.854  0.00  0.00    -0.003 A 
ATOM     23  C   UNL     1      -6.215   2.094  25.250  0.00  0.00    +0.001 A 
ATOM     24  C   UNL     1      -6.002   2.804  25.614  0.00  0.00    +0.011 A 
ATOM     25  C   UNL     1      -5.222   3.067  25.581  0.00  0.00    +0.057 A 
ATOM     26 CL   UNL     1      -5.009   3.777  25.945  0.00  0.00    -0.082 Cl
ATOM     27  C   UNL     1      -4.651   2.620  25.185  0.00  0.00    +0.008 A 
ENDBRANCH  20  21
ENDBRANCH  11  20
TORSDOF 8
ENDMDL
MODEL 2
REMARK VINA RESULT:     -11.3      0.512      3.096
REMARK  Name = 
REMARK  8 active torsions:
REMARK  status: ('A' for Active; 'I' for Inactive)
REMARK    1  A    between atoms: N_5  and  C_8
REMARK    2  A    between atoms: C_9  and  C_10
REMARK    3  A    between atoms: C_10  and  N_11
REMARK    4  A    between atoms: N_11  and  C_12
REMARK    5  A    between atoms: N_11  and  C_20
REMARK    6  A    between atoms: C_12  and  C_13
REMARK    7  A    between atoms: C_20  and  C_21
REMARK    8  A    between atoms: C_29  and  C_30
REMARK                            x       y       z     vdW  Elec       q    Type
REMARK                         _______ _______ _______ _____ _____    ______ ____
ROOT
ATOM     11  N   UNL     1      -3.634   0.741  24.770  0.00  0.00    -0.263 NA
ENDROOT
BRANCH  11  10
ATOM     10  C   UNL     1      -3.002   1.266  24.847  0.00  0.00    +0.104 C 
BRANCH  10   9
ATOM      8  C   UNL     1      -1.872   1.901  24.154  0.00  0.00    +0.120 C 
ATOM      9  C   UNL     1      -2.618   1.548  24.174  0.00  0.00    +0.148 C 
ATOM     28  O   UNL     1      -2.910   1.527  23.404  0.00  0.00    -0.350 OA
ATOM     29  C   UNL     1      -2.346   1.867  22.907  0.00  0.00    +0.180 C 
ATOM     32  C   UNL     1      -1.705   2.098  23.371  0.00  0.00    +0.198 C 
ATOM     33  O   UNL     1      -1.016   2.463  23.099  0.00  0.00    -0.219 OA
BRANCH   8   5
ATOM      1  C   UNL     1       0.093   2.432  26.751  0.00  0.00    +0.090 C 
ATOM      2  N   UNL     1      -0.398   2.300  26.102  0.00  0.00    -0.269 NA
ATOM      3  C   UNL     1      -0.938   2.879  25.868  0.00  0.00    +0.090 C 
ATOM      4  C   UNL     1      -1.429   2.746  25.219  0.00  0.00    +0.090 C 
ATOM      5  N   UNL     1      -1.381   2.034  24.803  0.00  0.00    -0.267 NA
ATOM      6  C   UNL     1      -0.841   1.456  25.038  0.00  0.00    +0.090 C 
ATOM      7  C   UNL     1      -0.350   1.589  25.687  0.00  0.00    +0.090 C 
ENDBRANCH   8   5
BRANCH  29  30
ATOM     30  C   UNL     1      -2.412   1.960  22.089  0.00  0.00    +0.214 C 
ATOM     31  O   UNL     1      -3.055   2.364  21.771  0.00  0.00    -0.218 OA
ENDBRANCH  29  30
ENDBRANCH  10   9
ENDBRANCH  11  10
BRANCH  11  12
ATOM     12  C   UNL     1      -4.278   0.793  25.283  0.00  0.00    +0.099 C 
BRANCH  12  13
ATOM     13  C   UNL     1      -4.730   1.483  25.308  0.00  0.00    -0.006 A 
ATOM     14  C   UNL     1      -5.346   1.593  24.771  0.00  0.00    -0.002 A 
ATOM     15  C   UNL     1      -5.797   2.284  24.796  0.00  0.00    +0.011 A 
ATOM     16  C   UNL     1      -5.632   2.864  25.359  0.00  0.00    +0.058 A 
ATOM     17 CL   UNL     1      -6.084   3.554  25.384  0.00  0.00    -0.082 Cl
ATOM     18  C   UNL     1      -5.016   2.754  25.897  0.00  0.00    +0.011 A 
ATOM     19  C   UNL     1      -4.565   2.064  25.871  0.00  0.00    -0.002 A 
ENDBRANCH  12  13
ENDBRANCH  11  12
BRANCH  11  20
ATOM     20  C   UNL     1      -3.622   0.163  24.182  0.00  0.00    +0.099 C 
BRANCH  20  21
ATOM     21  C   UNL     1      -3.639  -0.636  24.387  0.00  0.00    -0.005 A 
ATOM     22  C   UNL     1      -3.257  -0.894  25.072  0.00  0.00    -0.003 A 
ATOM     23  C   UNL     1      -3.274  -1.693  25.277  0.00  0.00    +0.001 A 
ATOM     24  C   UNL     1      -3.672  -2.234  24.797  0.00  0.00    +0.011 A 
ATOM     25  C   UNL     1      -4.053  -1.976  24.113  0.00  0.00    +0.057 A 
ATOM     26 CL   UNL     1      -4.451  -2.516  23.633  0.00  0.00    -0.082 Cl
ATOM     27  C   UNL     1      -4.037  -1.176  23.907  0.00  0.00    +0.008 A 
ENDBRANCH  20  21
ENDBRANCH  11  20
TORSDOF 8
ENDMDL
MODEL 3
REMARK VINA RESULT:     -11.3      1.896      3.709
REMARK  Name = 
REMARK  8 active torsions:
REMARK  status: ('A' for Active; 'I' for Inactive)
REMARK    1  A    between atoms: N_5  and  C_8
REMARK    2  A    between atoms: C_9  and  C_10
REMARK    3  A    between atoms: C_10  and  N_11
REMARK    4  A    between atoms: N_11  and  C_12
REMARK    5  A    between atoms: N_11  and  C_20
REMARK    6  A    between atoms: C_12  and  C_13
REMARK    7  A    between atoms: C_20  and  C_21
REMARK    8  A    between atoms: C_29  and  C_30
REMARK                            x       y       z     vdW  Elec       q    Type
REMARK                         _______ _______ _______ _____ _____    ______ ____
ROOT
ATOM     11  N   UNL     1      -3.228   0.727  24.723  0.00  0.00    -0.263 NA
ENDROOT
BRANCH  11  10
ATOM     10  C   UNL     1      -3.247   1.533  24.897  0.00  0.00    +0.104 C 
BRANCH  10   9
ATOM      8  C   UNL     1      -4.075   2.713  25.188  0.00  0.00    +0.120 C 
ATOM      9  C   UNL     1      -3.968   1.908  25.037  0.00  0.00    +0.148 C 
ATOM     28  O   UNL     1      -4.708   1.546  25.051  0.00  0.00    -0.350 OA
ATOM     29  C   UNL     1      -5.273   2.125  25.210  0.00  0.00    +0.180 C 
ATOM     32  C   UNL     1      -4.882   2.846  25.295  0.00  0.00    +0.198 C 
ATOM     33  O   UNL     1      -5.235   3.574  25.458  0.00  0.00    -0.219 OA
BRANCH   8   5
ATOM      1  C   UNL     1      -1.694   4.992  25.337  0.00  0.00    +0.090 C 
ATOM      2  N   UNL     1      -2.289   4.422  25.300  0.00  0.00    -0.269 NA
ATOM      3  C   UNL     1      -2.696   4.297  24.593  0.00  0.00    +0.090 C 
ATOM      4  C   UNL     1      -3.291   3.727  24.556  0.00  0.00    +0.090 C 
ATOM      5  N   UNL     1      -3.480   3.283  25.225  0.00  0.00    -0.267 NA
ATOM      6  C   UNL     1      -3.073   3.409  25.931  0.00  0.00    +0.090 C 
ATOM      7  C   UNL     1      -2.477   3.979  25.969  0.00  0.00    +0.090 C 
ENDBRANCH   8   5
BRANCH  29  30
ATOM     30  C   UNL     1      -6.087   2.005  25.274  0.00  0.00    +0.214 C 
ATOM     31  O   UNL     1      -6.507   1.683  24.641  0.00  0.00    -0.218 OA
ENDBRANCH  29  30
ENDBRANCH  10   9
ENDBRANCH  11  10
BRANCH  11  12
ATOM     12  C   UNL     1      -2.690   0.438  24.168  0.00  0.00    +0.099 C 
BRANCH  12  13
ATOM     13  C   UNL     1      -1.908   0.700  24.176  0.00  0.00    -0.006 A 
ATOM     14  C   UNL     1      -1.443   0.589  24.848  0.00  0.00    -0.002 A 
ATOM     15  C   UNL     1      -0.661   0.852  24.855  0.00  0.00    +0.011 A 
ATOM     16  C   UNL     1      -0.344   1.224  24.190  0.00  0.00    +0.058 A 
ATOM     17 CL   UNL     1       0.438   1.486  24.199  0.00  0.00    -0.082 Cl
ATOM     18  C   UNL     1      -0.809   1.335  23.518  0.00  0.00    +0.011 A 
ATOM     19  C   UNL     1      -1.591   1.072  23.511  0.00  0.00    -0.002 A 
ENDBRANCH  12  13
ENDBRANCH  11  12
BRANCH  11  20
ATOM     20  C   UNL     1      -3.746   0.210  25.103  0.00  0.00    +0.099 C 
BRANCH  20  21
ATOM     21  C   UNL     1      -3.806  -0.573  24.853  0.00  0.00    -0.005 A 
ATOM     22  C   UNL     1      -4.127  -0.747  24.113  0.00  0.00    -0.003 A 
ATOM     23  C   UNL     1      -4.186  -1.531  23.863  0.00  0.00    +0.001 A 
ATOM     24  C   UNL     1      -3.924  -2.141  24.352  0.00  0.00    +0.011 A 
ATOM     25  C   UNL     1      -3.602  -1.968  25.091  0.00  0.00    +0.057 A 
ATOM     26 CL   UNL     1      -3.339  -2.578  25.581  0.00  0.00    -0.082 Cl
ATOM     27  C   UNL     1      -3.543  -1.183  25.342  0.00  0.00    +0.008 A 
ENDBRANCH  20  21
ENDBRANCH  11  20
TORSDOF 8
ENDMDL
MODEL 4
REMARK VINA RESULT:     -11.2      1.844      3.264
REMARK  Name = 
REMARK  8 active torsions:
REMARK  status: ('A' for Active; 'I' for Inactive)
REMARK    1  A    between atoms: N_5  and  C_8
REMARK    2  A    between atoms: C_9  and  C_10
REMARK    3  A    between atoms: C_10  and  N_11
REMARK    4  A    between atoms: N_11  and  C_12
REMARK    5  A    between atoms: N_11  and  C_20
REMARK    6  A    between atoms: C_12  and  C_13
REMARK    7  A    between atoms: C_20  and  C_21
REMARK    8  A    between atoms: C_29  and  C_30
REMARK                            x       y       z     vdW  Elec       q    Type
REMARK                         _______ _______ _______ _____ _____    ______ ____
ROOT
ATOM     11  N   UNL     1      -3.374   0.773  24.655  0.00  0.00    -0.263 NA
ENDROOT
BRANCH  11  10
ATOM     10  C   UNL     1      -3.397   1.581  24.818  0.00  0.00    +0.104 C 
BRANCH  10   9
ATOM      8  C   UNL     1      -4.222   2.742  25.184  0.00  0.00    +0.120 C 
ATOM      9  C   UNL     1      -4.116   1.947  24.987  0.00  0.00    +0.148 C 
ATOM     28  O   UNL     1      -4.856   1.584  24.990  0.00  0.00    -0.350 OA
ATOM     29  C   UNL     1      -5.420   2.153  25.188  0.00  0.00    +0.180 C 
ATOM     32  C   UNL     1      -5.028   2.868  25.308  0.00  0.00    +0.198 C 
ATOM     33  O   UNL     1      -5.380   3.585  25.516  0.00  0.00    -0.219 OA
BRANCH   8   5
ATOM      1  C   UNL     1      -1.840   5.012  25.431  0.00  0.00    +0.090 C 
ATOM      2  N   UNL     1      -2.436   4.444  25.369  0.00  0.00    -0.269 NA
ATOM      3  C   UNL     1      -2.618   3.966  26.017  0.00  0.00    +0.090 C 
ATOM      4  C   UNL     1      -3.213   3.399  25.955  0.00  0.00    +0.090 C 
ATOM      5  N   UNL     1      -3.627   3.309  25.246  0.00  0.00    -0.267 NA
ATOM      6  C   UNL     1      -3.444   3.788  24.599  0.00  0.00    +0.090 C 
ATOM      7  C   UNL     1      -2.848   4.355  24.661  0.00  0.00    +0.090 C 
ENDBRANCH   8   5
BRANCH  29  30
ATOM     30  C   UNL     1      -6.233   2.028  25.255  0.00  0.00    +0.214 C 
ATOM     31  O   UNL     1      -6.644   1.656  24.645  0.00  0.00    -0.218 OA
ENDBRANCH  29  30
ENDBRANCH  10   9
ENDBRANCH  11  10
BRANCH  11  12
ATOM     12  C   UNL     1      -3.849   0.252  25.084  0.00  0.00    +0.099 C 
BRANCH  12  13
ATOM     13  C   UNL     1      -3.835  -0.555  24.911  0.00  0.00    -0.006 A 
ATOM     14  C   UNL     1      -4.169  -0.832  24.210  0.00  0.00    -0.002 A 
ATOM     15  C   UNL     1      -4.155  -1.639  24.038  0.00  0.00    +0.011 A 
ATOM     16  C   UNL     1      -3.808  -2.169  24.567  0.00  0.00    +0.058 A 
ATOM     17 CL   UNL     1      -3.794  -2.975  24.395  0.00  0.00    -0.082 Cl
ATOM     18  C   UNL     1      -3.474  -1.891  25.269  0.00  0.00    +0.011 A 
ATOM     19  C   UNL     1      -3.488  -1.084  25.441  0.00  0.00    -0.002 A 
ENDBRANCH  12  13
ENDBRANCH  11  12
BRANCH  11  20
ATOM     20  C   UNL     1      -2.876   0.485  24.064  0.00  0.00    +0.099 C 
BRANCH  20  21
ATOM     21  C   UNL     1      -2.119   0.798  23.973  0.00  0.00    -0.005 A 
ATOM     22  C   UNL     1      -1.914   1.188  23.275  0.00  0.00    -0.003 A 
ATOM     23  C   UNL     1      -1.156   1.501  23.184  0.00  0.00    +0.001 A 
ATOM     24  C   UNL     1      -0.603   1.424  23.791  0.00  0.00    +0.011 A 
ATOM     25  C   UNL     1      -0.807   1.035  24.489  0.00  0.00    +0.057 A 
ATOM     26 CL   UNL     1      -0.254   0.958  25.096  0.00  0.00    -0.082 Cl
ATOM     27  C   UNL     1      -1.565   0.721  24.580  0.00  0.00    +0.008 A 
ENDBRANCH  20  21
ENDBRANCH  11  20
TORSDOF 8
ENDMDL
MODEL 5
REMARK VINA RESULT:     -10.7      1.361      3.328
REMARK  Name = 
REMARK  8 active torsions:
REMARK  status: ('A' for Active; 'I' for Inactive)
REMARK    1  A    between atoms: N_5  and  C_8
REMARK    2  A    between atoms: C_9  and  C_10
REMARK    3  A    between atoms: C_10  and  N_11
REMARK    4  A    between atoms: N_11  and  C_12
REMARK    5  A    between atoms: N_11  and  C_20
REMARK    6  A    between atoms: C_12  and  C_13
REMARK    7  A    between atoms: C_20  and  C_21
REMARK    8  A    between atoms: C_29  and  C_30
REMARK                            x       y       z     vdW  Elec       q    Type
REMARK                         _______ _______ _______ _____ _____    ______ ____
ROOT
ATOM     11  N   UNL     1      -2.353   0.652  24.847  0.00  0.00    -0.263 NA
ENDROOT
BRANCH  11  10
ATOM     10  C   UNL     1      -2.850   1.311  24.827  0.00  0.00    +0.104 C 
BRANCH  10   9
ATOM      8  C   UNL     1      -3.604   2.244  23.978  0.00  0.00    +0.120 C 
ATOM      9  C   UNL     1      -3.016   1.680  24.109  0.00  0.00    +0.148 C 
ATOM     28  O   UNL     1      -2.625   1.550  23.395  0.00  0.00    -0.350 OA
ATOM     29  C   UNL     1      -2.970   2.034  22.823  0.00  0.00    +0.180 C 
ATOM     32  C   UNL     1      -3.575   2.462  23.184  0.00  0.00    +0.198 C 
ATOM     33  O   UNL     1      -4.066   3.014  22.814  0.00  0.00    -0.219 OA
BRANCH   8   5
ATOM      1  C   UNL     1      -5.702   3.418  26.239  0.00  0.00    +0.090 C 
ATOM      2  N   UNL     1      -5.177   3.125  25.674  0.00  0.00    -0.269 NA
ATOM      3  C   UNL     1      -4.447   3.491  25.560  0.00  0.00    +0.090 C 
ATOM      4  C   UNL     1      -3.922   3.197  24.995  0.00  0.00    +0.090 C 
ATOM      5  N   UNL     1      -4.129   2.538  24.544  0.00  0.00    -0.267 NA
ATOM      6  C   UNL     1      -4.859   2.173  24.658  0.00  0.00    +0.090 C 
ATOM      7  C   UNL     1      -5.384   2.466  25.223  0.00  0.00    +0.090 C 
ENDBRANCH   8   5
BRANCH  29  30
ATOM     30  C   UNL     1      -2.749   2.081  22.030  0.00  0.00    +0.214 C 
ATOM     31  O   UNL     1      -1.954   2.025  21.819  0.00  0.00    -0.218 OA
ENDBRANCH  29  30
ENDBRANCH  10   9
ENDBRANCH  11  10
BRANCH  11  12
ATOM     12  C   UNL     1      -2.455   0.042  24.301  0.00  0.00    +0.099 C 
BRANCH  12  13
ATOM     13  C   UNL     1      -2.712  -0.700  24.555  0.00  0.00    -0.006 A 
ATOM     14  C   UNL     1      -3.323  -0.759  25.106  0.00  0.00    -0.002 A 
ATOM     15  C   UNL     1      -3.580  -1.501  25.359  0.00  0.00    +0.011 A 
ATOM     16  C   UNL     1      -3.225  -2.184  25.062  0.00  0.00    +0.058 A 
ATOM     17 CL   UNL     1      -3.482  -2.926  25.316  0.00  0.00    -0.082 Cl
ATOM     18  C   UNL     1      -2.614  -2.125  24.511  0.00  0.00    +0.011 A 
ATOM     19  C   UNL     1      -2.357  -1.383  24.258  0.00  0.00    -0.002 A 
ENDBRANCH  12  13
ENDBRANCH  11  12
BRANCH  11  20
ATOM     20  C   UNL     1      -1.755   0.603  25.413  0.00  0.00    +0.099 C 
BRANCH  20  21
ATOM     21  C   UNL     1      -1.075   1.065  25.337  0.00  0.00    -0.005 A 
ATOM     22  C   UNL     1      -0.511   0.877  24.764  0.00  0.00    -0.003 A 
ATOM     23  C   UNL     1       0.168   1.338  24.688  0.00  0.00    +0.001 A 
ATOM     24  C   UNL     1       0.283   1.988  25.183  0.00  0.00    +0.011 A 
ATOM     25  C   UNL     1      -0.280   2.175  25.755  0.00  0.00    +0.057 A 
ATOM     26 CL   UNL     1      -0.165   2.825  26.251  0.00  0.00    -0.082 Cl
ATOM     27  C   UNL     1      -0.960   1.714  25.832  0.00  0.00    +0.008 A 
ENDBRANCH  20  21
ENDBRANCH  11  20
TORSDOF 8
ENDMDL
MODEL 6
REMARK VINA RESULT:     -10.7      1.401      1.977
REMARK  Name = 
REMARK  8 active torsions:
REMARK  status: ('A' for Active; 'I' for Inactive)
REMARK    1  A    between atoms: N_5  and  C_8
REMARK    2  A    between atoms: C_9  and  C_10
REMARK    3  A    between atoms: C_10  and  N_11
REMARK    4  A    between atoms: N_11  and  C_12
REMARK    5  A    between atoms: N_11  and  C_20
REMARK    6  A    between atoms: C_12  and  C_13
REMARK    7  A    between atoms: C_20  and  C_21
REMARK    8  A    between atoms: C_29  and  C_30
REMARK                            x       y       z     vdW  Elec       q    Type
REMARK                         _______ _______ _______ _____ _____    ______ ____
ROOT
ATOM     11  N   UNL     1      -2.478   0.529  24.664  0.00  0.00    -0.263 NA
ENDROOT
BRANCH  11  10
ATOM     10  C   UNL     1      -2.008   1.205  24.607  0.00  0.00    +0.104 C 
BRANCH  10   9
ATOM      8  C   UNL     1      -0.648   1.740  24.447  0.00  0.00    +0.120 C 
ATOM      9  C   UNL     1      -1.209   1.136  24.412  0.00  0.00    +0.148 C 
ATOM     28  O   UNL     1      -0.832   0.452  24.149  0.00  0.00    -0.350 OA
ATOM     29  C   UNL     1      -0.037   0.633  24.021  0.00  0.00    +0.180 C 
ATOM     32  C   UNL     1       0.076   1.428  24.205  0.00  0.00    +0.198 C 
ATOM     33  O   UNL     1       0.790   1.841  24.156  0.00  0.00    -0.219 OA
BRANCH   8   5
ATOM      1  C   UNL     1      -1.204   4.853  25.388  0.00  0.00    +0.090 C 
ATOM      2  N   UNL     1      -1.065   4.075  25.153  0.00  0.00    -0.269 NA
ATOM      3  C   UNL     1      -1.019   3.889  24.350  0.00  0.00    +0.090 C 
ATOM      4  C   UNL     1      -0.880   3.111  24.115  0.00  0.00    +0.090 C 
ATOM      5  N   UNL     1      -0.787   2.518  24.682  0.00  0.00    -0.267 NA
ATOM      6  C   UNL     1      -0.833   2.705  25.484  0.00  0.00    +0.090 C 
ATOM      7  C   UNL     1      -0.972   3.483  25.720  0.00  0.00    +0.090 C 
ENDBRANCH   8   5
BRANCH  29  30
ATOM     30  C   UNL     1       0.543   0.109  23.755  0.00  0.00    +0.214 C 
ATOM     31  O   UNL     1       0.434  -0.303  23.049  0.00  0.00    -0.218 OA
ENDBRANCH  29  30
ENDBRANCH  10   9
ENDBRANCH  11  10
BRANCH  11  12
ATOM     12  C   UNL     1      -2.225  -0.113  25.116  0.00  0.00    +0.099 C 
BRANCH  12  13
ATOM     13  C   UNL     1      -2.617  -0.836  25.061  0.00  0.00    -0.006 A 
ATOM     14  C   UNL     1      -2.578  -1.275  24.363  0.00  0.00    -0.002 A 
ATOM     15  C   UNL     1      -2.971  -1.999  24.309  0.00  0.00    +0.011 A 
ATOM     16  C   UNL     1      -3.403  -2.283  24.952  0.00  0.00    +0.058 A 
ATOM     17 CL   UNL     1      -3.796  -3.007  24.897  0.00  0.00    -0.082 Cl
ATOM     18  C   UNL     1      -3.442  -1.845  25.650  0.00  0.00    +0.011 A 
ATOM     19  C   UNL     1      -3.049  -1.121  25.704  0.00  0.00    -0.002 A 
ENDBRANCH  12  13
ENDBRANCH  11  12
BRANCH  11  20
ATOM     20  C   UNL     1      -3.201   0.495  24.269  0.00  0.00    +0.099 C 
BRANCH  20  21
ATOM     21  C   UNL     1      -3.704   1.149  24.270  0.00  0.00    -0.005 A 
ATOM     22  C   UNL     1      -3.783   1.611  23.591  0.00  0.00    -0.003 A 
ATOM     23  C   UNL     1      -4.285   2.265  23.592  0.00  0.00    +0.001 A 
ATOM     24  C   UNL     1      -4.709   2.457  24.274  0.00  0.00    +0.011 A 
ATOM     25  C   UNL     1      -4.631   1.996  24.953  0.00  0.00    +0.057 A 
ATOM     26 CL   UNL     1      -5.055   2.188  25.634  0.00  0.00    -0.082 Cl
ATOM     27  C   UNL     1      -4.128   1.341  24.952  0.00  0.00    +0.008 A 
ENDBRANCH  20  21
ENDBRANCH  11  20
TORSDOF 8
ENDMDL
MODEL 7
REMARK VINA RESULT:     -10.6      1.252      1.892
REMARK  Name = 
REMARK  8 active torsions:
REMARK  status: ('A' for Active; 'I' for Inactive)
REMARK    1  A    between atoms: N_5  and  C_8
REMARK    2  A    between atoms: C_9  and  C_10
REMARK    3  A    between atoms: C_10  and  N_11
REMARK    4  A    between atoms: N_11  and  C_12
REMARK    5  A    between atoms: N_11  and  C_20
REMARK    6  A    between atoms: C_12  and  C_13
REMARK    7  A    between atoms: C_20  and  C_21
REMARK    8  A    between atoms: C_29  and  C_30
REMARK                            x       y       z     vdW  Elec       q    Type
REMARK                         _______ _______ _______ _____ _____    ______ ____
ROOT
ATOM     11  N   UNL     1      -3.518   1.069  24.827  0.00  0.00    -0.263 NA
ENDROOT
BRANCH  11  10
ATOM     10  C   UNL     1      -2.704   1.022  24.706  0.00  0.00    +0.104 C 
BRANCH  10   9
ATOM      8  C   UNL     1      -1.397   1.679  24.852  0.00  0.00    +0.120 C 
ATOM      9  C   UNL     1      -2.213   1.630  24.968  0.00  0.00    +0.148 C 
ATOM     28  O   UNL     1      -2.450   2.297  25.390  0.00  0.00    -0.350 OA
ATOM     29  C   UNL     1      -1.781   2.758  25.536  0.00  0.00    +0.180 C 
ATOM     32  C   UNL     1      -1.131   2.376  25.204  0.00  0.00    +0.198 C 
ATOM     33  O   UNL     1      -0.350   2.644  25.220  0.00  0.00    -0.219 OA
BRANCH   8   5
ATOM      1  C   UNL     1       0.472  -0.530  23.265  0.00  0.00    +0.090 C 
ATOM      2  N   UNL     1       0.005   0.022  23.661  0.00  0.00    -0.269 NA
ATOM      3  C   UNL     1      -0.089  -0.029  24.480  0.00  0.00    +0.090 C 
ATOM      4  C   UNL     1      -0.556   0.523  24.877  0.00  0.00    +0.090 C 
ATOM      5  N   UNL     1      -0.930   1.127  24.455  0.00  0.00    -0.267 NA
ATOM      6  C   UNL     1      -0.835   1.177  23.637  0.00  0.00    +0.090 C 
ATOM      7  C   UNL     1      -0.368   0.625  23.241  0.00  0.00    +0.090 C 
ENDBRANCH   8   5
BRANCH  29  30
ATOM     30  C   UNL     1      -1.766   3.476  25.943  0.00  0.00    +0.214 C 
ATOM     31  O   UNL     1      -2.123   4.143  25.616  0.00  0.00    -0.218 OA
ENDBRANCH  29  30
ENDBRANCH  10   9
ENDBRANCH  11  10
BRANCH  11  12
ATOM     12  C   UNL     1      -3.902   0.497  25.282  0.00  0.00    +0.099 C 
BRANCH  12  13
ATOM     13  C   UNL     1      -3.785  -0.304  25.121  0.00  0.00    -0.006 A 
ATOM     14  C   UNL     1      -3.894  -0.592  24.356  0.00  0.00    -0.002 A 
ATOM     15  C   UNL     1      -3.777  -1.393  24.196  0.00  0.00    +0.011 A 
ATOM     16  C   UNL     1      -3.550  -1.906  24.801  0.00  0.00    +0.058 A 
ATOM     17 CL   UNL     1      -3.433  -2.707  24.640  0.00  0.00    -0.082 Cl
ATOM     18  C   UNL     1      -3.441  -1.618  25.567  0.00  0.00    +0.011 A 
ATOM     19  C   UNL     1      -3.558  -0.817  25.726  0.00  0.00    -0.002 A 
ENDBRANCH  12  13
ENDBRANCH  11  12
BRANCH  11  20
ATOM     20  C   UNL     1      -3.950   1.687  24.493  0.00  0.00    +0.099 C 
BRANCH  20  21
ATOM     21  C   UNL     1      -4.708   1.858  24.771  0.00  0.00    -0.005 A 
ATOM     22  C   UNL     1      -5.369   1.554  24.380  0.00  0.00    -0.003 A 
ATOM     23  C   UNL     1      -6.126   1.725  24.658  0.00  0.00    +0.001 A 
ATOM     24  C   UNL     1      -6.224   2.200  25.325  0.00  0.00    +0.011 A 
ATOM     25  C   UNL     1      -5.564   2.505  25.715  0.00  0.00    +0.057 A 
ATOM     26 CL   UNL     1      -5.661   2.980  26.382  0.00  0.00    -0.082 Cl
ATOM     27  C   UNL     1      -4.805   2.334  25.438  0.00  0.00    +0.008 A 
ENDBRANCH  20  21
ENDBRANCH  11  20
TORSDOF 8
ENDMDL
MODEL 8
REMARK VINA RESULT:     -10.5      1.480      3.461
REMARK  Name = 
REMARK  8 active torsions:
REMARK  status: ('A' for Active; 'I' for Inactive)
REMARK    1  A    between atoms: N_5  and  C_8
REMARK    2  A    between atoms: C_9  and  C_10
REMARK    3  A    between atoms: C_10  and  N_11
REMARK    4  A    between atoms: N_11  and  C_12
REMARK    5  A    between atoms: N_11  and  C_20
REMARK    6  A    between atoms: C_12  and  C_13
REMARK    7  A    between atoms: C_20  and  C_21
REMARK    8  A    between atoms: C_29  and  C_30
REMARK                            x       y       z     vdW  Elec       q    Type
REMARK                         _______ _______ _______ _____ _____    ______ ____
ROOT
ATOM     11  N   UNL     1      -2.290   0.349  24.499  0.00  0.00    -0.263 NA
ENDROOT
BRANCH  11  10
ATOM     10  C   UNL     1      -1.811   1.020  24.459  0.00  0.00    +0.104 C 
BRANCH  10   9
ATOM      8  C   UNL     1      -0.446   1.539  24.290  0.00  0.00    +0.120 C 
ATOM      9  C   UNL     1      -1.022   0.950  24.232  0.00  0.00    +0.148 C 
ATOM     28  O   UNL     1      -0.668   0.280  23.908  0.00  0.00    -0.350 OA
ATOM     29  C   UNL     1       0.126   0.453  23.765  0.00  0.00    +0.180 C 
ATOM     32  C   UNL     1       0.263   1.231  24.001  0.00  0.00    +0.198 C 
ATOM     33  O   UNL     1       0.983   1.632  23.956  0.00  0.00    -0.219 OA
BRANCH   8   5
ATOM      1  C   UNL     1      -0.902   4.587  25.470  0.00  0.00    +0.090 C 
ATOM      2  N   UNL     1      -0.788   3.825  25.175  0.00  0.00    -0.269 NA
ATOM      3  C   UNL     1      -0.669   3.195  25.695  0.00  0.00    +0.090 C 
ATOM      4  C   UNL     1      -0.555   2.433  25.400  0.00  0.00    +0.090 C 
ATOM      5  N   UNL     1      -0.560   2.301  24.585  0.00  0.00    -0.267 NA
ATOM      6  C   UNL     1      -0.679   2.931  24.066  0.00  0.00    +0.090 C 
ATOM      7  C   UNL     1      -0.792   3.693  24.361  0.00  0.00    +0.090 C 
ENDBRANCH   8   5
BRANCH  29  30
ATOM     30  C   UNL     1       0.684  -0.061  23.442  0.00  0.00    +0.214 C 
ATOM     31  O   UNL     1       0.564  -0.384  22.694  0.00  0.00    -0.218 OA
ENDBRANCH  29  30
ENDBRANCH  10   9
ENDBRANCH  11  10
BRANCH  11  12
ATOM     12  C   UNL     1      -3.060   0.374  24.202  0.00  0.00    +0.099 C 
BRANCH  12  13
ATOM     13  C   UNL     1      -3.483   1.082  24.212  0.00  0.00    -0.006 A 
ATOM     14  C   UNL     1      -3.784   1.372  24.923  0.00  0.00    -0.002 A 
ATOM     15  C   UNL     1      -4.207   2.081  24.932  0.00  0.00    +0.011 A 
ATOM     16  C   UNL     1      -4.330   2.498  24.231  0.00  0.00    +0.058 A 
ATOM     17 CL   UNL     1      -4.753   3.206  24.241  0.00  0.00    -0.082 Cl
ATOM     18  C   UNL     1      -4.029   2.207  23.520  0.00  0.00    +0.011 A 
ATOM     19  C   UNL     1      -3.605   1.499  23.511  0.00  0.00    -0.002 A 
ENDBRANCH  12  13
ENDBRANCH  11  12
BRANCH  11  20
ATOM     20  C   UNL     1      -2.000  -0.346  24.835  0.00  0.00    +0.099 C 
BRANCH  20  21
ATOM     21  C   UNL     1      -2.519  -0.954  25.038  0.00  0.00    -0.005 A 
ATOM     22  C   UNL     1      -2.835  -0.990  25.800  0.00  0.00    -0.003 A 
ATOM     23  C   UNL     1      -3.354  -1.598  26.003  0.00  0.00    +0.001 A 
ATOM     24  C   UNL     1      -3.556  -2.171  25.444  0.00  0.00    +0.011 A 
ATOM     25  C   UNL     1      -3.240  -2.135  24.684  0.00  0.00    +0.057 A 
ATOM     26 CL   UNL     1      -3.443  -2.708  24.125  0.00  0.00    -0.082 Cl
ATOM     27  C   UNL     1      -2.721  -1.527  24.480  0.00  0.00    +0.008 A 
ENDBRANCH  20  21
ENDBRANCH  11  20
TORSDOF 8
ENDMDL
MODEL 9
REMARK VINA RESULT:     -10.2      1.594      3.847
REMARK  Name = 
REMARK  8 active torsions:
REMARK  status: ('A' for Active; 'I' for Inactive)
REMARK    1  A    between atoms: N_5  and  C_8
REMARK    2  A    between atoms: C_9  and  C_10
REMARK    3  A    between atoms: C_10  and  N_11
REMARK    4  A    between atoms: N_11  and  C_12
REMARK    5  A    between atoms: N_11  and  C_20
REMARK    6  A    between atoms: C_12  and  C_13
REMARK    7  A    between atoms: C_20  and  C_21
REMARK    8  A    between atoms: C_29  and  C_30
REMARK                            x       y       z     vdW  Elec       q    Type
REMARK                         _______ _______ _______ _____ _____    ______ ____
ROOT
ATOM     11  N   UNL     1      -2.394   0.617  24.824  0.00  0.00    -0.263 NA
ENDROOT
BRANCH  11  10
ATOM     10  C   UNL     1      -2.903   1.266  24.831  0.00  0.00    +0.104 C 
BRANCH  10   9
ATOM      8  C   UNL     1      -3.681   2.217  24.023  0.00  0.00    +0.120 C 
ATOM      9  C   UNL     1      -3.087   1.653  24.126  0.00  0.00    +0.148 C 
ATOM     28  O   UNL     1      -2.710   1.545  23.401  0.00  0.00    -0.350 OA
ATOM     29  C   UNL     1      -3.071   2.042  22.850  0.00  0.00    +0.180 C 
ATOM     32  C   UNL     1      -3.670   2.457  23.234  0.00  0.00    +0.198 C 
ATOM     33  O   UNL     1      -4.172   3.015  22.890  0.00  0.00    -0.219 OA
BRANCH   8   5
ATOM      1  C   UNL     1      -5.735   3.318  26.359  0.00  0.00    +0.090 C 
ATOM      2  N   UNL     1      -5.222   3.043  25.775  0.00  0.00    -0.269 NA
ATOM      3  C   UNL     1      -4.488   3.405  25.669  0.00  0.00    +0.090 C 
ATOM      4  C   UNL     1      -3.974   3.129  25.085  0.00  0.00    +0.090 C 
ATOM      5  N   UNL     1      -4.194   2.493  24.607  0.00  0.00    -0.267 NA
ATOM      6  C   UNL     1      -4.929   2.132  24.715  0.00  0.00    +0.090 C 
ATOM      7  C   UNL     1      -5.442   2.407  25.299  0.00  0.00    +0.090 C 
ENDBRANCH   8   5
BRANCH  29  30
ATOM     30  C   UNL     1      -2.867   2.111  22.053  0.00  0.00    +0.214 C 
ATOM     31  O   UNL     1      -2.078   2.052  21.822  0.00  0.00    -0.218 OA
ENDBRANCH  29  30
ENDBRANCH  10   9
ENDBRANCH  11  10
BRANCH  11  12
ATOM     12  C   UNL     1      -1.717   0.619  25.297  0.00  0.00    +0.099 C 
BRANCH  12  13
ATOM     13  C   UNL     1      -1.003   0.896  24.992  0.00  0.00    -0.006 A 
ATOM     14  C   UNL     1      -0.580   0.440  24.450  0.00  0.00    -0.002 A 
ATOM     15  C   UNL     1       0.135   0.718  24.146  0.00  0.00    +0.011 A 
ATOM     16  C   UNL     1       0.427   1.452  24.385  0.00  0.00    +0.058 A 
ATOM     17 CL   UNL     1       1.142   1.730  24.081  0.00  0.00    -0.082 Cl
ATOM     18  C   UNL     1       0.005   1.908  24.928  0.00  0.00    +0.011 A 
ATOM     19  C   UNL     1      -0.710   1.630  25.231  0.00  0.00    -0.002 A 
ENDBRANCH  12  13
ENDBRANCH  11  12
BRANCH  11  20
ATOM     20  C   UNL     1      -2.560  -0.033  24.344  0.00  0.00    +0.099 C 
BRANCH  20  21
ATOM     21  C   UNL     1      -2.932  -0.697  24.662  0.00  0.00    -0.005 A 
ATOM     22  C   UNL     1      -3.000  -0.779  25.481  0.00  0.00    -0.003 A 
ATOM     23  C   UNL     1      -3.373  -1.442  25.799  0.00  0.00    +0.001 A 
ATOM     24  C   UNL     1      -3.677  -2.024  25.299  0.00  0.00    +0.011 A 
ATOM     25  C   UNL     1      -3.609  -1.942  24.482  0.00  0.00    +0.057 A 
ATOM     26 CL   UNL     1      -3.913  -2.524  23.982  0.00  0.00    -0.082 Cl
ATOM     27  C   UNL     1      -3.236  -1.278  24.162  0.00  0.00    +0.008 A 
ENDBRANCH  20  21
ENDBRANCH  11  20
TORSDOF 8
ENDMDL
