MODEL 1
REMARK VINA RESULT:     -11.7      0.000      0.000
REMARK  Name = 
REMARK  6 active torsions:
REMARK  status: ('A' for Active; 'I' for Inactive)
REMARK    1  A    between atoms: C_2  and  C_4
REMARK    2  A    between atoms: C_7  and  N_8
REMARK    3  A    between atoms: N_11  and  C_12
REMARK    4  A    between atoms: C_12  and  C_13
REMARK    5  A    between atoms: C_20  and  C_21
REMARK    6  A    between atoms: C_21  and  N_22
REMARK                            x       y       z     vdW  Elec       q    Type
REMARK                         _______ _______ _______ _____ _____    ______ ____
ROOT
ATOM     13  C   UNL     1      -0.817   1.176  23.707  0.00  0.00    +0.079 C 
ATOM     14  C   UNL     1      -1.363   1.438  23.219  0.00  0.00    +0.018 C 
ATOM     15  C   UNL     1      -2.099   1.701  23.432  0.00  0.00    +0.005 C 
ATOM     16  C   UNL     1      -2.580   1.961  22.721  0.00  0.00    +0.017 C 
ATOM     17  C   UNL     1      -2.054   1.725  23.031  0.00  0.00    +0.072 C 
ATOM     18  N   UNL     1      -1.568   1.446  23.916  0.00  0.00    -0.272 NA
ATOM     19  C   UNL     1      -1.987   1.525  24.724  0.00  0.00    +0.073 C 
ATOM     20  C   UNL     1      -2.495   1.775  24.212  0.00  0.00    +0.032 C 
ENDROOT
BRANCH  13  12
ATOM     12  C   UNL     1      -0.071   0.869  23.881  0.00  0.00    +0.133 C 
BRANCH  12  11
ATOM      8  N   UNL     1       1.714   0.291  22.765  0.00  0.00    -0.161 NA
ATOM      9  C   UNL     1       1.230   0.570  23.373  0.00  0.00    +0.344 C 
ATOM     10  O   UNL     1       1.566   0.829  24.080  0.00  0.00    -0.249 OA
ATOM     11  N   UNL     1       0.412   0.590  23.273  0.00  0.00    -0.185 NA
BRANCH   8   7
ATOM      4  C   UNL     1       4.169   0.232  23.066  0.00  0.00    +0.035 A 
ATOM      5  C   UNL     1       3.716  -0.434  23.245  0.00  0.00    +0.004 A 
ATOM      6  C   UNL     1       2.897  -0.414  23.144  0.00  0.00    +0.017 A 
ATOM      7  C   UNL     1       2.532   0.272  22.865  0.00  0.00    +0.075 A 
ATOM     36  C   UNL     1       2.986   0.938  22.687  0.00  0.00    +0.017 A 
ATOM     37  C   UNL     1       3.804   0.917  22.787  0.00  0.00    +0.004 A 
BRANCH   4   2
ATOM      1  C   UNL     1       5.310   0.227  23.926  0.00  0.00    +0.077 C 
ATOM      2  C   UNL     1       4.987   0.212  23.166  0.00  0.00    +0.173 C 
ATOM      3  O   UNL     1       5.484   0.177  22.509  0.00  0.00    -0.291 OA
ENDBRANCH   4   2
ENDBRANCH   8   7
ENDBRANCH  12  11
ENDBRANCH  13  12
BRANCH  20  21
ATOM     21  C   UNL     1      -3.256   2.054  24.361  0.00  0.00    +0.073 C 
BRANCH  21  22
ATOM     22  N   UNL     1      -3.856   1.527  24.567  0.00  0.00    -0.272 NA
ATOM     23  C   UNL     1      -4.259   0.800  24.653  0.00  0.00    +0.074 C 
ATOM     24  C   UNL     1      -5.088   1.121  25.085  0.00  0.00    +0.039 C 
ATOM     25  C   UNL     1      -5.815   1.221  25.439  0.00  0.00    +0.011 C 
ATOM     26  C   UNL     1      -5.274   1.622  25.243  0.00  0.00    +0.054 C 
ATOM     27  C   UNL     1      -4.479   1.297  24.826  0.00  0.00    +0.078 C 
ATOM     28  C   UNL     1      -4.991   2.497  25.234  0.00  0.00    +0.041 A 
ATOM     29  C   UNL     1      -5.238   3.252  25.456  0.00  0.00    +0.013 A 
ATOM     30  C   UNL     1      -4.749   3.902  25.320  0.00  0.00    +0.006 A 
ATOM     31  C   UNL     1      -4.013   3.797  24.961  0.00  0.00    +0.061 A 
ATOM     32  C   UNL     1      -3.767   3.042  24.739  0.00  0.00    +0.261 A 
ATOM     33  O   UNL     1      -3.031   2.937  24.381  0.00  0.00    -0.267 OA
ATOM     34  N   UNL     1      -4.256   2.392  24.876  0.00  0.00    -0.299 N 
ATOM     35  C   UNL     1      -4.784   2.031  25.072  0.00  0.00    +0.110 C 
ENDBRANCH  21  22
ENDBRANCH  20  21
TORSDOF 6
ENDMDL
MODEL 2
REMARK VINA RESULT:     -11.7      0.431      1.267
REMARK  Name = 
REMARK  6 active torsions:
REMARK  status: ('A' for Active; 'I' for Inactive)
REMARK    1  A    between atoms: C_2  and  C_4
REMARK    2  A    between atoms: C_7  and  N_8
REMARK    3  A    between atoms: N_11  and  C_12
REMARK    4  A    between atoms: C_12  and  C_13
REMARK    5  A    between atoms: C_20  and  C_21
REMARK    6  A    between atoms: C_21  and  N_22
REMARK                            x       y       z     vdW  Elec       q    Type
REMARK                         _______ _______ _______ _____ _____    ______ ____
ROOT
ATOM     13  C   UNL     1      -0.794   1.332  23.709  0.00  0.00    +0.079 C 
ATOM     14  C   UNL     1      -1.387   1.481  23.227  0.00  0.00    +0.018 C 
ATOM     15  C   UNL     1      -2.143   1.665  23.452  0.00  0.00    +0.005 C 
ATOM     16  C   UNL     1      -2.678   1.802  22.745  0.00  0.00    +0.017 C 
ATOM     17  C   UNL     1      -2.116   1.662  23.049  0.00  0.00    +0.072 C 
ATOM     18  N   UNL     1      -1.567   1.520  23.930  0.00  0.00    -0.272 NA
ATOM     19  C   UNL     1      -1.963   1.612  24.747  0.00  0.00    +0.073 C 
ATOM     20  C   UNL     1      -2.517   1.752  24.241  0.00  0.00    +0.032 C 
ENDROOT
BRANCH  13  12
ATOM     12  C   UNL     1      -0.010   1.137  23.872  0.00  0.00    +0.133 C 
BRANCH  12  11
ATOM      8  N   UNL     1       1.731   0.354  22.813  0.00  0.00    -0.161 NA
ATOM      9  C   UNL     1       1.270   0.725  23.388  0.00  0.00    +0.344 C 
ATOM     10  O   UNL     1       1.628   1.055  24.054  0.00  0.00    -0.249 OA
ATOM     11  N   UNL     1       0.451   0.766  23.297  0.00  0.00    -0.185 NA
BRANCH   8   7
ATOM      4  C   UNL     1       4.188   0.231  23.088  0.00  0.00    +0.035 A 
ATOM      5  C   UNL     1       3.718  -0.420  23.281  0.00  0.00    +0.004 A 
ATOM      6  C   UNL     1       2.899  -0.379  23.189  0.00  0.00    +0.017 A 
ATOM      7  C   UNL     1       2.550   0.313  22.905  0.00  0.00    +0.075 A 
ATOM     36  C   UNL     1       3.020   0.964  22.712  0.00  0.00    +0.017 A 
ATOM     37  C   UNL     1       3.838   0.922  22.804  0.00  0.00    +0.004 A 
BRANCH   4   2
ATOM      1  C   UNL     1       5.340   0.250  23.933  0.00  0.00    +0.077 C 
ATOM      2  C   UNL     1       5.006   0.189  23.180  0.00  0.00    +0.173 C 
ATOM      3  O   UNL     1       5.491   0.087  22.522  0.00  0.00    -0.291 OA
ENDBRANCH   4   2
ENDBRANCH   8   7
ENDBRANCH  12  11
ENDBRANCH  13  12
BRANCH  20  21
ATOM     21  C   UNL     1      -3.303   1.944  24.402  0.00  0.00    +0.073 C 
BRANCH  21  22
ATOM     22  N   UNL     1      -3.494   2.695  24.687  0.00  0.00    -0.272 NA
ATOM     23  C   UNL     1      -3.405   3.506  24.866  0.00  0.00    +0.074 C 
ATOM     24  C   UNL     1      -4.280   3.678  25.292  0.00  0.00    +0.039 C 
ATOM     25  C   UNL     1      -4.941   3.979  25.660  0.00  0.00    +0.011 C 
ATOM     26  C   UNL     1      -4.726   3.363  25.401  0.00  0.00    +0.054 C 
ATOM     27  C   UNL     1      -3.877   3.212  24.992  0.00  0.00    +0.078 C 
ATOM     28  C   UNL     1      -5.001   2.493  25.287  0.00  0.00    +0.041 A 
ATOM     29  C   UNL     1      -5.646   2.001  25.435  0.00  0.00    +0.013 A 
ATOM     30  C   UNL     1      -5.619   1.208  25.211  0.00  0.00    +0.006 A 
ATOM     31  C   UNL     1      -4.948   0.907  24.838  0.00  0.00    +0.061 A 
ATOM     32  C   UNL     1      -4.303   1.399  24.690  0.00  0.00    +0.261 A 
ATOM     33  O   UNL     1      -3.631   1.098  24.318  0.00  0.00    -0.267 OA
ATOM     34  N   UNL     1      -4.330   2.192  24.915  0.00  0.00    -0.299 N 
ATOM     35  C   UNL     1      -4.558   2.768  25.168  0.00  0.00    +0.110 C 
ENDBRANCH  21  22
ENDBRANCH  20  21
TORSDOF 6
ENDMDL
