MODEL 1
REMARK VINA RESULT:     -15.1      0.000      0.000
REMARK  Name = 
REMARK  3 active torsions:
REMARK  status: ('A' for Active; 'I' for Inactive)
REMARK    1  A    between atoms: C_7  and  N_10
REMARK    2  A    between atoms: C_17  and  N_18
REMARK    3  A    between atoms: N_21  and  C_22
REMARK                            x       y       z     vdW  Elec       q    Type
REMARK                         _______ _______ _______ _____ _____    ______ ____
ROOT
ATOM     10  N   UNL     1      -3.983   3.685  25.692  0.00  0.00    -0.273 NA
ATOM     11  C   UNL     1      -4.738   3.912  25.971  0.00  0.00    +0.074 C 
ATOM     12  C   UNL     1      -5.271   3.145  25.649  0.00  0.00    +0.039 C 
ATOM     13  C   UNL     1      -5.840   2.595  25.457  0.00  0.00    +0.011 C 
ATOM     14  C   UNL     1      -5.149   2.680  25.366  0.00  0.00    +0.056 C 
ATOM     15  C   UNL     1      -4.648   3.429  25.682  0.00  0.00    +0.078 C 
ATOM     16  C   UNL     1      -4.416   2.273  24.990  0.00  0.00    +0.056 A 
ATOM     17  C   UNL     1      -4.205   1.596  24.569  0.00  0.00    +0.087 A 
ATOM     29  C   UNL     1      -3.420   1.478  24.345  0.00  0.00    +0.023 A 
ATOM     30  C   UNL     1      -2.846   2.038  24.542  0.00  0.00    +0.062 A 
ATOM     31  C   UNL     1      -3.057   2.715  24.963  0.00  0.00    +0.261 A 
ATOM     32  O   UNL     1      -2.255   2.897  24.903  0.00  0.00    -0.267 OA
ATOM     33  N   UNL     1      -3.842   2.832  25.187  0.00  0.00    -0.298 N 
ATOM     34  C   UNL     1      -4.499   2.727  25.260  0.00  0.00    +0.110 C 
ENDROOT
BRANCH  10   7
ATOM      1  C   UNL     1      -0.453   4.225  24.451  0.00  0.00    +0.095 C 
ATOM      2  C   UNL     1      -0.736   3.844  25.125  0.00  0.00    +0.226 C 
ATOM      3  O   UNL     1      -0.207   3.502  25.659  0.00  0.00    -0.275 OA
ATOM      4  N   UNL     1      -1.547   3.804  25.267  0.00  0.00    -0.279 N 
ATOM      5  C   UNL     1      -1.831   3.423  25.941  0.00  0.00    +0.095 C 
ATOM      6  C   UNL     1      -2.642   3.383  26.083  0.00  0.00    +0.038 C 
ATOM      7  C   UNL     1      -3.171   3.725  25.550  0.00  0.00    +0.061 C 
ATOM      8  C   UNL     1      -2.889   4.106  24.876  0.00  0.00    +0.038 C 
ATOM      9  C   UNL     1      -2.077   4.146  24.734  0.00  0.00    +0.095 C 
ENDBRANCH  10   7
BRANCH  17  18
ATOM     18  N   UNL     1      -4.779   1.037  24.373  0.00  0.00    -0.160 NA
ATOM     19  C   UNL     1      -4.615   0.232  24.452  0.00  0.00    +0.348 C 
ATOM     20  O   UNL     1      -5.189  -0.327  24.255  0.00  0.00    -0.248 OA
ATOM     21  N   UNL     1      -3.877  -0.013  24.728  0.00  0.00    -0.161 NA
BRANCH  21  22
ATOM     22  C   UNL     1      -3.712  -0.818  24.807  0.00  0.00    +0.075 A 
ATOM     23  C   UNL     1      -3.681  -1.301  24.140  0.00  0.00    +0.018 A 
ATOM     24  C   UNL     1      -3.516  -2.105  24.220  0.00  0.00    +0.013 A 
ATOM     25  C   UNL     1      -3.383  -2.427  24.968  0.00  0.00    +0.058 A 
ATOM     26 CL   UNL     1      -3.219  -3.231  25.048  0.00  0.00    -0.082 Cl
ATOM     27  C   UNL     1      -3.415  -1.943  25.636  0.00  0.00    +0.013 A 
ATOM     28  C   UNL     1      -3.579  -1.139  25.556  0.00  0.00    +0.018 A 
ENDBRANCH  21  22
ENDBRANCH  17  18
TORSDOF 3
ENDMDL
MODEL 2
REMARK VINA RESULT:     -13.8      2.094      4.601
REMARK  Name = 
REMARK  3 active torsions:
REMARK  status: ('A' for Active; 'I' for Inactive)
REMARK    1  A    between atoms: C_7  and  N_10
REMARK    2  A    between atoms: C_17  and  N_18
REMARK    3  A    between atoms: N_21  and  C_22
REMARK                            x       y       z     vdW  Elec       q    Type
REMARK                         _______ _______ _______ _____ _____    ______ ____
ROOT
ATOM     10  N   UNL     1      -4.362  -0.134  25.261  0.00  0.00    -0.273 NA
ATOM     11  C   UNL     1      -5.111   0.089  25.556  0.00  0.00    +0.074 C 
ATOM     12  C   UNL     1      -5.169   1.003  25.185  0.00  0.00    +0.039 C 
ATOM     13  C   UNL     1      -5.368   1.759  24.956  0.00  0.00    +0.011 C 
ATOM     14  C   UNL     1      -4.831   1.316  24.870  0.00  0.00    +0.056 C 
ATOM     15  C   UNL     1      -4.790   0.435  25.236  0.00  0.00    +0.078 C 
ATOM     16  C   UNL     1      -4.008   1.250  24.466  0.00  0.00    +0.056 A 
ATOM     17  C   UNL     1      -3.487   1.687  24.000  0.00  0.00    +0.087 A 
ATOM     29  C   UNL     1      -2.767   1.358  23.767  0.00  0.00    +0.023 A 
ATOM     30  C   UNL     1      -2.569   0.592  24.000  0.00  0.00    +0.062 A 
ATOM     31  C   UNL     1      -3.090   0.155  24.466  0.00  0.00    +0.261 A 
ATOM     32  O   UNL     1      -2.509  -0.428  24.417  0.00  0.00    -0.267 OA
ATOM     33  N   UNL     1      -3.810   0.484  24.699  0.00  0.00    -0.298 N 
ATOM     34  C   UNL     1      -4.308   0.925  24.767  0.00  0.00    +0.110 C 
ENDROOT
BRANCH  10   7
ATOM      1  C   UNL     1      -1.063  -1.982  25.206  0.00  0.00    +0.095 C 
ATOM      2  C   UNL     1      -1.714  -2.022  24.700  0.00  0.00    +0.226 C 
ATOM      3  O   UNL     1      -1.702  -2.534  24.053  0.00  0.00    -0.275 OA
ATOM      4  N   UNL     1      -2.376  -1.550  24.840  0.00  0.00    -0.279 N 
ATOM      5  C   UNL     1      -3.026  -1.590  24.334  0.00  0.00    +0.095 C 
ATOM      6  C   UNL     1      -3.688  -1.119  24.474  0.00  0.00    +0.038 C 
ATOM      7  C   UNL     1      -3.700  -0.606  25.121  0.00  0.00    +0.061 C 
ATOM      8  C   UNL     1      -3.050  -0.566  25.627  0.00  0.00    +0.038 C 
ATOM      9  C   UNL     1      -2.387  -1.038  25.487  0.00  0.00    +0.095 C 
ENDBRANCH  10   7
BRANCH  17  18
ATOM     18  N   UNL     1      -3.685   2.454  23.767  0.00  0.00    -0.160 NA
ATOM     19  C   UNL     1      -3.188   3.084  23.955  0.00  0.00    +0.348 C 
ATOM     20  O   UNL     1      -3.386   3.850  23.722  0.00  0.00    -0.248 OA
ATOM     21  N   UNL     1      -2.492   2.948  24.377  0.00  0.00    -0.161 NA
BRANCH  21  22
ATOM     22  C   UNL     1      -1.994   3.578  24.566  0.00  0.00    +0.075 A 
ATOM     23  C   UNL     1      -2.230   4.139  25.122  0.00  0.00    +0.018 A 
ATOM     24  C   UNL     1      -1.732   4.769  25.311  0.00  0.00    +0.013 A 
ATOM     25  C   UNL     1      -0.996   4.837  24.943  0.00  0.00    +0.058 A 
ATOM     26 CL   UNL     1      -0.498   5.467  25.132  0.00  0.00    -0.082 Cl
ATOM     27  C   UNL     1      -0.760   4.276  24.387  0.00  0.00    +0.013 A 
ATOM     28  C   UNL     1      -1.258   3.647  24.198  0.00  0.00    +0.018 A 
ENDBRANCH  21  22
ENDBRANCH  17  18
TORSDOF 3
ENDMDL
MODEL 3
REMARK VINA RESULT:     -13.4      1.850      3.339
REMARK  Name = 
REMARK  3 active torsions:
REMARK  status: ('A' for Active; 'I' for Inactive)
REMARK    1  A    between atoms: C_7  and  N_10
REMARK    2  A    between atoms: C_17  and  N_18
REMARK    3  A    between atoms: N_21  and  C_22
REMARK                            x       y       z     vdW  Elec       q    Type
REMARK                         _______ _______ _______ _____ _____    ______ ____
ROOT
ATOM     10  N   UNL     1      -2.741   4.246  25.328  0.00  0.00    -0.273 NA
ATOM     11  C   UNL     1      -2.178   4.857  25.420  0.00  0.00    +0.074 C 
ATOM     12  C   UNL     1      -1.366   4.380  25.123  0.00  0.00    +0.039 C 
ATOM     13  C   UNL     1      -0.618   4.134  24.911  0.00  0.00    +0.011 C 
ATOM     14  C   UNL     1      -1.265   3.862  24.941  0.00  0.00    +0.056 C 
ATOM     15  C   UNL     1      -2.041   4.337  25.231  0.00  0.00    +0.078 C 
ATOM     16  C   UNL     1      -1.729   3.085  24.779  0.00  0.00    +0.056 A 
ATOM     17  C   UNL     1      -1.612   2.313  24.514  0.00  0.00    +0.087 A 
ATOM     29  C   UNL     1      -2.250   1.793  24.465  0.00  0.00    +0.023 A 
ATOM     30  C   UNL     1      -3.006   2.046  24.680  0.00  0.00    +0.062 A 
ATOM     31  C   UNL     1      -3.123   2.818  24.945  0.00  0.00    +0.261 A 
ATOM     32  O   UNL     1      -3.910   2.583  25.013  0.00  0.00    -0.267 OA
ATOM     33  N   UNL     1      -2.484   3.338  24.995  0.00  0.00    -0.298 N 
ATOM     34  C   UNL     1      -1.858   3.573  24.957  0.00  0.00    +0.110 C 
ENDROOT
BRANCH  10   7
ATOM      1  C   UNL     1      -5.933   2.358  26.063  0.00  0.00    +0.095 C 
ATOM      2  C   UNL     1      -5.671   2.729  25.375  0.00  0.00    +0.226 C 
ATOM      3  O   UNL     1      -6.142   2.720  24.697  0.00  0.00    -0.275 OA
ATOM      4  N   UNL     1      -4.939   3.108  25.363  0.00  0.00    -0.279 N 
ATOM      5  C   UNL     1      -4.677   3.479  24.674  0.00  0.00    +0.095 C 
ATOM      6  C   UNL     1      -3.945   3.858  24.662  0.00  0.00    +0.038 C 
ATOM      7  C   UNL     1      -3.474   3.867  25.340  0.00  0.00    +0.061 C 
ATOM      8  C   UNL     1      -3.735   3.497  26.029  0.00  0.00    +0.038 C 
ATOM      9  C   UNL     1      -4.468   3.117  26.040  0.00  0.00    +0.095 C 
ENDBRANCH  10   7
BRANCH  17  18
ATOM     18  N   UNL     1      -0.856   2.061  24.299  0.00  0.00    -0.160 NA
ATOM     19  C   UNL     1      -0.631   1.277  24.426  0.00  0.00    +0.348 C 
ATOM     20  O   UNL     1       0.124   1.025  24.210  0.00  0.00    -0.248 OA
ATOM     21  N   UNL     1      -1.162   0.747  24.768  0.00  0.00    -0.161 NA
BRANCH  21  22
ATOM     22  C   UNL     1      -0.937  -0.038  24.896  0.00  0.00    +0.075 A 
ATOM     23  C   UNL     1      -0.744  -0.521  24.256  0.00  0.00    +0.018 A 
ATOM     24  C   UNL     1      -0.520  -1.305  24.384  0.00  0.00    +0.013 A 
ATOM     25  C   UNL     1      -0.488  -1.605  25.152  0.00  0.00    +0.058 A 
ATOM     26 CL   UNL     1      -0.264  -2.388  25.280  0.00  0.00    -0.082 Cl
ATOM     27  C   UNL     1      -0.681  -1.121  25.791  0.00  0.00    +0.013 A 
ATOM     28  C   UNL     1      -0.906  -0.338  25.664  0.00  0.00    +0.018 A 
ENDBRANCH  21  22
ENDBRANCH  17  18
TORSDOF 3
ENDMDL
