MODEL 1
REMARK VINA RESULT:      -8.4      0.000      0.000
REMARK  Name = 
REMARK  6 active torsions:
REMARK  status: ('A' for Active; 'I' for Inactive)
REMARK    1  A    between atoms: O_2  and  C_3
REMARK    2  A    between atoms: C_6  and  C_9
REMARK    3  A    between atoms: N_11  and  C_12
REMARK    4  A    between atoms: C_16  and  N_20
REMARK    5  A    between atoms: C_23  and  C_27
REMARK    6  A    between atoms: C_30  and  O_31
REMARK                            x       y       z     vdW  Elec       q    Type
REMARK                         _______ _______ _______ _____ _____    ______ ____
ROOT
ATOM     12  C   UNL     1       1.263   0.704  23.515  0.00  0.00    +0.155 C 
ATOM     13  C   UNL     1       0.785   0.124  23.174  0.00  0.00    +0.166 C 
ATOM     14  O   UNL     1      -0.001   0.352  23.274  0.00  0.00    -0.350 OA
ATOM     15  C   UNL     1      -0.010   1.071  23.677  0.00  0.00    +0.166 C 
ATOM     16  C   UNL     1      -0.500   1.657  23.988  0.00  0.00    +0.154 C 
ATOM     17  C   UNL     1      -0.023   2.237  24.328  0.00  0.00    +0.166 C 
ATOM     18  O   UNL     1       0.764   2.009  24.228  0.00  0.00    -0.350 OA
ATOM     19  C   UNL     1       0.772   1.289  23.825  0.00  0.00    +0.166 C 
ENDROOT
BRANCH  16  20
ATOM     20  N   UNL     1      -1.325   1.662  23.962  0.00  0.00    -0.200 NA
ATOM     21  C   UNL     1      -1.754   2.058  24.545  0.00  0.00    +0.237 A 
ATOM     22  N   UNL     1      -2.578   2.064  24.520  0.00  0.00    -0.212 NA
ATOM     23  C   UNL     1      -3.007   2.459  25.103  0.00  0.00    +0.086 A 
ATOM     24  C   UNL     1      -2.611   2.850  25.712  0.00  0.00    +0.040 A 
ATOM     25  C   UNL     1      -1.786   2.845  25.738  0.00  0.00    +0.103 A 
ATOM     26  N   UNL     1      -1.358   2.449  25.154  0.00  0.00    -0.211 NA
BRANCH  23  27
ATOM     27  C   UNL     1      -3.831   2.465  25.078  0.00  0.00    +0.018 A 
ATOM     28  C   UNL     1      -4.239   3.183  25.081  0.00  0.00    +0.005 A 
ATOM     29  C   UNL     1      -5.064   3.188  25.056  0.00  0.00    +0.037 A 
ATOM     30  C   UNL     1      -5.481   2.477  25.027  0.00  0.00    +0.139 A 
ATOM     33  C   UNL     1      -5.073   1.760  25.024  0.00  0.00    +0.037 A 
ATOM     34  C   UNL     1      -4.248   1.754  25.049  0.00  0.00    +0.005 A 
BRANCH  30  31
ATOM     31  O   UNL     1      -6.305   2.482  25.001  0.00  0.00    -0.471 OA
ATOM     32  C   UNL     1      -6.723   1.773  25.058  0.00  0.00    +0.252 C 
ENDBRANCH  30  31
ENDBRANCH  23  27
ENDBRANCH  16  20
BRANCH  12  11
ATOM      9  C   UNL     1       2.516   0.270  22.980  0.00  0.00    +0.265 C 
ATOM     10  O   UNL     1       2.118  -0.153  22.394  0.00  0.00    -0.268 OA
ATOM     11  N   UNL     1       2.088   0.699  23.541  0.00  0.00    -0.198 NA
BRANCH   9   6
ATOM      3  C   UNL     1       4.989   0.255  23.056  0.00  0.00    +0.139 A 
ATOM      4  C   UNL     1       4.564  -0.403  23.317  0.00  0.00    +0.037 A 
ATOM      5  C   UNL     1       3.740  -0.397  23.291  0.00  0.00    +0.008 A 
ATOM      6  C   UNL     1       3.340   0.265  23.006  0.00  0.00    +0.055 A 
ATOM      7  C   UNL     1       3.764   0.923  22.745  0.00  0.00    +0.008 A 
ATOM      8  C   UNL     1       4.589   0.918  22.771  0.00  0.00    +0.037 A 
BRANCH   3   2
ATOM      1  C   UNL     1       6.207  -0.246  23.611  0.00  0.00    +0.252 C 
ATOM      2  O   UNL     1       5.814   0.250  23.082  0.00  0.00    -0.471 OA
ENDBRANCH   3   2
ENDBRANCH   9   6
ENDBRANCH  12  11
TORSDOF 6
ENDMDL
MODEL 2
REMARK VINA RESULT:      -8.4      0.897      7.742
REMARK  Name = 
REMARK  6 active torsions:
REMARK  status: ('A' for Active; 'I' for Inactive)
REMARK    1  A    between atoms: O_2  and  C_3
REMARK    2  A    between atoms: C_6  and  C_9
REMARK    3  A    between atoms: N_11  and  C_12
REMARK    4  A    between atoms: C_16  and  N_20
REMARK    5  A    between atoms: C_23  and  C_27
REMARK    6  A    between atoms: C_30  and  O_31
REMARK                            x       y       z     vdW  Elec       q    Type
REMARK                         _______ _______ _______ _____ _____    ______ ____
ROOT
ATOM     12  C   UNL     1      -1.846   2.121  24.406  0.00  0.00    +0.155 C 
ATOM     13  C   UNL     1      -1.368   2.770  24.580  0.00  0.00    +0.166 C 
ATOM     14  O   UNL     1      -0.581   2.531  24.512  0.00  0.00    -0.350 OA
ATOM     15  C   UNL     1      -0.573   1.736  24.297  0.00  0.00    +0.166 C 
ATOM     16  C   UNL     1      -0.083   1.096  24.122  0.00  0.00    +0.154 C 
ATOM     17  C   UNL     1      -0.562   0.447  23.949  0.00  0.00    +0.166 C 
ATOM     18  O   UNL     1      -1.348   0.685  24.016  0.00  0.00    -0.350 OA
ATOM     19  C   UNL     1      -1.356   1.482  24.232  0.00  0.00    +0.166 C 
ENDROOT
BRANCH  16  20
ATOM     20  N   UNL     1       0.742   1.103  24.121  0.00  0.00    -0.200 NA
ATOM     21  C   UNL     1       1.158   0.678  23.550  0.00  0.00    +0.237 A 
ATOM     22  N   UNL     1       1.983   0.686  23.548  0.00  0.00    -0.212 NA
ATOM     23  C   UNL     1       2.399   0.261  22.977  0.00  0.00    +0.086 A 
ATOM     24  C   UNL     1       1.990  -0.172  22.406  0.00  0.00    +0.040 A 
ATOM     25  C   UNL     1       1.165  -0.180  22.407  0.00  0.00    +0.103 A 
ATOM     26  N   UNL     1       0.749   0.245  22.979  0.00  0.00    -0.211 NA
BRANCH  23  27
ATOM     27  C   UNL     1       3.224   0.269  22.976  0.00  0.00    +0.018 A 
ATOM     28  C   UNL     1       3.643  -0.384  23.261  0.00  0.00    +0.005 A 
ATOM     29  C   UNL     1       4.467  -0.376  23.260  0.00  0.00    +0.037 A 
ATOM     30  C   UNL     1       4.874   0.283  22.974  0.00  0.00    +0.139 A 
ATOM     33  C   UNL     1       4.455   0.934  22.689  0.00  0.00    +0.037 A 
ATOM     34  C   UNL     1       3.630   0.926  22.690  0.00  0.00    +0.005 A 
BRANCH  30  31
ATOM     31  O   UNL     1       5.698   0.290  22.972  0.00  0.00    -0.471 OA
ATOM     32  C   UNL     1       6.115  -0.028  23.610  0.00  0.00    +0.252 C 
ENDBRANCH  30  31
ENDBRANCH  23  27
ENDBRANCH  16  20
BRANCH  12  11
ATOM      9  C   UNL     1      -3.087   2.486  25.015  0.00  0.00    +0.265 C 
ATOM     10  O   UNL     1      -2.677   2.867  25.622  0.00  0.00    -0.268 OA
ATOM     11  N   UNL     1      -2.672   2.113  24.407  0.00  0.00    -0.198 NA
BRANCH   9   6
ATOM      3  C   UNL     1      -5.561   2.463  25.019  0.00  0.00    +0.139 A 
ATOM      4  C   UNL     1      -5.143   1.754  24.968  0.00  0.00    +0.037 A 
ATOM      5  C   UNL     1      -4.318   1.762  24.966  0.00  0.00    +0.008 A 
ATOM      6  C   UNL     1      -3.912   2.478  25.016  0.00  0.00    +0.055 A 
ATOM      7  C   UNL     1      -4.331   3.187  25.067  0.00  0.00    +0.008 A 
ATOM      8  C   UNL     1      -5.156   3.180  25.069  0.00  0.00    +0.037 A 
BRANCH   3   2
ATOM      1  C   UNL     1      -6.793   1.738  25.014  0.00  0.00    +0.252 C 
ATOM      2  O   UNL     1      -6.387   2.456  25.020  0.00  0.00    -0.471 OA
ENDBRANCH   3   2
ENDBRANCH   9   6
ENDBRANCH  12  11
TORSDOF 6
ENDMDL
