MODEL 1
REMARK VINA RESULT:      -8.9      0.000      0.000
REMARK  Name = 
REMARK  10 active torsions:
REMARK  status: ('A' for Active; 'I' for Inactive)
REMARK    1  A    between atoms: O_2  and  C_3
REMARK    2  A    between atoms: C_3  and  C_5
REMARK    3  A    between atoms: C_5  and  N_6
REMARK    4  A    between atoms: C_5  and  C_33
REMARK    5  A    between atoms: C_7  and  C_9
REMARK    6  A    between atoms: C_11  and  N_22
REMARK    7  A    between atoms: C_15  and  C_17
REMARK    8  A    between atoms: C_17  and  C_18
REMARK    9  A    between atoms: C_18  and  C_19
REMARK   10  A    between atoms: N_25  and  C_26
REMARK                            x       y       z     vdW  Elec       q    Type
REMARK                         _______ _______ _______ _____ _____    ______ ____
ROOT
ATOM      9  C   UNL     1      -3.208   2.393  24.786  0.00  0.00    +0.155 C 
ATOM     10  C   UNL     1      -3.012   1.703  24.378  0.00  0.00    +0.051 C 
ATOM     11  C   UNL     1      -3.608   1.232  24.055  0.00  0.00    +0.101 C 
ATOM     12  C   UNL     1      -4.398   1.451  24.139  0.00  0.00    +0.043 C 
ATOM     13  C   UNL     1      -4.594   2.141  24.546  0.00  0.00    +0.096 C 
ATOM     14  N   UNL     1      -3.998   2.612  24.870  0.00  0.00    -0.273 N 
ATOM     15  C   UNL     1      -4.195   3.302  25.277  0.00  0.00    +0.227 C 
ATOM     16  O   UNL     1      -3.599   3.773  25.601  0.00  0.00    -0.275 OA
ENDROOT
BRANCH  11  22
ATOM     22  N   UNL     1      -3.412   0.542  23.647  0.00  0.00    -0.189 NA
ATOM     23  C   UNL     1      -3.428  -0.185  24.036  0.00  0.00    +0.343 C 
ATOM     24  O   UNL     1      -3.640  -0.222  24.832  0.00  0.00    -0.249 OA
ATOM     25  N   UNL     1      -3.232  -0.875  23.629  0.00  0.00    -0.161 NA
BRANCH  25  26
ATOM     26  C   UNL     1      -3.249  -1.603  24.018  0.00  0.00    +0.077 A 
ATOM     27  C   UNL     1      -3.943  -2.050  24.028  0.00  0.00    +0.017 A 
ATOM     28  C   UNL     1      -3.958  -2.777  24.417  0.00  0.00    +0.004 A 
ATOM     29  C   UNL     1      -3.282  -3.057  24.796  0.00  0.00    +0.030 A 
ATOM     30  C   UNL     1      -2.589  -2.610  24.787  0.00  0.00    +0.141 A 
ATOM     31  F   UNL     1      -1.912  -2.891  25.166  0.00  0.00    -0.204 F 
ATOM     32  C   UNL     1      -2.573  -1.883  24.397  0.00  0.00    +0.046 A 
ENDBRANCH  25  26
ENDBRANCH  11  22
BRANCH   9   7
ATOM      6  N   UNL     1      -1.847   2.828  24.802  0.00  0.00    -0.194 NA
ATOM      7  C   UNL     1      -2.613   2.864  25.109  0.00  0.00    +0.260 C 
ATOM      8  O   UNL     1      -2.782   3.369  25.738  0.00  0.00    -0.272 OA
BRANCH   6   5
ATOM      5  C   UNL     1      -1.252   3.298  25.126  0.00  0.00    +0.193 C 
BRANCH   5  33
ATOM     33  C   UNL     1      -1.042   4.008  24.761  0.00  0.00    +0.031 C 
ATOM     34  C   UNL     1      -1.135   4.721  25.164  0.00  0.00    +0.002 C 
ATOM     35  C   UNL     1      -0.740   4.003  23.993  0.00  0.00    +0.002 C 
ENDBRANCH   5  33
BRANCH   5   3
ATOM      3  C   UNL     1      -0.865   3.057  25.814  0.00  0.00    +0.337 C 
ATOM      4  O   UNL     1      -1.010   3.447  26.526  0.00  0.00    -0.248 OA
BRANCH   3   2
ATOM      1  C   UNL     1       0.131   2.253  26.450  0.00  0.00    +0.256 C 
ATOM      2  O   UNL     1      -0.333   2.427  25.789  0.00  0.00    -0.443 OA
ENDBRANCH   3   2
ENDBRANCH   5   3
ENDBRANCH   6   5
ENDBRANCH   9   7
BRANCH  15  17
ATOM     17  C   UNL     1      -4.986   3.521  25.361  0.00  0.00    +0.097 C 
BRANCH  17  18
ATOM     18  C   UNL     1      -5.177   4.269  25.653  0.00  0.00    +0.124 C 
BRANCH  18  19
ATOM     19  C   UNL     1      -5.966   4.505  25.696  0.00  0.00    +0.365 C 
ATOM     20  O   UNL     1      -6.535   3.989  26.000  0.00  0.00    -0.246 OA
ATOM     21  O   UNL     1      -6.189   5.255  25.437  0.00  0.00    -0.246 OA
ENDBRANCH  18  19
ENDBRANCH  17  18
ENDBRANCH  15  17
TORSDOF 10
ENDMDL
MODEL 2
REMARK VINA RESULT:      -8.4      2.595      4.689
REMARK  Name = 
REMARK  10 active torsions:
REMARK  status: ('A' for Active; 'I' for Inactive)
REMARK    1  A    between atoms: O_2  and  C_3
REMARK    2  A    between atoms: C_3  and  C_5
REMARK    3  A    between atoms: C_5  and  N_6
REMARK    4  A    between atoms: C_5  and  C_33
REMARK    5  A    between atoms: C_7  and  C_9
REMARK    6  A    between atoms: C_11  and  N_22
REMARK    7  A    between atoms: C_15  and  C_17
REMARK    8  A    between atoms: C_17  and  C_18
REMARK    9  A    between atoms: C_18  and  C_19
REMARK   10  A    between atoms: N_25  and  C_26
REMARK                            x       y       z     vdW  Elec       q    Type
REMARK                         _______ _______ _______ _____ _____    ______ ____
ROOT
ATOM      9  C   UNL     1      -0.213   0.561  24.459  0.00  0.00    +0.155 C 
ATOM     10  C   UNL     1      -0.775   0.080  24.824  0.00  0.00    +0.051 C 
ATOM     11  C   UNL     1      -0.738  -0.739  24.733  0.00  0.00    +0.101 C 
ATOM     12  C   UNL     1      -0.140  -1.077  24.277  0.00  0.00    +0.043 C 
ATOM     13  C   UNL     1       0.422  -0.596  23.912  0.00  0.00    +0.096 C 
ATOM     14  N   UNL     1       0.385   0.224  24.003  0.00  0.00    -0.273 N 
ATOM     15  C   UNL     1       0.947   0.704  23.638  0.00  0.00    +0.227 C 
ATOM     16  O   UNL     1       0.911   1.524  23.730  0.00  0.00    -0.275 OA
ENDROOT
BRANCH  11  22
ATOM     22  N   UNL     1      -1.301  -1.221  25.098  0.00  0.00    -0.189 NA
ATOM     23  C   UNL     1      -1.983  -1.440  24.689  0.00  0.00    +0.343 C 
ATOM     24  O   UNL     1      -2.102  -1.179  23.917  0.00  0.00    -0.249 OA
ATOM     25  N   UNL     1      -2.544  -1.921  25.054  0.00  0.00    -0.161 NA
BRANCH  25  26
ATOM     26  C   UNL     1      -3.227  -2.141  24.645  0.00  0.00    +0.077 A 
ATOM     27  C   UNL     1      -3.320  -2.920  24.387  0.00  0.00    +0.017 A 
ATOM     28  C   UNL     1      -4.003  -3.139  23.979  0.00  0.00    +0.004 A 
ATOM     29  C   UNL     1      -4.591  -2.582  23.828  0.00  0.00    +0.030 A 
ATOM     30  C   UNL     1      -4.498  -1.804  24.086  0.00  0.00    +0.141 A 
ATOM     31  F   UNL     1      -5.087  -1.246  23.936  0.00  0.00    -0.204 F 
ATOM     32  C   UNL     1      -3.815  -1.584  24.495  0.00  0.00    +0.046 A 
ENDBRANCH  25  26
ENDBRANCH  11  22
BRANCH   9   7
ATOM      6  N   UNL     1      -0.752   1.709  25.117  0.00  0.00    -0.194 NA
ATOM      7  C   UNL     1      -0.250   1.380  24.550  0.00  0.00    +0.260 C 
ATOM      8  O   UNL     1       0.214   1.870  24.076  0.00  0.00    -0.272 OA
BRANCH   6   5
ATOM      5  C   UNL     1      -0.789   2.528  25.209  0.00  0.00    +0.193 C 
BRANCH   5  33
ATOM     33  C   UNL     1      -0.287   2.907  25.742  0.00  0.00    +0.031 C 
ATOM     34  C   UNL     1       0.131   3.579  25.509  0.00  0.00    +0.002 C 
ATOM     35  C   UNL     1      -0.203   2.614  26.509  0.00  0.00    +0.002 C 
ENDBRANCH   5  33
BRANCH   5   3
ATOM      3  C   UNL     1      -1.329   2.968  24.766  0.00  0.00    +0.337 C 
ATOM      4  O   UNL     1      -1.061   3.551  24.249  0.00  0.00    -0.248 OA
BRANCH   3   2
ATOM      1  C   UNL     1      -2.683   3.342  24.501  0.00  0.00    +0.256 C 
ATOM      2  O   UNL     1      -2.138   2.823  24.841  0.00  0.00    -0.443 OA
ENDBRANCH   3   2
ENDBRANCH   5   3
ENDBRANCH   6   5
ENDBRANCH   9   7
BRANCH  15  17
ATOM     17  C   UNL     1       1.546   0.366  23.182  0.00  0.00    +0.097 C 
BRANCH  17  18
ATOM     18  C   UNL     1       2.215   0.809  22.987  0.00  0.00    +0.124 C 
BRANCH  18  19
ATOM     19  C   UNL     1       2.827   0.462  22.556  0.00  0.00    +0.365 C 
ATOM     20  O   UNL     1       3.602   0.499  22.837  0.00  0.00    -0.246 OA
ATOM     21  O   UNL     1       2.665   0.078  21.844  0.00  0.00    -0.246 OA
ENDBRANCH  18  19
ENDBRANCH  17  18
ENDBRANCH  15  17
TORSDOF 10
ENDMDL
MODEL 3
REMARK VINA RESULT:      -8.3      2.550      5.626
REMARK  Name = 
REMARK  10 active torsions:
REMARK  status: ('A' for Active; 'I' for Inactive)
REMARK    1  A    between atoms: O_2  and  C_3
REMARK    2  A    between atoms: C_3  and  C_5
REMARK    3  A    between atoms: C_5  and  N_6
REMARK    4  A    between atoms: C_5  and  C_33
REMARK    5  A    between atoms: C_7  and  C_9
REMARK    6  A    between atoms: C_11  and  N_22
REMARK    7  A    between atoms: C_15  and  C_17
REMARK    8  A    between atoms: C_17  and  C_18
REMARK    9  A    between atoms: C_18  and  C_19
REMARK   10  A    between atoms: N_25  and  C_26
REMARK                            x       y       z     vdW  Elec       q    Type
REMARK                         _______ _______ _______ _____ _____    ______ ____
ROOT
ATOM      9  C   UNL     1      -1.710   0.476  24.074  0.00  0.00    +0.155 C 
ATOM     10  C   UNL     1      -2.407   0.906  23.967  0.00  0.00    +0.051 C 
ATOM     11  C   UNL     1      -2.410   1.569  23.476  0.00  0.00    +0.101 C 
ATOM     12  C   UNL     1      -1.719   1.802  23.093  0.00  0.00    +0.043 C 
ATOM     13  C   UNL     1      -1.022   1.373  23.200  0.00  0.00    +0.096 C 
ATOM     14  N   UNL     1      -1.019   0.710  23.692  0.00  0.00    -0.273 N 
ATOM     15  C   UNL     1      -0.322   0.281  23.799  0.00  0.00    +0.227 C 
ATOM     16  O   UNL     1      -0.319  -0.383  24.290  0.00  0.00    -0.275 OA
ENDROOT
BRANCH  11  22
ATOM     22  N   UNL     1      -3.107   1.999  23.368  0.00  0.00    -0.189 NA
ATOM     23  C   UNL     1      -3.494   2.325  24.019  0.00  0.00    +0.343 C 
ATOM     24  O   UNL     1      -3.187   2.222  24.776  0.00  0.00    -0.249 OA
ATOM     25  N   UNL     1      -4.190   2.754  23.911  0.00  0.00    -0.161 NA
BRANCH  25  26
ATOM     26  C   UNL     1      -4.579   3.080  24.562  0.00  0.00    +0.077 A 
ATOM     27  C   UNL     1      -4.389   3.843  24.816  0.00  0.00    +0.017 A 
ATOM     28  C   UNL     1      -4.777   4.169  25.467  0.00  0.00    +0.004 A 
ATOM     29  C   UNL     1      -5.353   3.734  25.864  0.00  0.00    +0.030 A 
ATOM     30  C   UNL     1      -5.543   2.972  25.611  0.00  0.00    +0.141 A 
ATOM     31  F   UNL     1      -6.120   2.536  26.009  0.00  0.00    -0.204 F 
ATOM     32  C   UNL     1      -5.155   2.645  24.960  0.00  0.00    +0.046 A 
ENDBRANCH  25  26
ENDBRANCH  11  22
BRANCH   9   7
ATOM      6  N   UNL     1      -2.350  -0.704  24.563  0.00  0.00    -0.194 NA
ATOM      7  C   UNL     1      -1.707  -0.186  24.565  0.00  0.00    +0.260 C 
ATOM      8  O   UNL     1      -1.062  -0.332  25.058  0.00  0.00    -0.272 OA
BRANCH   6   5
ATOM      5  C   UNL     1      -2.347  -1.367  25.054  0.00  0.00    +0.193 C 
BRANCH   5  33
ATOM     33  C   UNL     1      -2.594  -1.301  25.839  0.00  0.00    +0.031 C 
ATOM     34  C   UNL     1      -2.045  -1.369  26.450  0.00  0.00    +0.002 C 
ATOM     35  C   UNL     1      -3.390  -1.167  26.010  0.00  0.00    +0.002 C 
ENDBRANCH   5  33
BRANCH   5   3
ATOM      3  C   UNL     1      -2.096  -2.096  24.760  0.00  0.00    +0.337 C 
ATOM      4  O   UNL     1      -1.431  -2.463  25.080  0.00  0.00    -0.248 OA
BRANCH   3   2
ATOM      1  C   UNL     1      -2.294  -3.211  23.888  0.00  0.00    +0.256 C 
ATOM      2  O   UNL     1      -2.512  -2.458  24.146  0.00  0.00    -0.443 OA
ENDBRANCH   3   2
ENDBRANCH   5   3
ENDBRANCH   6   5
ENDBRANCH   9   7
BRANCH  15  17
ATOM     17  C   UNL     1       0.370   0.514  23.416  0.00  0.00    +0.097 C 
BRANCH  17  18
ATOM     18  C   UNL     1       0.980  -0.029  23.301  0.00  0.00    +0.124 C 
BRANCH  18  19
ATOM     19  C   UNL     1       1.635   0.179  22.844  0.00  0.00    +0.365 C 
ATOM     20  O   UNL     1       2.196   0.706  23.141  0.00  0.00    -0.246 OA
ATOM     21  O   UNL     1       1.731  -0.141  22.089  0.00  0.00    -0.246 OA
ENDBRANCH  18  19
ENDBRANCH  17  18
ENDBRANCH  15  17
TORSDOF 10
ENDMDL
MODEL 4
REMARK VINA RESULT:      -8.2      3.331      5.065
REMARK  Name = 
REMARK  10 active torsions:
REMARK  status: ('A' for Active; 'I' for Inactive)
REMARK    1  A    between atoms: O_2  and  C_3
REMARK    2  A    between atoms: C_3  and  C_5
REMARK    3  A    between atoms: C_5  and  N_6
REMARK    4  A    between atoms: C_5  and  C_33
REMARK    5  A    between atoms: C_7  and  C_9
REMARK    6  A    between atoms: C_11  and  N_22
REMARK    7  A    between atoms: C_15  and  C_17
REMARK    8  A    between atoms: C_17  and  C_18
REMARK    9  A    between atoms: C_18  and  C_19
REMARK   10  A    between atoms: N_25  and  C_26
REMARK                            x       y       z     vdW  Elec       q    Type
REMARK                         _______ _______ _______ _____ _____    ______ ____
ROOT
ATOM      9  C   UNL     1      -0.763   0.723  24.237  0.00  0.00    +0.155 C 
ATOM     10  C   UNL     1      -0.160   0.733  23.673  0.00  0.00    +0.051 C 
ATOM     11  C   UNL     1       0.126   0.024  23.364  0.00  0.00    +0.101 C 
ATOM     12  C   UNL     1      -0.188  -0.694  23.618  0.00  0.00    +0.043 C 
ATOM     13  C   UNL     1      -0.789  -0.705  24.182  0.00  0.00    +0.096 C 
ATOM     14  N   UNL     1      -1.077   0.005  24.492  0.00  0.00    -0.273 N 
ATOM     15  C   UNL     1      -1.679  -0.006  25.056  0.00  0.00    +0.227 C 
ATOM     16  O   UNL     1      -1.966   0.703  25.366  0.00  0.00    -0.275 OA
ENDROOT
BRANCH  11  22
ATOM     22  N   UNL     1       0.729   0.035  22.799  0.00  0.00    -0.189 NA
ATOM     23  C   UNL     1       1.514   0.117  23.036  0.00  0.00    +0.343 C 
ATOM     24  O   UNL     1       1.698   0.189  23.836  0.00  0.00    -0.249 OA
ATOM     25  N   UNL     1       2.116   0.127  22.472  0.00  0.00    -0.161 NA
BRANCH  25  26
ATOM     26  C   UNL     1       2.902   0.209  22.709  0.00  0.00    +0.077 A 
ATOM     27  C   UNL     1       3.275   0.944  22.654  0.00  0.00    +0.017 A 
ATOM     28  C   UNL     1       4.061   1.026  22.891  0.00  0.00    +0.004 A 
ATOM     29  C   UNL     1       4.474   0.375  23.183  0.00  0.00    +0.030 A 
ATOM     30  C   UNL     1       4.102  -0.359  23.237  0.00  0.00    +0.141 A 
ATOM     31  F   UNL     1       4.515  -1.011  23.529  0.00  0.00    -0.204 F 
ATOM     32  C   UNL     1       3.315  -0.442  23.000  0.00  0.00    +0.046 A 
ENDBRANCH  25  26
ENDBRANCH  11  22
BRANCH   9   7
ATOM      6  N   UNL     1      -1.247   2.053  24.039  0.00  0.00    -0.194 NA
ATOM      7  C   UNL     1      -1.050   1.432  24.546  0.00  0.00    +0.260 C 
ATOM      8  O   UNL     1      -1.140   1.521  25.362  0.00  0.00    -0.272 OA
BRANCH   6   5
ATOM      5  C   UNL     1      -1.534   2.762  24.348  0.00  0.00    +0.193 C 
BRANCH   5  33
ATOM     33  C   UNL     1      -1.011   3.315  24.666  0.00  0.00    +0.031 C 
ATOM     34  C   UNL     1      -0.417   3.639  24.194  0.00  0.00    +0.002 C 
ATOM     35  C   UNL     1      -1.083   3.545  25.455  0.00  0.00    +0.002 C 
ENDBRANCH   5  33
BRANCH   5   3
ATOM      3  C   UNL     1      -2.345   2.917  24.339  0.00  0.00    +0.337 C 
ATOM      4  O   UNL     1      -2.727   3.150  25.031  0.00  0.00    -0.248 OA
BRANCH   3   2
ATOM      1  C   UNL     1      -3.576   3.022  23.622  0.00  0.00    +0.256 C 
ATOM      2  O   UNL     1      -2.771   2.838  23.638  0.00  0.00    -0.443 OA
ENDBRANCH   3   2
ENDBRANCH   5   3
ENDBRANCH   6   5
ENDBRANCH   9   7
BRANCH  15  17
ATOM     17  C   UNL     1      -1.993  -0.725  25.311  0.00  0.00    +0.097 C 
BRANCH  17  18
ATOM     18  C   UNL     1      -2.787  -0.772  25.532  0.00  0.00    +0.124 C 
BRANCH  18  19
ATOM     19  C   UNL     1      -3.090  -1.479  25.830  0.00  0.00    +0.365 C 
ATOM     20  O   UNL     1      -3.362  -2.063  25.312  0.00  0.00    -0.246 OA
ATOM     21  O   UNL     1      -3.121  -1.604  26.644  0.00  0.00    -0.246 OA
ENDBRANCH  18  19
ENDBRANCH  17  18
ENDBRANCH  15  17
TORSDOF 10
ENDMDL
MODEL 5
REMARK VINA RESULT:      -8.1      3.336      5.304
REMARK  Name = 
REMARK  10 active torsions:
REMARK  status: ('A' for Active; 'I' for Inactive)
REMARK    1  A    between atoms: O_2  and  C_3
REMARK    2  A    between atoms: C_3  and  C_5
REMARK    3  A    between atoms: C_5  and  N_6
REMARK    4  A    between atoms: C_5  and  C_33
REMARK    5  A    between atoms: C_7  and  C_9
REMARK    6  A    between atoms: C_11  and  N_22
REMARK    7  A    between atoms: C_15  and  C_17
REMARK    8  A    between atoms: C_17  and  C_18
REMARK    9  A    between atoms: C_18  and  C_19
REMARK   10  A    between atoms: N_25  and  C_26
REMARK                            x       y       z     vdW  Elec       q    Type
REMARK                         _______ _______ _______ _____ _____    ______ ____
ROOT
ATOM      9  C   UNL     1      -0.730   0.674  24.385  0.00  0.00    +0.155 C 
ATOM     10  C   UNL     1      -0.177   0.295  23.903  0.00  0.00    +0.051 C 
ATOM     11  C   UNL     1       0.379   0.739  23.487  0.00  0.00    +0.101 C 
ATOM     12  C   UNL     1       0.384   1.561  23.553  0.00  0.00    +0.043 C 
ATOM     13  C   UNL     1      -0.168   1.940  24.035  0.00  0.00    +0.096 C 
ATOM     14  N   UNL     1      -0.726   1.495  24.451  0.00  0.00    -0.273 N 
ATOM     15  C   UNL     1      -1.278   1.874  24.933  0.00  0.00    +0.227 C 
ATOM     16  O   UNL     1      -1.835   1.429  25.349  0.00  0.00    -0.275 OA
ENDROOT
BRANCH  11  22
ATOM     22  N   UNL     1       0.932   0.361  23.005  0.00  0.00    -0.189 NA
ATOM     23  C   UNL     1       1.739   0.468  23.140  0.00  0.00    +0.343 C 
ATOM     24  O   UNL     1       1.993   0.953  23.756  0.00  0.00    -0.249 OA
ATOM     25  N   UNL     1       2.291   0.090  22.658  0.00  0.00    -0.161 NA
BRANCH  25  26
ATOM     26  C   UNL     1       3.098   0.197  22.793  0.00  0.00    +0.077 A 
ATOM     27  C   UNL     1       3.473   0.883  22.528  0.00  0.00    +0.017 A 
ATOM     28  C   UNL     1       4.280   0.990  22.663  0.00  0.00    +0.004 A 
ATOM     29  C   UNL     1       4.711   0.413  23.062  0.00  0.00    +0.030 A 
ATOM     30  C   UNL     1       4.337  -0.273  23.327  0.00  0.00    +0.141 A 
ATOM     31  F   UNL     1       4.769  -0.850  23.727  0.00  0.00    -0.204 F 
ATOM     32  C   UNL     1       3.530  -0.380  23.192  0.00  0.00    +0.046 A 
ENDBRANCH  25  26
ENDBRANCH  11  22
BRANCH   9   7
ATOM      6  N   UNL     1      -1.718  -0.359  24.414  0.00  0.00    -0.194 NA
ATOM      7  C   UNL     1      -1.287   0.229  24.801  0.00  0.00    +0.260 C 
ATOM      8  O   UNL     1      -1.413   0.372  25.604  0.00  0.00    -0.272 OA
BRANCH   6   5
ATOM      5  C   UNL     1      -2.274  -0.804  24.829  0.00  0.00    +0.193 C 
BRANCH   5  33
ATOM     33  C   UNL     1      -2.029  -1.428  25.310  0.00  0.00    +0.031 C 
ATOM     34  C   UNL     1      -2.194  -1.415  26.118  0.00  0.00    +0.002 C 
ATOM     35  C   UNL     1      -1.619  -2.064  24.981  0.00  0.00    +0.002 C 
ENDBRANCH   5  33
BRANCH   5   3
ATOM      3  C   UNL     1      -3.077  -0.623  24.764  0.00  0.00    +0.337 C 
ATOM      4  O   UNL     1      -3.520  -0.464  25.441  0.00  0.00    -0.248 OA
BRANCH   3   2
ATOM      1  C   UNL     1      -4.256  -0.522  23.962  0.00  0.00    +0.256 C 
ATOM      2  O   UNL     1      -3.436  -0.604  24.022  0.00  0.00    -0.443 OA
ENDBRANCH   3   2
ENDBRANCH   5   3
ENDBRANCH   6   5
ENDBRANCH   9   7
BRANCH  15  17
ATOM     17  C   UNL     1      -1.273   2.696  24.999  0.00  0.00    +0.097 C 
BRANCH  17  18
ATOM     18  C   UNL     1      -1.886   3.081  25.395  0.00  0.00    +0.124 C 
BRANCH  18  19
ATOM     19  C   UNL     1      -1.977   3.898  25.319  0.00  0.00    +0.365 C 
ATOM     20  O   UNL     1      -2.625   4.205  24.910  0.00  0.00    -0.246 OA
ATOM     21  O   UNL     1      -1.421   4.408  25.652  0.00  0.00    -0.246 OA
ENDBRANCH  18  19
ENDBRANCH  17  18
ENDBRANCH  15  17
TORSDOF 10
ENDMDL
MODEL 6
REMARK VINA RESULT:      -8.0      2.733      5.937
REMARK  Name = 
REMARK  10 active torsions:
REMARK  status: ('A' for Active; 'I' for Inactive)
REMARK    1  A    between atoms: O_2  and  C_3
REMARK    2  A    between atoms: C_3  and  C_5
REMARK    3  A    between atoms: C_5  and  N_6
REMARK    4  A    between atoms: C_5  and  C_33
REMARK    5  A    between atoms: C_7  and  C_9
REMARK    6  A    between atoms: C_11  and  N_22
REMARK    7  A    between atoms: C_15  and  C_17
REMARK    8  A    between atoms: C_17  and  C_18
REMARK    9  A    between atoms: C_18  and  C_19
REMARK   10  A    between atoms: N_25  and  C_26
REMARK                            x       y       z     vdW  Elec       q    Type
REMARK                         _______ _______ _______ _____ _____    ______ ____
ROOT
ATOM      9  C   UNL     1      -0.871   0.545  24.572  0.00  0.00    +0.155 C 
ATOM     10  C   UNL     1      -1.260   1.139  24.994  0.00  0.00    +0.051 C 
ATOM     11  C   UNL     1      -1.005   1.921  24.933  0.00  0.00    +0.101 C 
ATOM     12  C   UNL     1      -0.363   2.110  24.453  0.00  0.00    +0.043 C 
ATOM     13  C   UNL     1       0.026   1.516  24.031  0.00  0.00    +0.096 C 
ATOM     14  N   UNL     1      -0.229   0.733  24.092  0.00  0.00    -0.273 N 
ATOM     15  C   UNL     1       0.159   0.140  23.670  0.00  0.00    +0.227 C 
ATOM     16  O   UNL     1      -0.096  -0.643  23.731  0.00  0.00    -0.275 OA
ENDROOT
BRANCH  11  22
ATOM     22  N   UNL     1      -1.393   2.515  25.355  0.00  0.00    -0.189 NA
ATOM     23  C   UNL     1      -2.158   2.739  25.141  0.00  0.00    +0.343 C 
ATOM     24  O   UNL     1      -2.534   2.370  24.507  0.00  0.00    -0.249 OA
ATOM     25  N   UNL     1      -2.546   3.333  25.562  0.00  0.00    -0.161 NA
BRANCH  25  26
ATOM     26  C   UNL     1      -3.311   3.557  25.349  0.00  0.00    +0.077 A 
ATOM     27  C   UNL     1      -3.430   4.043  24.692  0.00  0.00    +0.017 A 
ATOM     28  C   UNL     1      -4.195   4.267  24.479  0.00  0.00    +0.004 A 
ATOM     29  C   UNL     1      -4.840   4.006  24.921  0.00  0.00    +0.030 A 
ATOM     30  C   UNL     1      -4.721   3.521  25.577  0.00  0.00    +0.141 A 
ATOM     31  F   UNL     1      -5.367   3.259  26.019  0.00  0.00    -0.204 F 
ATOM     32  C   UNL     1      -3.956   3.296  25.791  0.00  0.00    +0.046 A 
ENDBRANCH  25  26
ENDBRANCH  11  22
BRANCH   9   7
ATOM      6  N   UNL     1      -1.880  -0.403  24.927  0.00  0.00    -0.194 NA
ATOM      7  C   UNL     1      -1.127  -0.237  24.633  0.00  0.00    +0.260 C 
ATOM      8  O   UNL     1      -0.630  -0.853  24.399  0.00  0.00    -0.272 OA
BRANCH   6   5
ATOM      5  C   UNL     1      -2.135  -1.185  24.988  0.00  0.00    +0.193 C 
BRANCH   5  33
ATOM     33  C   UNL     1      -1.878  -1.656  25.614  0.00  0.00    +0.031 C 
ATOM     34  C   UNL     1      -1.493  -2.370  25.462  0.00  0.00    +0.002 C 
ATOM     35  C   UNL     1      -2.005  -1.413  26.392  0.00  0.00    +0.002 C 
ENDBRANCH   5  33
BRANCH   5   3
ATOM      3  C   UNL     1      -2.649  -1.496  24.421  0.00  0.00    +0.337 C 
ATOM      4  O   UNL     1      -2.468  -2.207  24.047  0.00  0.00    -0.248 OA
BRANCH   3   2
ATOM      1  C   UNL     1      -3.939  -1.478  23.807  0.00  0.00    +0.256 C 
ATOM      2  O   UNL     1      -3.343  -1.094  24.230  0.00  0.00    -0.443 OA
ENDBRANCH   3   2
ENDBRANCH   5   3
ENDBRANCH   6   5
ENDBRANCH   9   7
BRANCH  15  17
ATOM     17  C   UNL     1       0.802   0.329  23.189  0.00  0.00    +0.097 C 
BRANCH  17  18
ATOM     18  C   UNL     1       1.252  -0.273  22.847  0.00  0.00    +0.124 C 
BRANCH  18  19
ATOM     19  C   UNL     1       1.867  -0.085  22.331  0.00  0.00    +0.365 C 
ATOM     20  O   UNL     1       1.771  -0.190  21.518  0.00  0.00    -0.246 OA
ATOM     21  O   UNL     1       2.579   0.208  22.627  0.00  0.00    -0.246 OA
ENDBRANCH  18  19
ENDBRANCH  17  18
ENDBRANCH  15  17
TORSDOF 10
ENDMDL
MODEL 7
REMARK VINA RESULT:      -7.7      1.099      3.212
REMARK  Name = 
REMARK  10 active torsions:
REMARK  status: ('A' for Active; 'I' for Inactive)
REMARK    1  A    between atoms: O_2  and  C_3
REMARK    2  A    between atoms: C_3  and  C_5
REMARK    3  A    between atoms: C_5  and  N_6
REMARK    4  A    between atoms: C_5  and  C_33
REMARK    5  A    between atoms: C_7  and  C_9
REMARK    6  A    between atoms: C_11  and  N_22
REMARK    7  A    between atoms: C_15  and  C_17
REMARK    8  A    between atoms: C_17  and  C_18
REMARK    9  A    between atoms: C_18  and  C_19
REMARK   10  A    between atoms: N_25  and  C_26
REMARK                            x       y       z     vdW  Elec       q    Type
REMARK                         _______ _______ _______ _____ _____    ______ ____
ROOT
ATOM      9  C   UNL     1      -3.424   2.371  24.788  0.00  0.00    +0.155 C 
ATOM     10  C   UNL     1      -3.586   1.650  24.419  0.00  0.00    +0.051 C 
ATOM     11  C   UNL     1      -3.011   1.290  23.949  0.00  0.00    +0.101 C 
ATOM     12  C   UNL     1      -2.276   1.649  23.848  0.00  0.00    +0.043 C 
ATOM     13  C   UNL     1      -2.114   2.369  24.216  0.00  0.00    +0.096 C 
ATOM     14  N   UNL     1      -2.689   2.730  24.686  0.00  0.00    -0.273 N 
ATOM     15  C   UNL     1      -2.527   3.450  25.055  0.00  0.00    +0.227 C 
ATOM     16  O   UNL     1      -3.102   3.811  25.525  0.00  0.00    -0.275 OA
ENDROOT
BRANCH  11  22
ATOM     22  N   UNL     1      -3.173   0.569  23.581  0.00  0.00    -0.189 NA
ATOM     23  C   UNL     1      -3.092  -0.136  24.002  0.00  0.00    +0.343 C 
ATOM     24  O   UNL     1      -2.850  -0.121  24.789  0.00  0.00    -0.249 OA
ATOM     25  N   UNL     1      -3.254  -0.856  23.633  0.00  0.00    -0.161 NA
BRANCH  25  26
ATOM     26  C   UNL     1      -3.173  -1.562  24.054  0.00  0.00    +0.077 A 
ATOM     27  C   UNL     1      -3.844  -1.960  24.324  0.00  0.00    +0.017 A 
ATOM     28  C   UNL     1      -3.763  -2.665  24.745  0.00  0.00    +0.004 A 
ATOM     29  C   UNL     1      -3.013  -2.972  24.895  0.00  0.00    +0.030 A 
ATOM     30  C   UNL     1      -2.343  -2.575  24.625  0.00  0.00    +0.141 A 
ATOM     31  F   UNL     1      -1.592  -2.882  24.775  0.00  0.00    -0.204 F 
ATOM     32  C   UNL     1      -2.423  -1.869  24.204  0.00  0.00    +0.046 A 
ENDBRANCH  25  26
ENDBRANCH  11  22
BRANCH   9   7
ATOM      6  N   UNL     1      -4.793   2.697  25.035  0.00  0.00    -0.194 NA
ATOM      7  C   UNL     1      -3.999   2.731  25.257  0.00  0.00    +0.260 C 
ATOM      8  O   UNL     1      -3.780   3.125  25.948  0.00  0.00    -0.272 OA
BRANCH   6   5
ATOM      5  C   UNL     1      -5.368   3.058  25.504  0.00  0.00    +0.193 C 
BRANCH   5  33
ATOM     33  C   UNL     1      -5.599   3.835  25.351  0.00  0.00    +0.031 C 
ATOM     34  C   UNL     1      -5.840   4.051  24.593  0.00  0.00    +0.002 C 
ATOM     35  C   UNL     1      -5.588   4.395  25.956  0.00  0.00    +0.002 C 
ENDBRANCH   5  33
BRANCH   5   3
ATOM      3  C   UNL     1      -5.712   2.640  26.128  0.00  0.00    +0.337 C 
ATOM      4  O   UNL     1      -5.666   2.935  26.896  0.00  0.00    -0.248 OA
BRANCH   3   2
ATOM      1  C   UNL     1      -6.513   1.551  26.589  0.00  0.00    +0.256 C 
ATOM      2  O   UNL     1      -6.101   1.928  25.981  0.00  0.00    -0.443 OA
ENDBRANCH   3   2
ENDBRANCH   5   3
ENDBRANCH   6   5
ENDBRANCH   9   7
BRANCH  15  17
ATOM     17  C   UNL     1      -1.792   3.810  24.953  0.00  0.00    +0.097 C 
BRANCH  17  18
ATOM     18  C   UNL     1      -1.644   4.547  25.292  0.00  0.00    +0.124 C 
BRANCH  18  19
ATOM     19  C   UNL     1      -1.000   4.996  25.036  0.00  0.00    +0.365 C 
ATOM     20  O   UNL     1      -1.102   5.794  24.849  0.00  0.00    -0.246 OA
ATOM     21  O   UNL     1      -0.256   4.649  24.967  0.00  0.00    -0.246 OA
ENDBRANCH  18  19
ENDBRANCH  17  18
ENDBRANCH  15  17
TORSDOF 10
ENDMDL
