MODEL 1
REMARK VINA RESULT:     -10.6      0.000      0.000
REMARK  Name = 
REMARK  7 active torsions:
REMARK  status: ('A' for Active; 'I' for Inactive)
REMARK    1  A    between atoms: S_2  and  C_3
REMARK    2  A    between atoms: C_3  and  C_4
REMARK    3  A    between atoms: N_6  and  C_7
REMARK    4  A    between atoms: C_17  and  C_19
REMARK    5  A    between atoms: C_19  and  S_20
REMARK    6  A    between atoms: S_20  and  C_21
REMARK    7  A    between atoms: C_21  and  C_22
REMARK                            x       y       z     vdW  Elec       q    Type
REMARK                         _______ _______ _______ _____ _____    ______ ____
ROOT
ATOM      7  C   UNL     1      -3.257   0.076  25.000  0.00  0.00    +0.129 A 
ATOM      8  C   UNL     1      -3.975  -0.269  25.214  0.00  0.00    +0.023 A 
ATOM      9  C   UNL     1      -4.666   0.183  25.214  0.00  0.00    +0.014 A 
ATOM     10  C   UNL     1      -4.637   0.979  25.000  0.00  0.00    +0.041 A 
ATOM     11  C   UNL     1      -5.184   1.711  24.902  0.00  0.00    +0.058 C 
ATOM     12  C   UNL     1      -5.854   1.911  24.965  0.00  0.00    +0.011 C 
ATOM     13  C   UNL     1      -5.142   2.247  24.754  0.00  0.00    +0.043 C 
ATOM     14  C   UNL     1      -4.393   2.827  24.473  0.00  0.00    +0.095 C 
ATOM     15  N   UNL     1      -3.767   2.274  24.510  0.00  0.00    -0.278 N 
ATOM     16  C   UNL     1      -4.470   2.284  24.629  0.00  0.00    +0.099 C 
ATOM     17  C   UNL     1      -3.000   1.976  24.457  0.00  0.00    +0.237 C 
ATOM     18  O   UNL     1      -2.851   1.184  24.639  0.00  0.00    -0.274 OA
ATOM     25  C   UNL     1      -4.564   1.488  24.854  0.00  0.00    +0.110 C 
ATOM     26  N   UNL     1      -3.919   1.323  24.786  0.00  0.00    -0.298 N 
ATOM     27  C   UNL     1      -3.228   0.872  24.786  0.00  0.00    +0.276 A 
ATOM     28  O   UNL     1      -2.427   0.977  24.621  0.00  0.00    -0.266 OA
ENDROOT
BRANCH   7   6
ATOM      4  C   UNL     1      -2.604  -1.186  24.848  0.00  0.00    +0.257 C 
ATOM      5  O   UNL     1      -1.913  -1.639  24.849  0.00  0.00    -0.272 OA
ATOM      6  N   UNL     1      -2.567  -0.377  25.000  0.00  0.00    -0.174 NA
BRANCH   4   3
ATOM      3  C   UNL     1      -3.332  -1.544  24.696  0.00  0.00    +0.145 C 
BRANCH   3   2
ATOM      1  C   UNL     1      -3.902  -2.686  24.052  0.00  0.00    +0.070 C 
ATOM      2  S   UNL     1      -3.376  -2.363  24.599  0.00  0.00    -0.130 S 
ENDBRANCH   3   2
ENDBRANCH   4   3
ENDBRANCH   7   6
BRANCH  17  19
ATOM     19  C   UNL     1      -2.382   2.468  24.221  0.00  0.00    +0.143 C 
BRANCH  19  20
ATOM     20  S   UNL     1      -1.949   2.886  24.786  0.00  0.00    -0.119 S 
BRANCH  20  21
ATOM     21  C   UNL     1      -1.318   3.364  24.552  0.00  0.00    +0.172 C 
BRANCH  21  22
ATOM     22  C   UNL     1      -0.927   3.831  25.108  0.00  0.00    +0.376 C 
ATOM     23  O   UNL     1      -1.030   4.650  25.104  0.00  0.00    -0.245 OA
ATOM     24  O   UNL     1      -0.432   3.480  25.668  0.00  0.00    -0.245 OA
ENDBRANCH  21  22
ENDBRANCH  20  21
ENDBRANCH  19  20
ENDBRANCH  17  19
TORSDOF 7
ENDMDL
MODEL 2
REMARK VINA RESULT:     -10.5      1.848      3.520
REMARK  Name = 
REMARK  7 active torsions:
REMARK  status: ('A' for Active; 'I' for Inactive)
REMARK    1  A    between atoms: S_2  and  C_3
REMARK    2  A    between atoms: C_3  and  C_4
REMARK    3  A    between atoms: N_6  and  C_7
REMARK    4  A    between atoms: C_17  and  C_19
REMARK    5  A    between atoms: C_19  and  S_20
REMARK    6  A    between atoms: S_20  and  C_21
REMARK    7  A    between atoms: C_21  and  C_22
REMARK                            x       y       z     vdW  Elec       q    Type
REMARK                         _______ _______ _______ _____ _____    ______ ____
ROOT
ATOM      7  C   UNL     1      -1.762  -0.061  24.887  0.00  0.00    +0.129 A 
ATOM      8  C   UNL     1      -1.399  -0.799  24.958  0.00  0.00    +0.023 A 
ATOM      9  C   UNL     1      -1.836  -1.488  24.834  0.00  0.00    +0.014 A 
ATOM     10  C   UNL     1      -2.636  -1.439  24.640  0.00  0.00    +0.041 A 
ATOM     11  C   UNL     1      -3.358  -1.975  24.450  0.00  0.00    +0.058 C 
ATOM     12  C   UNL     1      -3.542  -2.649  24.389  0.00  0.00    +0.011 C 
ATOM     13  C   UNL     1      -3.898  -1.920  24.320  0.00  0.00    +0.043 C 
ATOM     14  C   UNL     1      -4.497  -1.145  24.192  0.00  0.00    +0.095 C 
ATOM     15  N   UNL     1      -3.958  -0.524  24.339  0.00  0.00    -0.278 N 
ATOM     16  C   UNL     1      -3.950  -1.236  24.323  0.00  0.00    +0.099 C 
ATOM     17  C   UNL     1      -3.677   0.247  24.426  0.00  0.00    +0.237 C 
ATOM     18  O   UNL     1      -2.886   0.378  24.623  0.00  0.00    -0.274 OA
ATOM     25  C   UNL     1      -3.149  -1.352  24.517  0.00  0.00    +0.110 C 
ATOM     26  N   UNL     1      -2.999  -0.702  24.569  0.00  0.00    -0.298 N 
ATOM     27  C   UNL     1      -2.562  -0.013  24.692  0.00  0.00    +0.276 A 
ATOM     28  O   UNL     1      -2.687   0.802  24.681  0.00  0.00    -0.266 OA
ENDROOT
BRANCH   7   6
ATOM      4  C   UNL     1      -0.591   0.720  24.647  0.00  0.00    +0.257 C 
ATOM      5  O   UNL     1      -0.153   1.409  24.771  0.00  0.00    -0.272 OA
ATOM      6  N   UNL     1      -1.325   0.627  25.010  0.00  0.00    -0.174 NA
BRANCH   4   3
ATOM      3  C   UNL     1      -0.293   0.125  24.159  0.00  0.00    +0.145 C 
BRANCH   3   2
ATOM      1  C   UNL     1       0.601  -0.207  23.094  0.00  0.00    +0.070 C 
ATOM      2  S   UNL     1       0.429   0.230  23.773  0.00  0.00    -0.130 S 
ENDBRANCH   3   2
ENDBRANCH   4   3
ENDBRANCH   7   6
BRANCH  17  19
ATOM     19  C   UNL     1      -4.186   0.886  24.317  0.00  0.00    +0.143 C 
BRANCH  19  20
ATOM     20  S   UNL     1      -4.585   1.210  24.963  0.00  0.00    -0.119 S 
BRANCH  20  21
ATOM     21  C   UNL     1      -5.118   1.831  24.849  0.00  0.00    +0.172 C 
BRANCH  21  22
ATOM     22  C   UNL     1      -5.459   2.204  25.501  0.00  0.00    +0.376 C 
ATOM     23  O   UNL     1      -6.049   1.821  25.933  0.00  0.00    -0.245 OA
ATOM     24  O   UNL     1      -5.212   2.961  25.720  0.00  0.00    -0.245 OA
ENDBRANCH  21  22
ENDBRANCH  20  21
ENDBRANCH  19  20
ENDBRANCH  17  19
TORSDOF 7
ENDMDL
MODEL 3
REMARK VINA RESULT:     -10.5      1.844      3.638
REMARK  Name = 
REMARK  7 active torsions:
REMARK  status: ('A' for Active; 'I' for Inactive)
REMARK    1  A    between atoms: S_2  and  C_3
REMARK    2  A    between atoms: C_3  and  C_4
REMARK    3  A    between atoms: N_6  and  C_7
REMARK    4  A    between atoms: C_17  and  C_19
REMARK    5  A    between atoms: C_19  and  S_20
REMARK    6  A    between atoms: S_20  and  C_21
REMARK    7  A    between atoms: C_21  and  C_22
REMARK                            x       y       z     vdW  Elec       q    Type
REMARK                         _______ _______ _______ _____ _____    ______ ____
ROOT
ATOM      7  C   UNL     1      -3.580   0.417  24.345  0.00  0.00    +0.129 A 
ATOM      8  C   UNL     1      -4.329   0.081  24.269  0.00  0.00    +0.023 A 
ATOM      9  C   UNL     1      -4.419  -0.739  24.297  0.00  0.00    +0.014 A 
ATOM     10  C   UNL     1      -3.759  -1.222  24.403  0.00  0.00    +0.041 A 
ATOM     11  C   UNL     1      -3.528  -2.109  24.475  0.00  0.00    +0.058 C 
ATOM     12  C   UNL     1      -3.807  -2.752  24.471  0.00  0.00    +0.011 C 
ATOM     13  C   UNL     1      -3.068  -2.417  24.547  0.00  0.00    +0.043 C 
ATOM     14  C   UNL     1      -2.109  -2.206  24.655  0.00  0.00    +0.095 C 
ATOM     15  N   UNL     1      -2.144  -1.372  24.611  0.00  0.00    -0.278 N 
ATOM     16  C   UNL     1      -2.597  -1.921  24.581  0.00  0.00    +0.099 C 
ATOM     17  C   UNL     1      -1.880  -0.590  24.605  0.00  0.00    +0.237 C 
ATOM     18  O   UNL     1      -2.420   0.027  24.508  0.00  0.00    -0.274 OA
ATOM     25  C   UNL     1      -3.300  -1.488  24.473  0.00  0.00    +0.110 C 
ATOM     26  N   UNL     1      -3.009  -0.886  24.480  0.00  0.00    -0.298 N 
ATOM     27  C   UNL     1      -2.920  -0.066  24.451  0.00  0.00    +0.276 A 
ATOM     28  O   UNL     1      -2.309   0.486  24.500  0.00  0.00    -0.266 OA
ENDROOT
BRANCH   7   6
ATOM      4  C   UNL     1      -4.099   1.727  24.580  0.00  0.00    +0.257 C 
ATOM      5  O   UNL     1      -4.010   2.548  24.551  0.00  0.00    -0.272 OA
ATOM      6  N   UNL     1      -3.491   1.236  24.317  0.00  0.00    -0.174 NA
BRANCH   4   3
ATOM      3  C   UNL     1      -4.797   1.398  24.873  0.00  0.00    +0.145 C 
BRANCH   3   2
ATOM      1  C   UNL     1      -5.845   1.792  25.761  0.00  0.00    +0.070 C 
ATOM      2  S   UNL     1      -5.440   1.885  25.048  0.00  0.00    -0.130 S 
ENDBRANCH   3   2
ENDBRANCH   4   3
ENDBRANCH   7   6
BRANCH  17  19
ATOM     19  C   UNL     1      -1.077  -0.425  24.697  0.00  0.00    +0.143 C 
BRANCH  19  20
ATOM     20  S   UNL     1      -0.615  -0.244  24.037  0.00  0.00    -0.119 S 
BRANCH  20  21
ATOM     21  C   UNL     1       0.203  -0.167  24.115  0.00  0.00    +0.172 C 
BRANCH  21  22
ATOM     22  C   UNL     1       0.646   0.157  23.500  0.00  0.00    +0.376 C 
ATOM     23  O   UNL     1       0.859   0.954  23.520  0.00  0.00    -0.245 OA
ATOM     24  O   UNL     1       0.877  -0.316  22.864  0.00  0.00    -0.245 OA
ENDBRANCH  21  22
ENDBRANCH  20  21
ENDBRANCH  19  20
ENDBRANCH  17  19
TORSDOF 7
ENDMDL
MODEL 4
REMARK VINA RESULT:     -10.2      1.974      3.629
REMARK  Name = 
REMARK  7 active torsions:
REMARK  status: ('A' for Active; 'I' for Inactive)
REMARK    1  A    between atoms: S_2  and  C_3
REMARK    2  A    between atoms: C_3  and  C_4
REMARK    3  A    between atoms: N_6  and  C_7
REMARK    4  A    between atoms: C_17  and  C_19
REMARK    5  A    between atoms: C_19  and  S_20
REMARK    6  A    between atoms: S_20  and  C_21
REMARK    7  A    between atoms: C_21  and  C_22
REMARK                            x       y       z     vdW  Elec       q    Type
REMARK                         _______ _______ _______ _____ _____    ______ ____
ROOT
ATOM      7  C   UNL     1      -3.416   2.361  24.630  0.00  0.00    +0.129 A 
ATOM      8  C   UNL     1      -3.766   3.107  24.586  0.00  0.00    +0.023 A 
ATOM      9  C   UNL     1      -3.318   3.782  24.740  0.00  0.00    +0.014 A 
ATOM     10  C   UNL     1      -2.520   3.712  24.937  0.00  0.00    +0.041 A 
ATOM     11  C   UNL     1      -1.790   4.227  25.152  0.00  0.00    +0.058 C 
ATOM     12  C   UNL     1      -1.594   4.895  25.242  0.00  0.00    +0.011 C 
ATOM     13  C   UNL     1      -1.252   4.157  25.284  0.00  0.00    +0.043 C 
ATOM     14  C   UNL     1      -0.667   3.367  25.384  0.00  0.00    +0.095 C 
ATOM     15  N   UNL     1      -1.217   2.762  25.209  0.00  0.00    -0.278 N 
ATOM     16  C   UNL     1      -1.211   3.473  25.253  0.00  0.00    +0.099 C 
ATOM     17  C   UNL     1      -1.511   2.001  25.089  0.00  0.00    +0.237 C 
ATOM     18  O   UNL     1      -2.302   1.891  24.883  0.00  0.00    -0.274 OA
ATOM     25  C   UNL     1      -2.009   3.611  25.060  0.00  0.00    +0.110 C 
ATOM     26  N   UNL     1      -2.170   2.966  24.981  0.00  0.00    -0.298 N 
ATOM     27  C   UNL     1      -2.618   2.290  24.827  0.00  0.00    +0.276 A 
ATOM     28  O   UNL     1      -2.507   1.473  24.806  0.00  0.00    -0.266 OA
ENDROOT
BRANCH   7   6
ATOM      4  C   UNL     1      -4.642   1.637  24.745  0.00  0.00    +0.257 C 
ATOM      5  O   UNL     1      -5.091   0.962  24.591  0.00  0.00    -0.272 OA
ATOM      6  N   UNL     1      -3.864   1.686  24.476  0.00  0.00    -0.174 NA
BRANCH   4   3
ATOM      3  C   UNL     1      -4.972   2.264  25.169  0.00  0.00    +0.145 C 
BRANCH   3   2
ATOM      1  C   UNL     1      -5.978   2.495  26.157  0.00  0.00    +0.070 C 
ATOM      2  S   UNL     1      -5.762   2.230  25.406  0.00  0.00    -0.130 S 
ENDBRANCH   3   2
ENDBRANCH   4   3
ENDBRANCH   7   6
BRANCH  17  19
ATOM     19  C   UNL     1      -1.013   1.349  25.176  0.00  0.00    +0.143 C 
BRANCH  19  20
ATOM     20  S   UNL     1      -0.701   0.977  24.508  0.00  0.00    -0.119 S 
BRANCH  20  21
ATOM     21  C   UNL     1      -0.182   0.340  24.595  0.00  0.00    +0.172 C 
BRANCH  21  22
ATOM     22  C   UNL     1       0.050  -0.095  23.934  0.00  0.00    +0.376 C 
ATOM     23  O   UNL     1      -0.170  -0.888  23.866  0.00  0.00    -0.245 OA
ATOM     24  O   UNL     1       0.501   0.261  23.342  0.00  0.00    -0.245 OA
ENDBRANCH  21  22
ENDBRANCH  20  21
ENDBRANCH  19  20
ENDBRANCH  17  19
TORSDOF 7
ENDMDL
MODEL 5
REMARK VINA RESULT:     -10.2      1.262      3.682
REMARK  Name = 
REMARK  7 active torsions:
REMARK  status: ('A' for Active; 'I' for Inactive)
REMARK    1  A    between atoms: S_2  and  C_3
REMARK    2  A    between atoms: C_3  and  C_4
REMARK    3  A    between atoms: N_6  and  C_7
REMARK    4  A    between atoms: C_17  and  C_19
REMARK    5  A    between atoms: C_19  and  S_20
REMARK    6  A    between atoms: S_20  and  C_21
REMARK    7  A    between atoms: C_21  and  C_22
REMARK                            x       y       z     vdW  Elec       q    Type
REMARK                         _______ _______ _______ _____ _____    ______ ____
ROOT
ATOM      7  C   UNL     1      -2.566   2.188  24.356  0.00  0.00    +0.129 A 
ATOM      8  C   UNL     1      -2.649   2.946  24.671  0.00  0.00    +0.023 A 
ATOM      9  C   UNL     1      -3.364   3.173  25.015  0.00  0.00    +0.014 A 
ATOM     10  C   UNL     1      -3.995   2.643  25.044  0.00  0.00    +0.041 A 
ATOM     11  C   UNL     1      -4.864   2.583  25.336  0.00  0.00    +0.058 C 
ATOM     12  C   UNL     1      -5.364   2.956  25.658  0.00  0.00    +0.011 C 
ATOM     13  C   UNL     1      -5.277   2.209  25.346  0.00  0.00    +0.043 C 
ATOM     14  C   UNL     1      -5.368   1.277  25.029  0.00  0.00    +0.095 C 
ATOM     15  N   UNL     1      -4.605   1.163  24.709  0.00  0.00    -0.278 N 
ATOM     16  C   UNL     1      -4.967   1.682  25.036  0.00  0.00    +0.099 C 
ATOM     17  C   UNL     1      -3.975   0.780  24.338  0.00  0.00    +0.237 C 
ATOM     18  O   UNL     1      -3.259   1.175  24.226  0.00  0.00    -0.274 OA
ATOM     25  C   UNL     1      -4.370   2.262  25.037  0.00  0.00    +0.110 C 
ATOM     26  N   UNL     1      -3.911   1.885  24.729  0.00  0.00    -0.298 N 
ATOM     27  C   UNL     1      -3.196   1.657  24.385  0.00  0.00    +0.276 A 
ATOM     28  O   UNL     1      -2.877   0.991  24.019  0.00  0.00    -0.266 OA
ENDROOT
BRANCH   7   6
ATOM      4  C   UNL     1      -1.139   2.134  24.390  0.00  0.00    +0.257 C 
ATOM      5  O   UNL     1      -0.423   1.907  24.045  0.00  0.00    -0.272 OA
ATOM      6  N   UNL     1      -1.851   1.962  24.012  0.00  0.00    -0.174 NA
BRANCH   4   3
ATOM      3  C   UNL     1      -1.140   2.532  25.112  0.00  0.00    +0.145 C 
BRANCH   3   2
ATOM      1  C   UNL     1      -0.296   2.583  26.264  0.00  0.00    +0.070 C 
ATOM      2  S   UNL     1      -0.426   2.747  25.466  0.00  0.00    -0.130 S 
ENDBRANCH   3   2
ENDBRANCH   4   3
ENDBRANCH   7   6
BRANCH  17  19
ATOM     19  C   UNL     1      -4.062   0.002  24.077  0.00  0.00    +0.143 C 
BRANCH  19  20
ATOM     20  S   UNL     1      -3.817  -0.623  24.557  0.00  0.00    -0.119 S 
BRANCH  20  21
ATOM     21  C   UNL     1      -3.960  -1.402  24.324  0.00  0.00    +0.172 C 
BRANCH  21  22
ATOM     22  C   UNL     1      -3.579  -2.024  24.709  0.00  0.00    +0.376 C 
ATOM     23  O   UNL     1      -3.133  -2.567  24.275  0.00  0.00    -0.245 OA
ATOM     24  O   UNL     1      -3.643  -2.103  25.529  0.00  0.00    -0.245 OA
ENDBRANCH  21  22
ENDBRANCH  20  21
ENDBRANCH  19  20
ENDBRANCH  17  19
TORSDOF 7
ENDMDL
MODEL 6
REMARK VINA RESULT:     -10.0      1.948      3.498
REMARK  Name = 
REMARK  7 active torsions:
REMARK  status: ('A' for Active; 'I' for Inactive)
REMARK    1  A    between atoms: S_2  and  C_3
REMARK    2  A    between atoms: C_3  and  C_4
REMARK    3  A    between atoms: N_6  and  C_7
REMARK    4  A    between atoms: C_17  and  C_19
REMARK    5  A    between atoms: C_19  and  S_20
REMARK    6  A    between atoms: S_20  and  C_21
REMARK    7  A    between atoms: C_21  and  C_22
REMARK                            x       y       z     vdW  Elec       q    Type
REMARK                         _______ _______ _______ _____ _____    ______ ____
ROOT
ATOM      7  C   UNL     1      -1.541   1.409  25.123  0.00  0.00    +0.129 A 
ATOM      8  C   UNL     1      -0.765   1.623  25.305  0.00  0.00    +0.023 A 
ATOM      9  C   UNL     1      -0.557   2.420  25.355  0.00  0.00    +0.014 A 
ATOM     10  C   UNL     1      -1.125   3.003  25.224  0.00  0.00    +0.041 A 
ATOM     11  C   UNL     1      -1.218   3.917  25.204  0.00  0.00    +0.058 C 
ATOM     12  C   UNL     1      -0.852   4.510  25.291  0.00  0.00    +0.011 C 
ATOM     13  C   UNL     1      -1.618   4.295  25.112  0.00  0.00    +0.043 C 
ATOM     14  C   UNL     1      -2.578   4.239  24.888  0.00  0.00    +0.095 C 
ATOM     15  N   UNL     1      -2.668   3.408  24.865  0.00  0.00    -0.278 N 
ATOM     16  C   UNL     1      -2.148   3.879  24.987  0.00  0.00    +0.099 C 
ATOM     17  C   UNL     1      -3.039   2.676  24.777  0.00  0.00    +0.237 C 
ATOM     18  O   UNL     1      -2.607   1.980  24.876  0.00  0.00    -0.274 OA
ATOM     25  C   UNL     1      -1.530   3.339  25.130  0.00  0.00    +0.110 C 
ATOM     26  N   UNL     1      -1.901   2.789  25.042  0.00  0.00    -0.298 N 
ATOM     27  C   UNL     1      -2.109   1.993  24.992  0.00  0.00    +0.276 A 
ATOM     28  O   UNL     1      -2.783   1.544  24.834  0.00  0.00    -0.266 OA
ENDROOT
BRANCH   7   6
ATOM      4  C   UNL     1      -1.250   0.080  24.688  0.00  0.00    +0.257 C 
ATOM      5  O   UNL     1      -1.457  -0.717  24.638  0.00  0.00    -0.272 OA
ATOM      6  N   UNL     1      -1.748   0.613  25.073  0.00  0.00    -0.174 NA
BRANCH   4   3
ATOM      3  C   UNL     1      -0.544   0.345  24.352  0.00  0.00    +0.145 C 
BRANCH   3   2
ATOM      1  C   UNL     1       0.465   0.070  23.378  0.00  0.00    +0.070 C 
ATOM      2  S   UNL     1      -0.040  -0.191  23.975  0.00  0.00    -0.130 S 
ENDBRANCH   3   2
ENDBRANCH   4   3
ENDBRANCH   7   6
BRANCH  17  19
ATOM     19  C   UNL     1      -3.842   2.641  24.589  0.00  0.00    +0.143 C 
BRANCH  19  20
ATOM     20  S   UNL     1      -4.403   2.576  25.191  0.00  0.00    -0.119 S 
BRANCH  20  21
ATOM     21  C   UNL     1      -5.208   2.595  25.008  0.00  0.00    +0.172 C 
BRANCH  21  22
ATOM     22  C   UNL     1      -5.766   2.410  25.587  0.00  0.00    +0.376 C 
ATOM     23  O   UNL     1      -6.319   1.813  25.450  0.00  0.00    -0.245 OA
ATOM     24  O   UNL     1      -5.772   2.822  26.302  0.00  0.00    -0.245 OA
ENDBRANCH  21  22
ENDBRANCH  20  21
ENDBRANCH  19  20
ENDBRANCH  17  19
TORSDOF 7
ENDMDL
