REMARK  Name = 
REMARK  9 active torsions:
REMARK  status: ('A' for Active; 'I' for Inactive)
REMARK    1  A    between atoms: O_2  and  C_3
REMARK    2  A    between atoms: C_5  and  S_6
REMARK    3  A    between atoms: C_10  and  C_11
REMARK    4  A    between atoms: N_13  and  C_14
REMARK    5  A    between atoms: C_16  and  C_22
REMARK    6  A    between atoms: N_24  and  C_25
REMARK    7  A    between atoms: C_25  and  C_26
REMARK    8  A    between atoms: C_25  and  C_33
REMARK    9  A    between atoms: C_26  and  C_27
REMARK                            x       y       z     vdW  Elec       q    Type
REMARK                         _______ _______ _______ _____ _____    ______ ____
ROOT
ATOM     14  C   UNL     1      -0.715  -3.712   0.000  0.00  0.00    +0.150 C 
ATOM     15  C   UNL     1       0.000  -3.300   0.000  0.00  0.00    -0.002 C 
ATOM     16  C   UNL     1       0.715  -3.712   0.000  0.00  0.00    +0.033 C 
ATOM     17  C   UNL     1       0.715  -4.537   0.000  0.00  0.00    +0.066 C 
ATOM     18  C   UNL     1       0.000  -4.950   0.000  0.00  0.00    +0.189 C 
ATOM     19  O   UNL     1       0.000  -5.775   0.000  0.00  0.00    -0.220 OA
ATOM     20  C   UNL     1      -0.715  -4.537   0.000  0.00  0.00    +0.206 C 
ATOM     21  O   UNL     1      -1.429  -4.950   0.000  0.00  0.00    -0.218 OA
ENDROOT
BRANCH  14  13
ATOM     11  C   UNL     1      -2.143  -3.712   0.000  0.00  0.00    +0.268 C 
ATOM     12  O   UNL     1      -2.143  -4.537   0.000  0.00  0.00    -0.268 OA
ATOM     13  N   UNL     1      -1.429  -3.300   0.000  0.00  0.00    -0.196 NA
BRANCH  11  10
ATOM      3  C   UNL     1      -3.572  -3.712   0.000  0.00  0.00    +0.144 A 
ATOM      4  C   UNL     1      -4.287  -3.300   0.000  0.00  0.00    +0.043 A 
ATOM      5  C   UNL     1      -4.287  -2.475   0.000  0.00  0.00    +0.028 A 
ATOM      8  C   UNL     1      -3.572  -2.062   0.000  0.00  0.00    +0.006 A 
ATOM      9  C   UNL     1      -2.858  -2.475   0.000  0.00  0.00    +0.008 A 
ATOM     10  C   UNL     1      -2.858  -3.300   0.000  0.00  0.00    +0.089 A 
BRANCH   3   2
ATOM      1  C   UNL     1      -2.858  -4.950   0.000  0.00  0.00    +0.252 C 
ATOM      2  O   UNL     1      -3.572  -4.537   0.000  0.00  0.00    -0.471 OA
ENDBRANCH   3   2
BRANCH   5   6
ATOM      6  S   UNL     1      -5.001  -2.062   0.000  0.00  0.00    -0.113 S 
ATOM      7  C   UNL     1      -5.001  -1.238   0.000  0.00  0.00    +0.074 C 
ENDBRANCH   5   6
ENDBRANCH  11  10
ENDBRANCH  14  13
BRANCH  16  22
ATOM     22  C   UNL     1       1.429  -3.300   0.000  0.00  0.00    +0.261 C 
ATOM     23  O   UNL     1       2.143  -3.712   0.000  0.00  0.00    -0.269 OA
ATOM     24  N   UNL     1       1.429  -2.475   0.000  0.00  0.00    -0.194 NA
BRANCH  24  25
ATOM     25  C   UNL     1       2.143  -2.062   0.000  0.00  0.00    +0.179 C 
BRANCH  25  33
ATOM     33  C   UNL     1       2.858  -2.475   0.000  0.00  0.00    +0.281 C 
ATOM     34  N   UNL     1       3.572  -2.062   0.000  0.00  0.00    -0.086 NA
ATOM     35  O   UNL     1       2.858  -3.300   0.000  0.00  0.00    -0.270 OA
ENDBRANCH  25  33
BRANCH  25  26
ATOM     26  C   UNL     1       2.143  -1.238   0.000  0.00  0.00    +0.057 C 
BRANCH  26  27
ATOM     27  C   UNL     1       2.858  -0.825   0.000  0.00  0.00    -0.020 A 
ATOM     28  C   UNL     1       2.858   0.000   0.000  0.00  0.00    -0.004 A 
ATOM     29  C   UNL     1       3.572   0.412   0.000  0.00  0.00    -0.000 A 
ATOM     30  C   UNL     1       4.287   0.000   0.000  0.00  0.00    -0.000 A 
ATOM     31  C   UNL     1       4.287  -0.825   0.000  0.00  0.00    -0.000 A 
ATOM     32  C   UNL     1       3.572  -1.238   0.000  0.00  0.00    -0.004 A 
ENDBRANCH  26  27
ENDBRANCH  25  26
ENDBRANCH  24  25
ENDBRANCH  16  22
TORSDOF 9
