MODEL 1
REMARK VINA RESULT:     -10.0      0.000      0.000
REMARK  Name = 
REMARK  6 active torsions:
REMARK  status: ('A' for Active; 'I' for Inactive)
REMARK    1  A    between atoms: C_3  and  C_4
REMARK    2  A    between atoms: C_4  and  N_5
REMARK    3  A    between atoms: C_6  and  C_8
REMARK    4  A    between atoms: C_13  and  N_14
REMARK    5  A    between atoms: N_14  and  C_15
REMARK    6  A    between atoms: C_15  and  C_16
REMARK                            x       y       z     vdW  Elec       q    Type
REMARK                         _______ _______ _______ _____ _____    ______ ____
ROOT
ATOM      1  O   UNL     1      -1.136   0.704  24.882  0.00  0.00    -0.219 OA
ATOM      2  C   UNL     1      -1.867   1.086  24.898  0.00  0.00    +0.199 C 
ATOM      3  C   UNL     1      -1.991   1.893  25.021  0.00  0.00    +0.169 C 
ATOM     11  O   UNL     1      -2.802   2.033  24.993  0.00  0.00    -0.350 OA
ATOM     12  C   UNL     1      -3.181   1.314  24.852  0.00  0.00    +0.162 C 
ATOM     13  C   UNL     1      -2.603   0.729  24.793  0.00  0.00    +0.135 C 
ENDROOT
BRANCH   3   4
ATOM      4  C   UNL     1      -1.404   2.459  25.151  0.00  0.00    +0.147 C 
BRANCH   4   5
ATOM      5  N   UNL     1      -1.571   3.259  25.037  0.00  0.00    -0.203 NA
ATOM      6  C   UNL     1      -0.999   3.828  25.207  0.00  0.00    +0.241 C 
ATOM      7  O   UNL     1      -0.259   3.597  25.492  0.00  0.00    -0.273 OA
BRANCH   6   8
ATOM      8  C   UNL     1      -1.166   4.628  25.094  0.00  0.00    +0.078 C 
ATOM      9  C   UNL     1      -1.658   5.279  25.216  0.00  0.00    +0.010 C 
ATOM     10  C   UNL     1      -0.964   5.362  24.777  0.00  0.00    +0.010 C 
ENDBRANCH   6   8
ENDBRANCH   4   5
ENDBRANCH   3   4
BRANCH  13  14
ATOM     14  N   UNL     1      -2.737  -0.073  24.654  0.00  0.00    -0.209 NA
BRANCH  14  15
ATOM     15  C   UNL     1      -3.483  -0.396  24.792  0.00  0.00    +0.115 C 
BRANCH  15  16
ATOM     16  C   UNL     1      -3.626  -1.191  24.621  0.00  0.00    -0.005 A 
ATOM     17  C   UNL     1      -3.335  -1.779  25.122  0.00  0.00    -0.001 A 
ATOM     18  C   UNL     1      -3.478  -2.573  24.951  0.00  0.00    +0.029 A 
ATOM     19  C   UNL     1      -3.911  -2.779  24.280  0.00  0.00    +0.140 A 
ATOM     20  F   UNL     1      -4.054  -3.574  24.110  0.00  0.00    -0.204 F 
ATOM     21  C   UNL     1      -4.202  -2.192  23.780  0.00  0.00    +0.029 A 
ATOM     22  C   UNL     1      -4.059  -1.397  23.950  0.00  0.00    -0.001 A 
ENDBRANCH  15  16
ENDBRANCH  14  15
ENDBRANCH  13  14
TORSDOF 6
ENDMDL
MODEL 2
REMARK VINA RESULT:      -9.7      2.416      5.857
REMARK  Name = 
REMARK  6 active torsions:
REMARK  status: ('A' for Active; 'I' for Inactive)
REMARK    1  A    between atoms: C_3  and  C_4
REMARK    2  A    between atoms: C_4  and  N_5
REMARK    3  A    between atoms: C_6  and  C_8
REMARK    4  A    between atoms: C_13  and  N_14
REMARK    5  A    between atoms: N_14  and  C_15
REMARK    6  A    between atoms: C_15  and  C_16
REMARK                            x       y       z     vdW  Elec       q    Type
REMARK                         _______ _______ _______ _____ _____    ______ ____
ROOT
ATOM      1  O   UNL     1      -3.657   1.602  23.922  0.00  0.00    -0.219 OA
ATOM      2  C   UNL     1      -3.045   1.256  24.354  0.00  0.00    +0.199 C 
ATOM      3  C   UNL     1      -2.959   0.451  24.514  0.00  0.00    +0.169 C 
ATOM     11  O   UNL     1      -2.273   0.352  24.960  0.00  0.00    -0.350 OA
ATOM     12  C   UNL     1      -1.934   1.095  25.076  0.00  0.00    +0.162 C 
ATOM     13  C   UNL     1      -2.411   1.654  24.702  0.00  0.00    +0.135 C 
ENDROOT
BRANCH   3   4
ATOM      4  C   UNL     1      -3.470  -0.149  24.270  0.00  0.00    +0.147 C 
BRANCH   4   5
ATOM      5  N   UNL     1      -3.304  -0.934  24.460  0.00  0.00    -0.203 NA
ATOM      6  C   UNL     1      -3.836  -1.530  24.253  0.00  0.00    +0.241 C 
ATOM      7  O   UNL     1      -4.534  -1.340  23.857  0.00  0.00    -0.273 OA
BRANCH   6   8
ATOM      8  C   UNL     1      -3.669  -2.316  24.443  0.00  0.00    +0.078 C 
ATOM      9  C   UNL     1      -3.676  -3.116  24.242  0.00  0.00    +0.010 C 
ATOM     10  C   UNL     1      -3.375  -2.876  24.971  0.00  0.00    +0.010 C 
ENDBRANCH   6   8
ENDBRANCH   4   5
ENDBRANCH   3   4
BRANCH  13  14
ATOM     14  N   UNL     1      -2.279   2.468  24.678  0.00  0.00    -0.209 NA
BRANCH  14  15
ATOM     15  C   UNL     1      -1.752   2.815  25.210  0.00  0.00    +0.115 C 
BRANCH  15  16
ATOM     16  C   UNL     1      -1.612   3.628  25.180  0.00  0.00    -0.005 A 
ATOM     17  C   UNL     1      -0.908   3.913  24.856  0.00  0.00    -0.001 A 
ATOM     18  C   UNL     1      -0.769   4.726  24.826  0.00  0.00    +0.029 A 
ATOM     19  C   UNL     1      -1.332   5.252  25.120  0.00  0.00    +0.140 A 
ATOM     20  F   UNL     1      -1.191   6.065  25.089  0.00  0.00    -0.204 F 
ATOM     21  C   UNL     1      -2.034   4.967  25.443  0.00  0.00    +0.029 A 
ATOM     22  C   UNL     1      -2.175   4.154  25.473  0.00  0.00    -0.001 A 
ENDBRANCH  15  16
ENDBRANCH  14  15
ENDBRANCH  13  14
TORSDOF 6
ENDMDL
MODEL 3
REMARK VINA RESULT:      -8.0      3.090      4.440
REMARK  Name = 
REMARK  6 active torsions:
REMARK  status: ('A' for Active; 'I' for Inactive)
REMARK    1  A    between atoms: C_3  and  C_4
REMARK    2  A    between atoms: C_4  and  N_5
REMARK    3  A    between atoms: C_6  and  C_8
REMARK    4  A    between atoms: C_13  and  N_14
REMARK    5  A    between atoms: N_14  and  C_15
REMARK    6  A    between atoms: C_15  and  C_16
REMARK                            x       y       z     vdW  Elec       q    Type
REMARK                         _______ _______ _______ _____ _____    ______ ____
ROOT
ATOM      1  O   UNL     1      -1.921   0.490  25.177  0.00  0.00    -0.219 OA
ATOM      2  C   UNL     1      -1.829   0.951  24.499  0.00  0.00    +0.199 C 
ATOM      3  C   UNL     1      -1.216   0.890  23.950  0.00  0.00    +0.169 C 
ATOM     11  O   UNL     1      -1.342   1.456  23.364  0.00  0.00    -0.350 OA
ATOM     12  C   UNL     1      -2.033   1.867  23.550  0.00  0.00    +0.162 C 
ATOM     13  C   UNL     1      -2.333   1.555  24.251  0.00  0.00    +0.135 C 
ENDROOT
BRANCH   3   4
ATOM      4  C   UNL     1      -0.587   0.357  23.983  0.00  0.00    +0.147 C 
BRANCH   4   5
ATOM      5  N   UNL     1       0.040   0.426  23.452  0.00  0.00    -0.203 NA
ATOM      6  C   UNL     1       0.605  -0.173  23.400  0.00  0.00    +0.241 C 
ATOM      7  O   UNL     1       0.542  -0.842  23.879  0.00  0.00    -0.273 OA
BRANCH   6   8
ATOM      8  C   UNL     1       1.233  -0.103  22.869  0.00  0.00    +0.078 C 
ATOM      9  C   UNL     1       1.997   0.157  22.696  0.00  0.00    +0.010 C 
ATOM     10  C   UNL     1       1.556  -0.242  22.123  0.00  0.00    +0.010 C 
ENDBRANCH   6   8
ENDBRANCH   4   5
ENDBRANCH   3   4
BRANCH  13  14
ATOM     14  N   UNL     1      -3.019   1.803  24.638  0.00  0.00    -0.209 NA
BRANCH  14  15
ATOM     15  C   UNL     1      -3.507   2.370  24.289  0.00  0.00    +0.115 C 
BRANCH  15  16
ATOM     16  C   UNL     1      -4.165   2.653  24.697  0.00  0.00    -0.005 A 
ATOM     17  C   UNL     1      -4.128   3.382  25.084  0.00  0.00    -0.001 A 
ATOM     18  C   UNL     1      -4.786   3.666  25.492  0.00  0.00    +0.029 A 
ATOM     19  C   UNL     1      -5.481   3.222  25.514  0.00  0.00    +0.140 A 
ATOM     20  F   UNL     1      -6.139   3.507  25.922  0.00  0.00    -0.204 F 
ATOM     21  C   UNL     1      -5.518   2.495  25.128  0.00  0.00    +0.029 A 
ATOM     22  C   UNL     1      -4.860   2.210  24.719  0.00  0.00    -0.001 A 
ENDBRANCH  15  16
ENDBRANCH  14  15
ENDBRANCH  13  14
TORSDOF 6
ENDMDL
MODEL 4
REMARK VINA RESULT:      -6.8      3.248      4.426
REMARK  Name = 
REMARK  6 active torsions:
REMARK  status: ('A' for Active; 'I' for Inactive)
REMARK    1  A    between atoms: C_3  and  C_4
REMARK    2  A    between atoms: C_4  and  N_5
REMARK    3  A    between atoms: C_6  and  C_8
REMARK    4  A    between atoms: C_13  and  N_14
REMARK    5  A    between atoms: N_14  and  C_15
REMARK    6  A    between atoms: C_15  and  C_16
REMARK                            x       y       z     vdW  Elec       q    Type
REMARK                         _______ _______ _______ _____ _____    ______ ____
ROOT
ATOM      1  O   UNL     1      -2.156   2.026  22.894  0.00  0.00    -0.219 OA
ATOM      2  C   UNL     1      -2.117   1.690  23.646  0.00  0.00    +0.199 C 
ATOM      3  C   UNL     1      -2.701   1.732  24.228  0.00  0.00    +0.169 C 
ATOM     11  O   UNL     1      -2.431   1.322  24.890  0.00  0.00    -0.350 OA
ATOM     12  C   UNL     1      -1.681   1.026  24.718  0.00  0.00    +0.162 C 
ATOM     13  C   UNL     1      -1.486   1.253  23.950  0.00  0.00    +0.135 C 
ENDROOT
BRANCH   3   4
ATOM      4  C   UNL     1      -3.427   2.118  24.158  0.00  0.00    +0.147 C 
BRANCH   4   5
ATOM      5  N   UNL     1      -4.014   1.997  24.725  0.00  0.00    -0.203 NA
ATOM      6  C   UNL     1      -4.718   2.425  24.688  0.00  0.00    +0.241 C 
ATOM      7  O   UNL     1      -4.835   2.974  24.083  0.00  0.00    -0.273 OA
BRANCH   6   8
ATOM      8  C   UNL     1      -5.305   2.304  25.255  0.00  0.00    +0.078 C 
ATOM      9  C   UNL     1      -5.691   2.540  25.945  0.00  0.00    +0.010 C 
ATOM     10  C   UNL     1      -5.935   1.859  25.547  0.00  0.00    +0.010 C 
ENDBRANCH   6   8
ENDBRANCH   4   5
ENDBRANCH   3   4
BRANCH  13  14
ATOM     14  N   UNL     1      -0.785   1.075  23.554  0.00  0.00    -0.209 NA
BRANCH  14  15
ATOM     15  C   UNL     1      -0.203   0.626  23.928  0.00  0.00    +0.115 C 
BRANCH  15  16
ATOM     16  C   UNL     1       0.508   0.467  23.540  0.00  0.00    -0.005 A 
ATOM     17  C   UNL     1       0.571  -0.193  23.049  0.00  0.00    -0.001 A 
ATOM     18  C   UNL     1       1.281  -0.352  22.661  0.00  0.00    +0.029 A 
ATOM     19  C   UNL     1       1.928   0.149  22.764  0.00  0.00    +0.140 A 
ATOM     20  F   UNL     1       2.639  -0.011  22.375  0.00  0.00    -0.204 F 
ATOM     21  C   UNL     1       1.866   0.808  23.255  0.00  0.00    +0.029 A 
ATOM     22  C   UNL     1       1.155   0.968  23.643  0.00  0.00    -0.001 A 
ENDBRANCH  15  16
ENDBRANCH  14  15
ENDBRANCH  13  14
TORSDOF 6
ENDMDL
MODEL 5
REMARK VINA RESULT:      -6.1      2.117      2.557
REMARK  Name = 
REMARK  6 active torsions:
REMARK  status: ('A' for Active; 'I' for Inactive)
REMARK    1  A    between atoms: C_3  and  C_4
REMARK    2  A    between atoms: C_4  and  N_5
REMARK    3  A    between atoms: C_6  and  C_8
REMARK    4  A    between atoms: C_13  and  N_14
REMARK    5  A    between atoms: N_14  and  C_15
REMARK    6  A    between atoms: C_15  and  C_16
REMARK                            x       y       z     vdW  Elec       q    Type
REMARK                         _______ _______ _______ _____ _____    ______ ____
ROOT
ATOM      1  O   UNL     1      -2.701   1.459  24.640  0.00  0.00    -0.219 OA
ATOM      2  C   UNL     1      -3.479   1.222  24.775  0.00  0.00    +0.199 C 
ATOM      3  C   UNL     1      -4.112   1.718  24.963  0.00  0.00    +0.169 C 
ATOM     11  O   UNL     1      -4.785   1.250  25.050  0.00  0.00    -0.350 OA
ATOM     12  C   UNL     1      -4.570   0.465  24.915  0.00  0.00    +0.162 C 
ATOM     13  C   UNL     1      -3.763   0.448  24.745  0.00  0.00    +0.135 C 
ENDROOT
BRANCH   3   4
ATOM      4  C   UNL     1      -4.075   2.538  25.050  0.00  0.00    +0.147 C 
BRANCH   4   5
ATOM      5  N   UNL     1      -4.768   2.971  25.163  0.00  0.00    -0.203 NA
ATOM      6  C   UNL     1      -4.727   3.763  25.388  0.00  0.00    +0.241 C 
ATOM      7  O   UNL     1      -3.992   4.123  25.500  0.00  0.00    -0.273 OA
BRANCH   6   8
ATOM      8  C   UNL     1      -5.420   4.197  25.501  0.00  0.00    +0.078 C 
ATOM      9  C   UNL     1      -6.191   4.248  25.789  0.00  0.00    +0.010 C 
ATOM     10  C   UNL     1      -5.848   4.895  25.409  0.00  0.00    +0.010 C 
ENDBRANCH   6   8
ENDBRANCH   4   5
ENDBRANCH   3   4
BRANCH  13  14
ATOM     14  N   UNL     1      -3.317  -0.225  24.575  0.00  0.00    -0.209 NA
BRANCH  14  15
ATOM     15  C   UNL     1      -3.506  -0.946  24.930  0.00  0.00    +0.115 C 
BRANCH  15  16
ATOM     16  C   UNL     1      -3.126  -1.637  24.689  0.00  0.00    -0.005 A 
ATOM     17  C   UNL     1      -2.311  -1.718  24.799  0.00  0.00    -0.001 A 
ATOM     18  C   UNL     1      -1.931  -2.409  24.558  0.00  0.00    +0.029 A 
ATOM     19  C   UNL     1      -2.363  -3.018  24.207  0.00  0.00    +0.140 A 
ATOM     20  F   UNL     1      -1.981  -3.709  23.966  0.00  0.00    -0.204 F 
ATOM     21  C   UNL     1      -3.176  -2.936  24.098  0.00  0.00    +0.029 A 
ATOM     22  C   UNL     1      -3.558  -2.245  24.339  0.00  0.00    -0.001 A 
ENDBRANCH  15  16
ENDBRANCH  14  15
ENDBRANCH  13  14
TORSDOF 6
ENDMDL
MODEL 6
REMARK VINA RESULT:      -6.1     15.955     18.208
REMARK  Name = 
REMARK  6 active torsions:
REMARK  status: ('A' for Active; 'I' for Inactive)
REMARK    1  A    between atoms: C_3  and  C_4
REMARK    2  A    between atoms: C_4  and  N_5
REMARK    3  A    between atoms: C_6  and  C_8
REMARK    4  A    between atoms: C_13  and  N_14
REMARK    5  A    between atoms: N_14  and  C_15
REMARK    6  A    between atoms: C_15  and  C_16
REMARK                            x       y       z     vdW  Elec       q    Type
REMARK                         _______ _______ _______ _____ _____    ______ ____
ROOT
ATOM      1  O   UNL     1      14.616   7.191  21.653  0.00  0.00    -0.219 OA
ATOM      2  C   UNL     1      14.327   7.141  20.882  0.00  0.00    +0.199 C 
ATOM      3  C   UNL     1      14.778   7.028  20.201  0.00  0.00    +0.169 C 
ATOM     11  O   UNL     1      14.266   7.012  19.555  0.00  0.00    -0.350 OA
ATOM     12  C   UNL     1      13.497   7.115  19.837  0.00  0.00    +0.162 C 
ATOM     13  C   UNL     1      13.535   7.195  20.657  0.00  0.00    +0.135 C 
ENDROOT
BRANCH   3   4
ATOM      4  C   UNL     1      15.599   6.946  20.172  0.00  0.00    +0.147 C 
BRANCH   4   5
ATOM      5  N   UNL     1      15.942   6.431  19.627  0.00  0.00    -0.203 NA
ATOM      6  C   UNL     1      16.763   6.382  19.565  0.00  0.00    +0.241 C 
ATOM      7  O   UNL     1      17.242   6.849  20.050  0.00  0.00    -0.273 OA
BRANCH   6   8
ATOM      8  C   UNL     1      17.107   5.866  19.020  0.00  0.00    +0.078 C 
ATOM      9  C   UNL     1      17.402   5.720  18.264  0.00  0.00    +0.010 C 
ATOM     10  C   UNL     1      17.405   5.122  18.831  0.00  0.00    +0.010 C 
ENDBRANCH   6   8
ENDBRANCH   4   5
ENDBRANCH   3   4
BRANCH  13  14
ATOM     14  N   UNL     1      12.894   7.308  21.163  0.00  0.00    -0.209 NA
BRANCH  14  15
ATOM     15  C   UNL     1      12.170   7.565  20.861  0.00  0.00    +0.115 C 
BRANCH  15  16
ATOM     16  C   UNL     1      11.493   7.537  21.332  0.00  0.00    -0.005 A 
ATOM     17  C   UNL     1      11.250   8.209  21.745  0.00  0.00    -0.001 A 
ATOM     18  C   UNL     1      10.573   8.181  22.216  0.00  0.00    +0.029 A 
ATOM     19  C   UNL     1      10.140   7.481  22.274  0.00  0.00    +0.140 A 
ATOM     20  F   UNL     1       9.463   7.453  22.746  0.00  0.00    -0.204 F 
ATOM     21  C   UNL     1      10.383   6.810  21.862  0.00  0.00    +0.029 A 
ATOM     22  C   UNL     1      11.060   6.837  21.390  0.00  0.00    -0.001 A 
ENDBRANCH  15  16
ENDBRANCH  14  15
ENDBRANCH  13  14
TORSDOF 6
ENDMDL
