MODEL 1
REMARK VINA RESULT:      -7.6      0.000      0.000
REMARK  Name = 
REMARK  6 active torsions:
REMARK  status: ('A' for Active; 'I' for Inactive)
REMARK    1  A    between atoms: C_2  and  C_3
REMARK    2  A    between atoms: C_5  and  C_6
REMARK    3  A    between atoms: C_6  and  C_7
REMARK    4  A    between atoms: C_7  and  N_11
REMARK    5  A    between atoms: N_11  and  C_12
REMARK    6  A    between atoms: C_12  and  C_13
REMARK                            x       y       z     vdW  Elec       q    Type
REMARK                         _______ _______ _______ _____ _____    ______ ____
ROOT
ATOM      7  C   UNL     1      -4.750   2.755  25.218  0.00  0.00    +0.119 C 
ATOM      8  C   UNL     1      -5.356   2.418  25.665  0.00  0.00    +0.161 C 
ATOM      9  O   UNL     1      -5.720   3.155  25.729  0.00  0.00    -0.351 OA
ATOM     10  C   UNL     1      -5.114   3.492  25.281  0.00  0.00    +0.161 C 
ENDROOT
BRANCH   7   6
ATOM      6  C   UNL     1      -4.145   3.092  24.771  0.00  0.00    +0.070 C 
BRANCH   6   5
ATOM      3  C   UNL     1      -2.364   4.099  25.382  0.00  0.00    +0.187 A 
ATOM      4  C   UNL     1      -2.802   3.689  24.815  0.00  0.00    +0.056 A 
ATOM      5  C   UNL     1      -3.534   3.502  25.146  0.00  0.00    +0.102 A 
ATOM     16  N   UNL     1      -3.549   3.796  25.915  0.00  0.00    -0.082 NA
ATOM     17  O   UNL     1      -2.826   4.165  26.061  0.00  0.00    -0.355 OA
BRANCH   3   2
ATOM      1  O   UNL     1      -1.467   5.206  25.280  0.00  0.00    -0.212 OA
ATOM      2  C   UNL     1      -1.599   4.391  25.284  0.00  0.00    +0.249 C 
ENDBRANCH   3   2
ENDBRANCH   6   5
ENDBRANCH   7   6
BRANCH   7  11
ATOM     11  N   UNL     1      -4.387   2.017  25.155  0.00  0.00    -0.215 NA
BRANCH  11  12
ATOM     12  C   UNL     1      -4.817   1.366  24.888  0.00  0.00    +0.089 C 
BRANCH  12  13
ATOM     13  C   UNL     1      -4.454   0.628  24.827  0.00  0.00    +0.017 C 
ATOM     14  C   UNL     1      -4.307  -0.062  24.399  0.00  0.00    +0.001 C 
ATOM     15  C   UNL     1      -3.973   0.039  25.147  0.00  0.00    +0.001 C 
ENDBRANCH  12  13
ENDBRANCH  11  12
ENDBRANCH   7  11
TORSDOF 6
ENDMDL
MODEL 2
REMARK VINA RESULT:      -7.4      1.595      3.580
REMARK  Name = 
REMARK  6 active torsions:
REMARK  status: ('A' for Active; 'I' for Inactive)
REMARK    1  A    between atoms: C_2  and  C_3
REMARK    2  A    between atoms: C_5  and  C_6
REMARK    3  A    between atoms: C_6  and  C_7
REMARK    4  A    between atoms: C_7  and  N_11
REMARK    5  A    between atoms: N_11  and  C_12
REMARK    6  A    between atoms: C_12  and  C_13
REMARK                            x       y       z     vdW  Elec       q    Type
REMARK                         _______ _______ _______ _____ _____    ______ ____
ROOT
ATOM      7  C   UNL     1      -4.622   2.594  25.095  0.00  0.00    +0.119 C 
ATOM      8  C   UNL     1      -4.901   3.109  25.676  0.00  0.00    +0.161 C 
ATOM      9  O   UNL     1      -5.677   2.900  25.489  0.00  0.00    -0.351 OA
ATOM     10  C   UNL     1      -5.397   2.385  24.907  0.00  0.00    +0.161 C 
ENDROOT
BRANCH   7   6
ATOM      6  C   UNL     1      -4.343   2.080  24.513  0.00  0.00    +0.070 C 
BRANCH   6   5
ATOM      3  C   UNL     1      -4.059  -0.036  24.532  0.00  0.00    +0.187 A 
ATOM      4  C   UNL     1      -3.977   0.699  24.165  0.00  0.00    +0.056 A 
ATOM      5  C   UNL     1      -4.306   1.269  24.663  0.00  0.00    +0.102 A 
ATOM     16  N   UNL     1      -4.590   0.887  25.336  0.00  0.00    -0.082 NA
ATOM     17  O   UNL     1      -4.437   0.081  25.255  0.00  0.00    -0.355 OA
BRANCH   3   2
ATOM      1  O   UNL     1      -4.360  -1.332  24.013  0.00  0.00    -0.212 OA
ATOM      2  C   UNL     1      -3.806  -0.759  24.227  0.00  0.00    +0.249 C 
ENDBRANCH   3   2
ENDBRANCH   6   5
ENDBRANCH   7   6
BRANCH   7  11
ATOM     11  N   UNL     1      -3.846   2.803  25.282  0.00  0.00    -0.215 NA
BRANCH  11  12
ATOM     12  C   UNL     1      -3.624   3.598  25.296  0.00  0.00    +0.089 C 
BRANCH  12  13
ATOM     13  C   UNL     1      -2.845   3.806  25.467  0.00  0.00    +0.017 C 
ATOM     14  C   UNL     1      -2.227   4.352  25.433  0.00  0.00    +0.001 C 
ATOM     15  C   UNL     1      -2.112   3.621  25.797  0.00  0.00    +0.001 C 
ENDBRANCH  12  13
ENDBRANCH  11  12
ENDBRANCH   7  11
TORSDOF 6
ENDMDL
MODEL 3
REMARK VINA RESULT:      -7.3      2.515      4.367
REMARK  Name = 
REMARK  6 active torsions:
REMARK  status: ('A' for Active; 'I' for Inactive)
REMARK    1  A    between atoms: C_2  and  C_3
REMARK    2  A    between atoms: C_5  and  C_6
REMARK    3  A    between atoms: C_6  and  C_7
REMARK    4  A    between atoms: C_7  and  N_11
REMARK    5  A    between atoms: N_11  and  C_12
REMARK    6  A    between atoms: C_12  and  C_13
REMARK                            x       y       z     vdW  Elec       q    Type
REMARK                         _______ _______ _______ _____ _____    ______ ____
ROOT
ATOM      7  C   UNL     1      -3.727   0.980  24.352  0.00  0.00    +0.119 C 
ATOM      8  C   UNL     1      -3.282   1.665  24.469  0.00  0.00    +0.161 C 
ATOM      9  O   UNL     1      -2.710   1.383  23.945  0.00  0.00    -0.351 OA
ATOM     10  C   UNL     1      -3.155   0.698  23.829  0.00  0.00    +0.161 C 
ENDROOT
BRANCH   7   6
ATOM      6  C   UNL     1      -4.171   0.295  24.236  0.00  0.00    +0.070 C 
BRANCH   6   5
ATOM      3  C   UNL     1      -3.635  -1.710  24.733  0.00  0.00    +0.187 A 
ATOM      4  C   UNL     1      -3.923  -1.153  24.197  0.00  0.00    +0.056 A 
ATOM      5  C   UNL     1      -3.925  -0.418  24.571  0.00  0.00    +0.102 A 
ATOM     16  N   UNL     1      -3.639  -0.520  25.337  0.00  0.00    -0.082 NA
ATOM     17  O   UNL     1      -3.459  -1.319  25.437  0.00  0.00    -0.355 OA
BRANCH   3   2
ATOM      1  O   UNL     1      -3.503  -3.047  25.220  0.00  0.00    -0.212 OA
ATOM      2  C   UNL     1      -3.539  -2.517  24.588  0.00  0.00    +0.249 C 
ENDBRANCH   3   2
ENDBRANCH   6   5
ENDBRANCH   7   6
BRANCH   7  11
ATOM     11  N   UNL     1      -4.299   1.263  24.875  0.00  0.00    -0.215 NA
BRANCH  11  12
ATOM     12  C   UNL     1      -4.670   1.985  24.730  0.00  0.00    +0.089 C 
BRANCH  12  13
ATOM     13  C   UNL     1      -5.247   2.263  25.249  0.00  0.00    +0.017 C 
ATOM     14  C   UNL     1      -5.578   2.882  25.685  0.00  0.00    +0.001 C 
ATOM     15  C   UNL     1      -5.916   2.129  25.713  0.00  0.00    +0.001 C 
ENDBRANCH  12  13
ENDBRANCH  11  12
ENDBRANCH   7  11
TORSDOF 6
ENDMDL
MODEL 4
REMARK VINA RESULT:      -7.3      2.211      3.318
REMARK  Name = 
REMARK  6 active torsions:
REMARK  status: ('A' for Active; 'I' for Inactive)
REMARK    1  A    between atoms: C_2  and  C_3
REMARK    2  A    between atoms: C_5  and  C_6
REMARK    3  A    between atoms: C_6  and  C_7
REMARK    4  A    between atoms: C_7  and  N_11
REMARK    5  A    between atoms: N_11  and  C_12
REMARK    6  A    between atoms: C_12  and  C_13
REMARK                            x       y       z     vdW  Elec       q    Type
REMARK                         _______ _______ _______ _____ _____    ______ ____
ROOT
ATOM      7  C   UNL     1      -3.268   0.259  24.660  0.00  0.00    +0.119 C 
ATOM      8  C   UNL     1      -2.647  -0.132  25.038  0.00  0.00    +0.161 C 
ATOM      9  O   UNL     1      -2.249   0.585  25.123  0.00  0.00    -0.351 OA
ATOM     10  C   UNL     1      -2.869   0.976  24.745  0.00  0.00    +0.161 C 
ENDROOT
BRANCH   7   6
ATOM      6  C   UNL     1      -3.889   0.649  24.282  0.00  0.00    +0.070 C 
BRANCH   6   5
ATOM      3  C   UNL     1      -5.189   2.087  25.176  0.00  0.00    +0.187 A 
ATOM      4  C   UNL     1      -4.622   1.879  24.614  0.00  0.00    +0.056 A 
ATOM      5  C   UNL     1      -4.433   1.084  24.724  0.00  0.00    +0.102 A 
ATOM     16  N   UNL     1      -4.883   0.800  25.354  0.00  0.00    -0.082 NA
ATOM     17  O   UNL     1      -5.350   1.420  25.633  0.00  0.00    -0.355 OA
BRANCH   3   2
ATOM      1  O   UNL     1      -5.583   3.176  26.012  0.00  0.00    -0.212 OA
ATOM      2  C   UNL     1      -5.533   2.831  25.264  0.00  0.00    +0.249 C 
ENDBRANCH   3   2
ENDBRANCH   6   5
ENDBRANCH   7   6
BRANCH   7  11
ATOM     11  N   UNL     1      -3.667  -0.459  24.574  0.00  0.00    -0.215 NA
BRANCH  11  12
ATOM     12  C   UNL     1      -3.264  -1.126  24.305  0.00  0.00    +0.089 C 
BRANCH  12  13
ATOM     13  C   UNL     1      -3.667  -1.837  24.198  0.00  0.00    +0.017 C 
ATOM     14  C   UNL     1      -3.749  -2.643  24.356  0.00  0.00    +0.001 C 
ATOM     15  C   UNL     1      -4.284  -2.264  23.856  0.00  0.00    +0.001 C 
ENDBRANCH  12  13
ENDBRANCH  11  12
ENDBRANCH   7  11
TORSDOF 6
ENDMDL
MODEL 5
REMARK VINA RESULT:      -7.1      2.531      2.948
REMARK  Name = 
REMARK  6 active torsions:
REMARK  status: ('A' for Active; 'I' for Inactive)
REMARK    1  A    between atoms: C_2  and  C_3
REMARK    2  A    between atoms: C_5  and  C_6
REMARK    3  A    between atoms: C_6  and  C_7
REMARK    4  A    between atoms: C_7  and  N_11
REMARK    5  A    between atoms: N_11  and  C_12
REMARK    6  A    between atoms: C_12  and  C_13
REMARK                            x       y       z     vdW  Elec       q    Type
REMARK                         _______ _______ _______ _____ _____    ______ ____
ROOT
ATOM      7  C   UNL     1      -3.588   0.407  24.558  0.00  0.00    +0.119 C 
ATOM      8  C   UNL     1      -4.266   0.319  25.021  0.00  0.00    +0.161 C 
ATOM      9  O   UNL     1      -4.361   1.138  25.039  0.00  0.00    -0.351 OA
ATOM     10  C   UNL     1      -3.684   1.227  24.576  0.00  0.00    +0.161 C 
ENDROOT
BRANCH   7   6
ATOM      6  C   UNL     1      -2.911   0.496  24.095  0.00  0.00    +0.070 C 
BRANCH   6   5
ATOM      3  C   UNL     1      -0.969   1.210  24.620  0.00  0.00    +0.187 A 
ATOM      4  C   UNL     1      -1.564   1.083  24.062  0.00  0.00    +0.056 A 
ATOM      5  C   UNL     1      -2.199   0.722  24.445  0.00  0.00    +0.102 A 
ATOM     16  N   UNL     1      -1.997   0.627  25.239  0.00  0.00    -0.082 NA
ATOM     17  O   UNL     1      -1.237   0.928  25.347  0.00  0.00    -0.355 OA
BRANCH   3   2
ATOM      1  O   UNL     1       0.168   1.938  25.086  0.00  0.00    -0.212 OA
ATOM      2  C   UNL     1      -0.236   1.559  24.474  0.00  0.00    +0.249 C 
ENDBRANCH   3   2
ENDBRANCH   6   5
ENDBRANCH   7   6
BRANCH   7  11
ATOM     11  N   UNL     1      -3.493  -0.412  24.540  0.00  0.00    -0.215 NA
BRANCH  11  12
ATOM     12  C   UNL     1      -4.106  -0.893  24.269  0.00  0.00    +0.089 C 
BRANCH  12  13
ATOM     13  C   UNL     1      -3.997  -1.708  24.213  0.00  0.00    +0.017 C 
ATOM     14  C   UNL     1      -4.147  -2.425  23.831  0.00  0.00    +0.001 C 
ATOM     15  C   UNL     1      -3.658  -2.405  24.495  0.00  0.00    +0.001 C 
ENDBRANCH  12  13
ENDBRANCH  11  12
ENDBRANCH   7  11
TORSDOF 6
ENDMDL
MODEL 6
REMARK VINA RESULT:      -7.0      3.566      4.281
REMARK  Name = 
REMARK  6 active torsions:
REMARK  status: ('A' for Active; 'I' for Inactive)
REMARK    1  A    between atoms: C_2  and  C_3
REMARK    2  A    between atoms: C_5  and  C_6
REMARK    3  A    between atoms: C_6  and  C_7
REMARK    4  A    between atoms: C_7  and  N_11
REMARK    5  A    between atoms: N_11  and  C_12
REMARK    6  A    between atoms: C_12  and  C_13
REMARK                            x       y       z     vdW  Elec       q    Type
REMARK                         _______ _______ _______ _____ _____    ______ ____
ROOT
ATOM      7  C   UNL     1      -1.549  -1.201  25.071  0.00  0.00    +0.119 C 
ATOM      8  C   UNL     1      -1.472  -1.923  24.678  0.00  0.00    +0.161 C 
ATOM      9  O   UNL     1      -0.750  -2.052  25.058  0.00  0.00    -0.351 OA
ATOM     10  C   UNL     1      -0.828  -1.330  25.450  0.00  0.00    +0.161 C 
ENDROOT
BRANCH   7   6
ATOM      6  C   UNL     1      -1.626  -0.480  25.463  0.00  0.00    +0.070 C 
BRANCH   6   5
ATOM      3  C   UNL     1      -0.569   1.357  25.210  0.00  0.00    +0.187 A 
ATOM      4  C   UNL     1      -1.039   0.853  25.663  0.00  0.00    +0.056 A 
ATOM      5  C   UNL     1      -1.180   0.171  25.221  0.00  0.00    +0.102 A 
ATOM     16  N   UNL     1      -0.797   0.253  24.496  0.00  0.00    -0.082 NA
ATOM     17  O   UNL     1      -0.419   0.987  24.489  0.00  0.00    -0.355 OA
BRANCH   3   2
ATOM      1  O   UNL     1       0.515   2.247  25.485  0.00  0.00    -0.212 OA
ATOM      2  C   UNL     1      -0.296   2.102  25.439  0.00  0.00    +0.249 C 
ENDBRANCH   3   2
ENDBRANCH   6   5
ENDBRANCH   7   6
BRANCH   7  11
ATOM     11  N   UNL     1      -2.270  -1.072  24.691  0.00  0.00    -0.215 NA
BRANCH  11  12
ATOM     12  C   UNL     1      -2.872  -1.634  24.746  0.00  0.00    +0.089 C 
BRANCH  12  13
ATOM     13  C   UNL     1      -3.595  -1.501  24.375  0.00  0.00    +0.017 C 
ATOM     14  C   UNL     1      -4.219  -1.772  23.906  0.00  0.00    +0.001 C 
ATOM     15  C   UNL     1      -4.227  -1.001  24.199  0.00  0.00    +0.001 C 
ENDBRANCH  12  13
ENDBRANCH  11  12
ENDBRANCH   7  11
TORSDOF 6
ENDMDL
MODEL 7
REMARK VINA RESULT:      -7.0      1.858      3.822
REMARK  Name = 
REMARK  6 active torsions:
REMARK  status: ('A' for Active; 'I' for Inactive)
REMARK    1  A    between atoms: C_2  and  C_3
REMARK    2  A    between atoms: C_5  and  C_6
REMARK    3  A    between atoms: C_6  and  C_7
REMARK    4  A    between atoms: C_7  and  N_11
REMARK    5  A    between atoms: N_11  and  C_12
REMARK    6  A    between atoms: C_12  and  C_13
REMARK                            x       y       z     vdW  Elec       q    Type
REMARK                         _______ _______ _______ _____ _____    ______ ____
ROOT
ATOM      7  C   UNL     1      -2.656   2.347  23.810  0.00  0.00    +0.119 C 
ATOM      8  C   UNL     1      -1.871   2.093  23.823  0.00  0.00    +0.161 C 
ATOM      9  O   UNL     1      -2.031   1.566  23.209  0.00  0.00    -0.351 OA
ATOM     10  C   UNL     1      -2.816   1.820  23.196  0.00  0.00    +0.161 C 
ENDROOT
BRANCH   7   6
ATOM      6  C   UNL     1      -3.441   2.601  23.798  0.00  0.00    +0.070 C 
BRANCH   6   5
ATOM      3  C   UNL     1      -5.149   1.851  24.835  0.00  0.00    +0.187 A 
ATOM      4  C   UNL     1      -4.749   2.464  24.455  0.00  0.00    +0.056 A 
ATOM      5  C   UNL     1      -4.018   2.173  24.203  0.00  0.00    +0.102 A 
ATOM     16  N   UNL     1      -3.968   1.382  24.427  0.00  0.00    -0.082 NA
ATOM     17  O   UNL     1      -4.667   1.182  24.818  0.00  0.00    -0.355 OA
BRANCH   3   2
ATOM      1  O   UNL     1      -5.979   2.040  25.983  0.00  0.00    -0.212 OA
ATOM      2  C   UNL     1      -5.900   1.900  25.173  0.00  0.00    +0.249 C 
ENDBRANCH   3   2
ENDBRANCH   6   5
ENDBRANCH   7   6
BRANCH   7  11
ATOM     11  N   UNL     1      -2.495   2.874  24.425  0.00  0.00    -0.215 NA
BRANCH  11  12
ATOM     12  C   UNL     1      -1.822   3.349  24.395  0.00  0.00    +0.089 C 
BRANCH  12  13
ATOM     13  C   UNL     1      -1.706   3.936  24.962  0.00  0.00    +0.017 C 
ATOM     14  C   UNL     1      -1.415   4.679  25.173  0.00  0.00    +0.001 C 
ATOM     15  C   UNL     1      -1.796   4.211  25.735  0.00  0.00    +0.001 C 
ENDBRANCH  12  13
ENDBRANCH  11  12
ENDBRANCH   7  11
TORSDOF 6
ENDMDL
