MODEL 1
REMARK VINA RESULT:     -10.9      0.000      0.000
REMARK  Name = 
REMARK  6 active torsions:
REMARK  status: ('A' for Active; 'I' for Inactive)
REMARK    1  A    between atoms: N_2  and  C_4
REMARK    2  A    between atoms: C_8  and  O_9
REMARK    3  A    between atoms: O_9  and  C_10
REMARK    4  A    between atoms: N_14  and  C_15
REMARK    5  A    between atoms: C_19  and  N_23
REMARK    6  A    between atoms: N_26  and  C_27
REMARK                            x       y       z     vdW  Elec       q    Type
REMARK                         _______ _______ _______ _____ _____    ______ ____
ROOT
ATOM     15  C   UNL     1      -0.839   1.130  24.268  0.00  0.00    +0.170 C 
ATOM     16  C   UNL     1      -1.264   0.942  23.587  0.00  0.00    +0.169 C 
ATOM     17  O   UNL     1      -1.784   0.329  23.772  0.00  0.00    -0.350 OA
ATOM     18  C   UNL     1      -1.680   0.138  24.567  0.00  0.00    +0.167 C 
ATOM     19  C   UNL     1      -1.936  -0.359  25.174  0.00  0.00    +0.156 C 
ATOM     20  C   UNL     1      -1.511  -0.171  25.855  0.00  0.00    +0.166 C 
ATOM     21  O   UNL     1      -0.992   0.442  25.670  0.00  0.00    -0.350 OA
ATOM     22  C   UNL     1      -1.096   0.633  24.874  0.00  0.00    +0.169 C 
ENDROOT
BRANCH  15  14
ATOM     10  C   UNL     1      -0.378   2.526  24.258  0.00  0.00    +0.343 A 
ATOM     11  N   UNL     1       0.350   2.901  24.361  0.00  0.00    -0.071 NA
ATOM     12  N   UNL     1       0.919   2.319  24.499  0.00  0.00    -0.020 NA
ATOM     13  N   UNL     1       0.543   1.585  24.481  0.00  0.00    -0.040 NA
ATOM     14  N   UNL     1      -0.259   1.713  24.332  0.00  0.00    -0.180 N 
BRANCH  10   9
ATOM      9  O   UNL     1      -1.098   2.899  24.107  0.00  0.00    -0.421 OA
BRANCH   9   8
ATOM      4  C   UNL     1      -2.206   4.225  25.440  0.00  0.00    +0.051 A 
ATOM      5  C   UNL     1      -1.745   4.908  25.400  0.00  0.00    +0.015 A 
ATOM      6  C   UNL     1      -1.068   4.921  24.928  0.00  0.00    +0.004 A 
ATOM      7  C   UNL     1      -0.853   4.251  24.498  0.00  0.00    +0.038 A 
ATOM      8  C   UNL     1      -1.314   3.569  24.538  0.00  0.00    +0.150 A 
ATOM     33  C   UNL     1      -1.990   3.556  25.009  0.00  0.00    +0.052 A 
BRANCH   4   2
ATOM      1  C   UNL     1      -3.630   4.194  25.560  0.00  0.00    +0.112 C 
ATOM      2  N   UNL     1      -2.884   4.212  25.912  0.00  0.00    -0.304 N 
ATOM      3  C   UNL     1      -2.814   4.216  26.733  0.00  0.00    +0.112 C 
ENDBRANCH   4   2
ENDBRANCH   9   8
ENDBRANCH  10   9
ENDBRANCH  15  14
BRANCH  19  23
ATOM     23  N   UNL     1      -2.517  -0.942  25.110  0.00  0.00    -0.184 NA
ATOM     24  C   UNL     1      -2.909  -1.210  25.785  0.00  0.00    +0.344 C 
ATOM     25  O   UNL     1      -2.721  -0.895  26.523  0.00  0.00    -0.249 OA
ATOM     26  N   UNL     1      -3.489  -1.792  25.721  0.00  0.00    -0.161 NA
BRANCH  26  27
ATOM     27  C   UNL     1      -3.677  -2.108  24.982  0.00  0.00    +0.075 A 
ATOM     28  C   UNL     1      -3.329  -2.813  24.734  0.00  0.00    +0.017 A 
ATOM     29  C   UNL     1      -3.517  -3.128  23.995  0.00  0.00    +0.001 A 
ATOM     30  C   UNL     1      -4.054  -2.739  23.504  0.00  0.00    +0.000 A 
ATOM     31  C   UNL     1      -4.402  -2.033  23.753  0.00  0.00    +0.001 A 
ATOM     32  C   UNL     1      -4.214  -1.718  24.491  0.00  0.00    +0.017 A 
ENDBRANCH  26  27
ENDBRANCH  19  23
TORSDOF 6
ENDMDL
MODEL 2
REMARK VINA RESULT:      -9.7      1.697      2.542
REMARK  Name = 
REMARK  6 active torsions:
REMARK  status: ('A' for Active; 'I' for Inactive)
REMARK    1  A    between atoms: N_2  and  C_4
REMARK    2  A    between atoms: C_8  and  O_9
REMARK    3  A    between atoms: O_9  and  C_10
REMARK    4  A    between atoms: N_14  and  C_15
REMARK    5  A    between atoms: C_19  and  N_23
REMARK    6  A    between atoms: N_26  and  C_27
REMARK                            x       y       z     vdW  Elec       q    Type
REMARK                         _______ _______ _______ _____ _____    ______ ____
ROOT
ATOM     15  C   UNL     1      -3.547   1.732  23.898  0.00  0.00    +0.170 C 
ATOM     16  C   UNL     1      -2.873   1.386  23.572  0.00  0.00    +0.169 C 
ATOM     17  O   UNL     1      -2.849   0.598  23.814  0.00  0.00    -0.350 OA
ATOM     18  C   UNL     1      -3.507   0.457  24.290  0.00  0.00    +0.167 C 
ATOM     19  C   UNL     1      -3.901  -0.116  24.734  0.00  0.00    +0.156 C 
ATOM     20  C   UNL     1      -4.574   0.230  25.060  0.00  0.00    +0.166 C 
ATOM     21  O   UNL     1      -4.598   1.018  24.818  0.00  0.00    -0.350 OA
ATOM     22  C   UNL     1      -3.939   1.159  24.342  0.00  0.00    +0.169 C 
ENDROOT
BRANCH  15  14
ATOM     10  C   UNL     1      -3.589   3.149  24.287  0.00  0.00    +0.343 A 
ATOM     11  N   UNL     1      -3.947   3.828  23.982  0.00  0.00    -0.071 NA
ATOM     12  N   UNL     1      -4.365   3.613  23.304  0.00  0.00    -0.020 NA
ATOM     13  N   UNL     1      -4.266   2.802  23.190  0.00  0.00    -0.040 NA
ATOM     14  N   UNL     1      -3.787   2.516  23.798  0.00  0.00    -0.180 N 
BRANCH  10   9
ATOM      9  O   UNL     1      -3.118   3.112  24.963  0.00  0.00    -0.421 OA
BRANCH   9   8
ATOM      4  C   UNL     1      -1.529   4.592  25.177  0.00  0.00    +0.051 A 
ATOM      5  C   UNL     1      -1.873   5.115  25.715  0.00  0.00    +0.015 A 
ATOM      6  C   UNL     1      -2.632   4.969  26.003  0.00  0.00    +0.004 A 
ATOM      7  C   UNL     1      -3.047   4.301  25.752  0.00  0.00    +0.038 A 
ATOM      8  C   UNL     1      -2.703   3.780  25.214  0.00  0.00    +0.150 A 
ATOM     33  C   UNL     1      -1.944   3.925  24.926  0.00  0.00    +0.052 A 
BRANCH   4   2
ATOM      1  C   UNL     1      -0.578   5.483  24.589  0.00  0.00    +0.112 C 
ATOM      2  N   UNL     1      -0.769   4.738  24.888  0.00  0.00    -0.304 N 
ATOM      3  C   UNL     1      -0.202   4.139  24.900  0.00  0.00    +0.112 C 
ENDBRANCH   4   2
ENDBRANCH   9   8
ENDBRANCH  10   9
ENDBRANCH  15  14
BRANCH  19  23
ATOM     23  N   UNL     1      -3.661  -0.899  24.835  0.00  0.00    -0.184 NA
ATOM     24  C   UNL     1      -3.698  -1.250  25.581  0.00  0.00    +0.344 C 
ATOM     25  O   UNL     1      -3.975  -0.818  26.226  0.00  0.00    -0.249 OA
ATOM     26  N   UNL     1      -3.459  -2.033  25.681  0.00  0.00    -0.161 NA
BRANCH  26  27
ATOM     27  C   UNL     1      -3.182  -2.465  25.036  0.00  0.00    +0.075 A 
ATOM     28  C   UNL     1      -2.373  -2.500  24.878  0.00  0.00    +0.017 A 
ATOM     29  C   UNL     1      -2.096  -2.932  24.232  0.00  0.00    +0.001 A 
ATOM     30  C   UNL     1      -2.628  -3.331  23.743  0.00  0.00    +0.000 A 
ATOM     31  C   UNL     1      -3.437  -3.297  23.901  0.00  0.00    +0.001 A 
ATOM     32  C   UNL     1      -3.713  -2.864  24.547  0.00  0.00    +0.017 A 
ENDBRANCH  26  27
ENDBRANCH  19  23
TORSDOF 6
ENDMDL
MODEL 3
REMARK VINA RESULT:      -9.7      2.770      4.712
REMARK  Name = 
REMARK  6 active torsions:
REMARK  status: ('A' for Active; 'I' for Inactive)
REMARK    1  A    between atoms: N_2  and  C_4
REMARK    2  A    between atoms: C_8  and  O_9
REMARK    3  A    between atoms: O_9  and  C_10
REMARK    4  A    between atoms: N_14  and  C_15
REMARK    5  A    between atoms: C_19  and  N_23
REMARK    6  A    between atoms: N_26  and  C_27
REMARK                            x       y       z     vdW  Elec       q    Type
REMARK                         _______ _______ _______ _____ _____    ______ ____
ROOT
ATOM     15  C   UNL     1      -0.452   0.723  24.424  0.00  0.00    +0.170 C 
ATOM     16  C   UNL     1       0.076   1.330  24.610  0.00  0.00    +0.169 C 
ATOM     17  O   UNL     1       0.778   1.190  24.201  0.00  0.00    -0.350 OA
ATOM     18  C   UNL     1       0.686   0.498  23.763  0.00  0.00    +0.167 C 
ATOM     19  C   UNL     1       1.062  -0.017  23.240  0.00  0.00    +0.156 C 
ATOM     20  C   UNL     1       0.535  -0.624  23.054  0.00  0.00    +0.166 C 
ATOM     21  O   UNL     1      -0.168  -0.484  23.462  0.00  0.00    -0.350 OA
ATOM     22  C   UNL     1      -0.075   0.209  23.901  0.00  0.00    +0.169 C 
ENDROOT
BRANCH  15  14
ATOM     10  C   UNL     1      -1.847   1.162  24.566  0.00  0.00    +0.343 A 
ATOM     11  N   UNL     1      -2.513   0.873  24.959  0.00  0.00    -0.071 NA
ATOM     12  N   UNL     1      -2.298   0.177  25.347  0.00  0.00    -0.020 NA
ATOM     13  N   UNL     1      -1.499   0.036  25.194  0.00  0.00    -0.040 NA
ATOM     14  N   UNL     1      -1.221   0.645  24.711  0.00  0.00    -0.180 N 
BRANCH  10   9
ATOM      9  O   UNL     1      -1.814   1.848  24.109  0.00  0.00    -0.421 OA
BRANCH   9   8
ATOM      4  C   UNL     1      -2.811   3.623  24.894  0.00  0.00    +0.051 A 
ATOM      5  C   UNL     1      -3.498   3.633  24.436  0.00  0.00    +0.015 A 
ATOM      6  C   UNL     1      -3.623   3.048  23.868  0.00  0.00    +0.004 A 
ATOM      7  C   UNL     1      -3.061   2.453  23.760  0.00  0.00    +0.038 A 
ATOM      8  C   UNL     1      -2.376   2.443  24.218  0.00  0.00    +0.150 A 
ATOM     33  C   UNL     1      -2.251   3.028  24.785  0.00  0.00    +0.052 A 
BRANCH   4   2
ATOM      1  C   UNL     1      -2.075   4.754  25.365  0.00  0.00    +0.112 C 
ATOM      2  N   UNL     1      -2.686   4.209  25.463  0.00  0.00    -0.304 N 
ATOM      3  C   UNL     1      -3.173   4.249  26.127  0.00  0.00    +0.112 C 
ENDBRANCH   4   2
ENDBRANCH   9   8
ENDBRANCH  10   9
ENDBRANCH  15  14
BRANCH  19  23
ATOM     23  N   UNL     1       1.832   0.061  22.953  0.00  0.00    -0.184 NA
ATOM     24  C   UNL     1       1.991  -0.077  22.155  0.00  0.00    +0.344 C 
ATOM     25  O   UNL     1       1.380  -0.293  21.644  0.00  0.00    -0.249 OA
ATOM     26  N   UNL     1       2.760   0.001  21.867  0.00  0.00    -0.161 NA
BRANCH  26  27
ATOM     27  C   UNL     1       3.370   0.217  22.378  0.00  0.00    +0.075 A 
ATOM     28  C   UNL     1       3.599   1.008  22.437  0.00  0.00    +0.017 A 
ATOM     29  C   UNL     1       4.210   1.224  22.948  0.00  0.00    +0.001 A 
ATOM     30  C   UNL     1       4.593   0.650  23.400  0.00  0.00    +0.000 A 
ATOM     31  C   UNL     1       4.364  -0.142  23.340  0.00  0.00    +0.001 A 
ATOM     32  C   UNL     1       3.754  -0.357  22.830  0.00  0.00    +0.017 A 
ENDBRANCH  26  27
ENDBRANCH  19  23
TORSDOF 6
ENDMDL
MODEL 4
REMARK VINA RESULT:      -9.6      2.425      4.955
REMARK  Name = 
REMARK  6 active torsions:
REMARK  status: ('A' for Active; 'I' for Inactive)
REMARK    1  A    between atoms: N_2  and  C_4
REMARK    2  A    between atoms: C_8  and  O_9
REMARK    3  A    between atoms: O_9  and  C_10
REMARK    4  A    between atoms: N_14  and  C_15
REMARK    5  A    between atoms: C_19  and  N_23
REMARK    6  A    between atoms: N_26  and  C_27
REMARK                            x       y       z     vdW  Elec       q    Type
REMARK                         _______ _______ _______ _____ _____    ______ ____
ROOT
ATOM     15  C   UNL     1      -1.081   0.302  24.719  0.00  0.00    +0.170 C 
ATOM     16  C   UNL     1      -0.921   0.967  25.180  0.00  0.00    +0.169 C 
ATOM     17  O   UNL     1      -1.565   1.478  25.120  0.00  0.00    -0.350 OA
ATOM     18  C   UNL     1      -2.123   1.131  24.622  0.00  0.00    +0.167 C 
ATOM     19  C   UNL     1      -2.865   1.231  24.277  0.00  0.00    +0.156 C 
ATOM     20  C   UNL     1      -3.025   0.566  23.815  0.00  0.00    +0.166 C 
ATOM     21  O   UNL     1      -2.381   0.055  23.875  0.00  0.00    -0.350 OA
ATOM     22  C   UNL     1      -1.823   0.403  24.374  0.00  0.00    +0.169 C 
ENDROOT
BRANCH  15  14
ATOM     10  C   UNL     1       0.078  -0.384  24.129  0.00  0.00    +0.343 A 
ATOM     11  N   UNL     1       0.408  -1.137  24.200  0.00  0.00    -0.071 NA
ATOM     12  N   UNL     1      -0.050  -1.568  24.734  0.00  0.00    -0.020 NA
ATOM     13  N   UNL     1      -0.664  -1.081  24.993  0.00  0.00    -0.040 NA
ATOM     14  N   UNL     1      -0.584  -0.350  24.619  0.00  0.00    -0.180 N 
BRANCH  10   9
ATOM      9  O   UNL     1       0.361   0.226  23.652  0.00  0.00    -0.421 OA
BRANCH   9   8
ATOM      4  C   UNL     1       2.309   0.112  22.676  0.00  0.00    +0.051 A 
ATOM      5  C   UNL     1       2.104  -0.236  21.957  0.00  0.00    +0.015 A 
ATOM      6  C   UNL     1       1.317  -0.430  21.802  0.00  0.00    +0.004 A 
ATOM      7  C   UNL     1       0.736  -0.275  22.368  0.00  0.00    +0.038 A 
ATOM      8  C   UNL     1       0.942   0.072  23.087  0.00  0.00    +0.150 A 
ATOM     33  C   UNL     1       1.729   0.266  23.241  0.00  0.00    +0.052 A 
BRANCH   4   2
ATOM      1  C   UNL     1       3.625  -0.280  23.074  0.00  0.00    +0.112 C 
ATOM      2  N   UNL     1       3.097   0.306  22.831  0.00  0.00    -0.304 N 
ATOM      3  C   UNL     1       3.355   1.084  22.742  0.00  0.00    +0.112 C 
ENDBRANCH   4   2
ENDBRANCH   9   8
ENDBRANCH  10   9
ENDBRANCH  15  14
BRANCH  19  23
ATOM     23  N   UNL     1      -3.362   1.883  24.376  0.00  0.00    -0.184 NA
ATOM     24  C   UNL     1      -3.614   2.313  23.719  0.00  0.00    +0.344 C 
ATOM     25  O   UNL     1      -3.371   2.091  22.962  0.00  0.00    -0.249 OA
ATOM     26  N   UNL     1      -4.110   2.964  23.817  0.00  0.00    -0.161 NA
BRANCH  26  27
ATOM     27  C   UNL     1      -4.354   3.186  24.574  0.00  0.00    +0.075 A 
ATOM     28  C   UNL     1      -3.915   3.736  25.004  0.00  0.00    +0.017 A 
ATOM     29  C   UNL     1      -4.159   3.957  25.761  0.00  0.00    +0.001 A 
ATOM     30  C   UNL     1      -4.842   3.630  26.088  0.00  0.00    +0.000 A 
ATOM     31  C   UNL     1      -5.281   3.079  25.656  0.00  0.00    +0.001 A 
ATOM     32  C   UNL     1      -5.037   2.858  24.901  0.00  0.00    +0.017 A 
ENDBRANCH  26  27
ENDBRANCH  19  23
TORSDOF 6
ENDMDL
MODEL 5
REMARK VINA RESULT:      -9.5      1.434      5.321
REMARK  Name = 
REMARK  6 active torsions:
REMARK  status: ('A' for Active; 'I' for Inactive)
REMARK    1  A    between atoms: N_2  and  C_4
REMARK    2  A    between atoms: C_8  and  O_9
REMARK    3  A    between atoms: O_9  and  C_10
REMARK    4  A    between atoms: N_14  and  C_15
REMARK    5  A    between atoms: C_19  and  N_23
REMARK    6  A    between atoms: N_26  and  C_27
REMARK                            x       y       z     vdW  Elec       q    Type
REMARK                         _______ _______ _______ _____ _____    ______ ____
ROOT
ATOM     15  C   UNL     1      -0.972   0.468  24.608  0.00  0.00    +0.170 C 
ATOM     16  C   UNL     1      -0.929   0.780  25.371  0.00  0.00    +0.169 C 
ATOM     17  O   UNL     1      -1.370   1.476  25.386  0.00  0.00    -0.350 OA
ATOM     18  C   UNL     1      -1.686   1.596  24.635  0.00  0.00    +0.167 C 
ATOM     19  C   UNL     1      -2.154   2.099  24.178  0.00  0.00    +0.156 C 
ATOM     20  C   UNL     1      -2.197   1.788  23.416  0.00  0.00    +0.166 C 
ATOM     21  O   UNL     1      -1.756   1.091  23.400  0.00  0.00    -0.350 OA
ATOM     22  C   UNL     1      -1.440   0.972  24.154  0.00  0.00    +0.169 C 
ENDROOT
BRANCH  15  14
ATOM     10  C   UNL     1      -0.836  -0.994  24.546  0.00  0.00    +0.343 A 
ATOM     11  N   UNL     1      -0.326  -1.518  24.163  0.00  0.00    -0.071 NA
ATOM     12  N   UNL     1       0.215  -1.072  23.727  0.00  0.00    -0.020 NA
ATOM     13  N   UNL     1       0.039  -0.274  23.841  0.00  0.00    -0.040 NA
ATOM     14  N   UNL     1      -0.611  -0.227  24.347  0.00  0.00    -0.180 N 
BRANCH  10   9
ATOM      9  O   UNL     1      -1.462  -1.203  25.042  0.00  0.00    -0.421 OA
BRANCH   9   8
ATOM      4  C   UNL     1      -3.263  -2.204  24.322  0.00  0.00    +0.051 A 
ATOM      5  C   UNL     1      -3.030  -2.995  24.364  0.00  0.00    +0.015 A 
ATOM      6  C   UNL     1      -2.274  -3.188  24.631  0.00  0.00    +0.004 A 
ATOM      7  C   UNL     1      -1.752  -2.591  24.857  0.00  0.00    +0.038 A 
ATOM      8  C   UNL     1      -1.985  -1.801  24.816  0.00  0.00    +0.150 A 
ATOM     33  C   UNL     1      -2.741  -1.607  24.548  0.00  0.00    +0.052 A 
BRANCH   4   2
ATOM      1  C   UNL     1      -4.364  -1.294  24.275  0.00  0.00    +0.112 C 
ATOM      2  N   UNL     1      -4.020  -2.010  24.054  0.00  0.00    -0.304 N 
ATOM      3  C   UNL     1      -4.430  -2.532  23.565  0.00  0.00    +0.112 C 
ENDBRANCH   4   2
ENDBRANCH   9   8
ENDBRANCH  10   9
ENDBRANCH  15  14
BRANCH  19  23
ATOM     23  N   UNL     1      -2.515   2.794  24.440  0.00  0.00    -0.184 NA
ATOM     24  C   UNL     1      -3.129   3.129  24.003  0.00  0.00    +0.344 C 
ATOM     25  O   UNL     1      -3.382   2.770  23.304  0.00  0.00    -0.249 OA
ATOM     26  N   UNL     1      -3.490   3.823  24.264  0.00  0.00    -0.161 NA
BRANCH  26  27
ATOM     27  C   UNL     1      -3.237   4.182  24.962  0.00  0.00    +0.075 A 
ATOM     28  C   UNL     1      -3.621   4.017  25.673  0.00  0.00    +0.017 A 
ATOM     29  C   UNL     1      -3.368   4.376  26.372  0.00  0.00    +0.001 A 
ATOM     30  C   UNL     1      -2.731   4.901  26.360  0.00  0.00    +0.000 A 
ATOM     31  C   UNL     1      -2.348   5.066  25.647  0.00  0.00    +0.001 A 
ATOM     32  C   UNL     1      -2.601   4.707  24.950  0.00  0.00    +0.017 A 
ENDBRANCH  26  27
ENDBRANCH  19  23
TORSDOF 6
ENDMDL
MODEL 6
REMARK VINA RESULT:      -9.3      1.866      3.013
REMARK  Name = 
REMARK  6 active torsions:
REMARK  status: ('A' for Active; 'I' for Inactive)
REMARK    1  A    between atoms: N_2  and  C_4
REMARK    2  A    between atoms: C_8  and  O_9
REMARK    3  A    between atoms: O_9  and  C_10
REMARK    4  A    between atoms: N_14  and  C_15
REMARK    5  A    between atoms: C_19  and  N_23
REMARK    6  A    between atoms: N_26  and  C_27
REMARK                            x       y       z     vdW  Elec       q    Type
REMARK                         _______ _______ _______ _____ _____    ______ ____
ROOT
ATOM     15  C   UNL     1      -1.181   2.841  25.310  0.00  0.00    +0.170 C 
ATOM     16  C   UNL     1      -0.975   2.401  25.976  0.00  0.00    +0.169 C 
ATOM     17  O   UNL     1      -0.842   1.623  25.737  0.00  0.00    -0.350 OA
ATOM     18  C   UNL     1      -0.966   1.582  24.923  0.00  0.00    +0.167 C 
ATOM     19  C   UNL     1      -0.962   1.076  24.271  0.00  0.00    +0.156 C 
ATOM     20  C   UNL     1      -1.169   1.515  23.605  0.00  0.00    +0.166 C 
ATOM     21  O   UNL     1      -1.301   2.293  23.844  0.00  0.00    -0.350 OA
ATOM     22  C   UNL     1      -1.176   2.334  24.659  0.00  0.00    +0.169 C 
ENDROOT
BRANCH  15  14
ATOM     10  C   UNL     1      -2.029   3.999  25.630  0.00  0.00    +0.343 A 
ATOM     11  N   UNL     1      -1.986   4.811  25.487  0.00  0.00    -0.071 NA
ATOM     12  N   UNL     1      -1.292   4.959  25.066  0.00  0.00    -0.020 NA
ATOM     13  N   UNL     1      -0.906   4.239  24.948  0.00  0.00    -0.040 NA
ATOM     14  N   UNL     1      -1.362   3.646  25.297  0.00  0.00    -0.180 N 
BRANCH  10   9
ATOM      9  O   UNL     1      -2.633   3.609  26.034  0.00  0.00    -0.421 OA
BRANCH   9   8
ATOM      4  C   UNL     1      -4.676   3.267  25.349  0.00  0.00    +0.051 A 
ATOM      5  C   UNL     1      -4.996   4.024  25.426  0.00  0.00    +0.015 A 
ATOM      6  C   UNL     1      -4.528   4.643  25.706  0.00  0.00    +0.004 A 
ATOM      7  C   UNL     1      -3.740   4.504  25.909  0.00  0.00    +0.038 A 
ATOM      8  C   UNL     1      -3.421   3.748  25.832  0.00  0.00    +0.150 A 
ATOM     33  C   UNL     1      -3.889   3.129  25.552  0.00  0.00    +0.052 A 
BRANCH   4   2
ATOM      1  C   UNL     1      -5.811   2.410  25.494  0.00  0.00    +0.112 C 
ATOM      2  N   UNL     1      -5.146   2.648  25.069  0.00  0.00    -0.304 N 
ATOM      3  C   UNL     1      -4.948   2.268  24.364  0.00  0.00    +0.112 C 
ENDBRANCH   4   2
ENDBRANCH   9   8
ENDBRANCH  10   9
ENDBRANCH  15  14
BRANCH  19  23
ATOM     23  N   UNL     1      -0.781   0.271  24.285  0.00  0.00    -0.184 NA
ATOM     24  C   UNL     1      -0.151  -0.019  23.838  0.00  0.00    +0.344 C 
ATOM     25  O   UNL     1       0.299   0.497  23.377  0.00  0.00    -0.249 OA
ATOM     26  N   UNL     1       0.029  -0.823  23.850  0.00  0.00    -0.161 NA
BRANCH  26  27
ATOM     27  C   UNL     1      -0.421  -1.339  24.310  0.00  0.00    +0.075 A 
ATOM     28  C   UNL     1      -1.105  -1.679  24.000  0.00  0.00    +0.017 A 
ATOM     29  C   UNL     1      -1.555  -2.195  24.460  0.00  0.00    +0.001 A 
ATOM     30  C   UNL     1      -1.322  -2.372  25.231  0.00  0.00    +0.000 A 
ATOM     31  C   UNL     1      -0.636  -2.031  25.542  0.00  0.00    +0.001 A 
ATOM     32  C   UNL     1      -0.187  -1.516  25.082  0.00  0.00    +0.017 A 
ENDBRANCH  26  27
ENDBRANCH  19  23
TORSDOF 6
ENDMDL
MODEL 7
REMARK VINA RESULT:      -9.2      1.897      5.622
REMARK  Name = 
REMARK  6 active torsions:
REMARK  status: ('A' for Active; 'I' for Inactive)
REMARK    1  A    between atoms: N_2  and  C_4
REMARK    2  A    between atoms: C_8  and  O_9
REMARK    3  A    between atoms: O_9  and  C_10
REMARK    4  A    between atoms: N_14  and  C_15
REMARK    5  A    between atoms: C_19  and  N_23
REMARK    6  A    between atoms: N_26  and  C_27
REMARK                            x       y       z     vdW  Elec       q    Type
REMARK                         _______ _______ _______ _____ _____    ______ ____
ROOT
ATOM     15  C   UNL     1      -4.072  -0.245  24.580  0.00  0.00    +0.170 C 
ATOM     16  C   UNL     1      -4.284   0.028  25.328  0.00  0.00    +0.169 C 
ATOM     17  O   UNL     1      -4.154   0.843  25.348  0.00  0.00    -0.350 OA
ATOM     18  C   UNL     1      -3.862   1.073  24.612  0.00  0.00    +0.167 C 
ATOM     19  C   UNL     1      -3.601   1.717  24.168  0.00  0.00    +0.156 C 
ATOM     20  C   UNL     1      -3.390   1.444  23.419  0.00  0.00    +0.166 C 
ATOM     21  O   UNL     1      -3.519   0.630  23.400  0.00  0.00    -0.350 OA
ATOM     22  C   UNL     1      -3.812   0.400  24.137  0.00  0.00    +0.169 C 
ENDROOT
BRANCH  15  14
ATOM     10  C   UNL     1      -3.626  -1.646  24.564  0.00  0.00    +0.343 A 
ATOM     11  N   UNL     1      -3.861  -2.329  24.164  0.00  0.00    -0.071 NA
ATOM     12  N   UNL     1      -4.494  -2.132  23.673  0.00  0.00    -0.020 NA
ATOM     13  N   UNL     1      -4.650  -1.327  23.769  0.00  0.00    -0.040 NA
ATOM     14  N   UNL     1      -4.114  -1.027  24.319  0.00  0.00    -0.180 N 
BRANCH  10   9
ATOM      9  O   UNL     1      -3.011  -1.591  25.111  0.00  0.00    -0.421 OA
BRANCH   9   8
ATOM      4  C   UNL     1      -0.904  -1.487  24.555  0.00  0.00    +0.051 A 
ATOM      5  C   UNL     1      -0.723  -2.288  24.473  0.00  0.00    +0.015 A 
ATOM      6  C   UNL     1      -1.306  -2.857  24.604  0.00  0.00    +0.004 A 
ATOM      7  C   UNL     1      -2.068  -2.625  24.817  0.00  0.00    +0.038 A 
ATOM      8  C   UNL     1      -2.248  -1.824  24.898  0.00  0.00    +0.150 A 
ATOM     33  C   UNL     1      -1.666  -1.255  24.767  0.00  0.00    +0.052 A 
BRANCH   4   2
ATOM      1  C   UNL     1      -0.250  -0.274  24.935  0.00  0.00    +0.112 C 
ATOM      2  N   UNL     1      -0.320  -0.917  24.423  0.00  0.00    -0.304 N 
ATOM      3  C   UNL     1       0.192  -0.992  23.781  0.00  0.00    +0.112 C 
ENDBRANCH   4   2
ENDBRANCH   9   8
ENDBRANCH  10   9
ENDBRANCH  15  14
BRANCH  19  23
ATOM     23  N   UNL     1      -3.560   2.499  24.428  0.00  0.00    -0.184 NA
ATOM     24  C   UNL     1      -3.859   3.108  23.957  0.00  0.00    +0.344 C 
ATOM     25  O   UNL     1      -4.200   2.934  23.227  0.00  0.00    -0.249 OA
ATOM     26  N   UNL     1      -3.818   3.889  24.217  0.00  0.00    -0.161 NA
BRANCH  26  27
ATOM     27  C   UNL     1      -3.477   4.063  24.948  0.00  0.00    +0.075 A 
ATOM     28  C   UNL     1      -3.945   4.085  25.627  0.00  0.00    +0.017 A 
ATOM     29  C   UNL     1      -3.604   4.259  26.358  0.00  0.00    +0.001 A 
ATOM     30  C   UNL     1      -2.795   4.411  26.411  0.00  0.00    +0.000 A 
ATOM     31  C   UNL     1      -2.327   4.389  25.731  0.00  0.00    +0.001 A 
ATOM     32  C   UNL     1      -2.668   4.215  25.001  0.00  0.00    +0.017 A 
ENDBRANCH  26  27
ENDBRANCH  19  23
TORSDOF 6
ENDMDL
