MODEL 1
REMARK VINA RESULT:     -10.2      0.000      0.000
REMARK  Name = 
REMARK  7 active torsions:
REMARK  status: ('A' for Active; 'I' for Inactive)
REMARK    1  A    between atoms: C_2  and  C_3
REMARK    2  A    between atoms: C_3  and  C_4
REMARK    3  A    between atoms: N_8  and  C_9
REMARK    4  A    between atoms: C_13  and  O_17
REMARK    5  A    between atoms: O_17  and  C_18
REMARK    6  A    between atoms: N_20  and  C_21
REMARK    7  A    between atoms: C_23  and  C_27
REMARK                            x       y       z     vdW  Elec       q    Type
REMARK                         _______ _______ _______ _____ _____    ______ ____
ROOT
ATOM      9  C   UNL     1      -0.786   3.045  25.504  0.00  0.00    +0.167 C 
ATOM     10  C   UNL     1      -0.624   2.750  26.257  0.00  0.00    +0.169 C 
ATOM     11  O   UNL     1      -0.471   1.943  26.187  0.00  0.00    -0.348 OA
ATOM     12  C   UNL     1      -0.539   1.738  25.392  0.00  0.00    +0.187 C 
ATOM     13  C   UNL     1      -0.487   1.113  24.856  0.00  0.00    +0.229 C 
ATOM     14  C   UNL     1      -0.649   1.408  24.103  0.00  0.00    +0.188 C 
ATOM     15  O   UNL     1      -0.802   2.215  24.173  0.00  0.00    -0.348 OA
ATOM     16  C   UNL     1      -0.734   2.420  24.969  0.00  0.00    +0.171 C 
ENDROOT
BRANCH   9   8
ATOM      4  C   UNL     1      -1.687   4.206  25.467  0.00  0.00    +0.165 A 
ATOM      5  N   UNL     1      -1.628   4.982  25.193  0.00  0.00    -0.112 NA
ATOM      6  N   UNL     1      -0.873   5.084  24.875  0.00  0.00    -0.023 NA
ATOM      7  N   UNL     1      -0.466   4.370  24.953  0.00  0.00    -0.043 NA
ATOM      8  N   UNL     1      -0.969   3.828  25.319  0.00  0.00    -0.214 N 
BRANCH   4   3
ATOM      3  C   UNL     1      -2.348   3.868  25.827  0.00  0.00    +0.093 C 
BRANCH   3   2
ATOM      1  C   UNL     1      -3.750   3.914  26.099  0.00  0.00    -0.004 C 
ATOM      2  C   UNL     1      -3.052   4.296  25.879  0.00  0.00    -0.018 C 
ENDBRANCH   3   2
ENDBRANCH   4   3
ENDBRANCH   9   8
BRANCH  13  17
ATOM     17  O   UNL     1      -0.304   0.330  25.041  0.00  0.00    -0.432 OA
BRANCH  17  18
ATOM     18  C   UNL     1      -0.768  -0.284  24.744  0.00  0.00    +0.425 C 
ATOM     19  O   UNL     1      -0.715  -0.492  23.947  0.00  0.00    -0.224 OA
ATOM     20  N   UNL     1      -1.285  -0.689  25.242  0.00  0.00    -0.142 NA
BRANCH  20  21
ATOM     21  C   UNL     1      -1.750  -1.303  24.945  0.00  0.00    +0.077 A 
ATOM     22  C   UNL     1      -2.539  -1.167  24.752  0.00  0.00    +0.027 A 
ATOM     23  C   UNL     1      -3.003  -1.780  24.455  0.00  0.00    +0.070 A 
ATOM     24  C   UNL     1      -2.677  -2.531  24.351  0.00  0.00    +0.010 A 
ATOM     25  C   UNL     1      -1.887  -2.667  24.544  0.00  0.00    +0.002 A 
ATOM     26  C   UNL     1      -1.423  -2.053  24.841  0.00  0.00    +0.017 A 
BRANCH  23  27
ATOM     27  C   UNL     1      -3.794  -1.643  24.262  0.00  0.00    +0.100 C 
ATOM     28  N   UNL     1      -4.584  -1.507  24.069  0.00  0.00    -0.191 NA
ENDBRANCH  23  27
ENDBRANCH  20  21
ENDBRANCH  17  18
ENDBRANCH  13  17
TORSDOF 7
ENDMDL
MODEL 2
REMARK VINA RESULT:     -10.1      1.675      2.520
REMARK  Name = 
REMARK  7 active torsions:
REMARK  status: ('A' for Active; 'I' for Inactive)
REMARK    1  A    between atoms: C_2  and  C_3
REMARK    2  A    between atoms: C_3  and  C_4
REMARK    3  A    between atoms: N_8  and  C_9
REMARK    4  A    between atoms: C_13  and  O_17
REMARK    5  A    between atoms: O_17  and  C_18
REMARK    6  A    between atoms: N_20  and  C_21
REMARK    7  A    between atoms: C_23  and  C_27
REMARK                            x       y       z     vdW  Elec       q    Type
REMARK                         _______ _______ _______ _____ _____    ______ ____
ROOT
ATOM      9  C   UNL     1      -2.710   3.370  25.169  0.00  0.00    +0.167 C 
ATOM     10  C   UNL     1      -3.185   3.189  25.818  0.00  0.00    +0.169 C 
ATOM     11  O   UNL     1      -3.668   2.554  25.611  0.00  0.00    -0.348 OA
ATOM     12  C   UNL     1      -3.492   2.342  24.834  0.00  0.00    +0.187 C 
ATOM     13  C   UNL     1      -3.681   1.819  24.224  0.00  0.00    +0.229 C 
ATOM     14  C   UNL     1      -3.207   2.001  23.574  0.00  0.00    +0.188 C 
ATOM     15  O   UNL     1      -2.724   2.636  23.782  0.00  0.00    -0.348 OA
ATOM     16  C   UNL     1      -2.900   2.847  24.560  0.00  0.00    +0.171 C 
ENDROOT
BRANCH   9   8
ATOM      4  C   UNL     1      -1.365   3.917  25.398  0.00  0.00    +0.165 A 
ATOM      5  N   UNL     1      -0.998   4.643  25.256  0.00  0.00    -0.112 NA
ATOM      6  N   UNL     1      -1.551   5.144  24.904  0.00  0.00    -0.023 NA
ATOM      7  N   UNL     1      -2.259   4.728  24.828  0.00  0.00    -0.043 NA
ATOM      8  N   UNL     1      -2.144   3.970  25.134  0.00  0.00    -0.214 N 
BRANCH   4   3
ATOM      3  C   UNL     1      -1.014   3.256  25.744  0.00  0.00    +0.093 C 
BRANCH   3   2
ATOM      1  C   UNL     1       0.156   2.566  26.188  0.00  0.00    -0.004 C 
ATOM      2  C   UNL     1      -0.196   3.232  25.852  0.00  0.00    -0.018 C 
ENDBRANCH   3   2
ENDBRANCH   4   3
ENDBRANCH   9   8
BRANCH  13  17
ATOM     17  O   UNL     1      -4.247   1.219  24.259  0.00  0.00    -0.432 OA
BRANCH  17  18
ATOM     18  C   UNL     1      -4.035   0.441  24.084  0.00  0.00    +0.425 C 
ATOM     19  O   UNL     1      -3.706   0.259  23.350  0.00  0.00    -0.224 OA
ATOM     20  N   UNL     1      -4.152  -0.154  24.643  0.00  0.00    -0.142 NA
BRANCH  20  21
ATOM     21  C   UNL     1      -3.940  -0.932  24.468  0.00  0.00    +0.077 A 
ATOM     22  C   UNL     1      -3.192  -1.211  24.671  0.00  0.00    +0.027 A 
ATOM     23  C   UNL     1      -2.980  -1.988  24.496  0.00  0.00    +0.070 A 
ATOM     24  C   UNL     1      -3.517  -2.488  24.118  0.00  0.00    +0.010 A 
ATOM     25  C   UNL     1      -4.267  -2.208  23.914  0.00  0.00    +0.002 A 
ATOM     26  C   UNL     1      -4.478  -1.430  24.089  0.00  0.00    +0.017 A 
BRANCH  23  27
ATOM     27  C   UNL     1      -2.230  -2.268  24.700  0.00  0.00    +0.100 C 
ATOM     28  N   UNL     1      -1.482  -2.547  24.903  0.00  0.00    -0.191 NA
ENDBRANCH  23  27
ENDBRANCH  20  21
ENDBRANCH  17  18
ENDBRANCH  13  17
TORSDOF 7
ENDMDL
MODEL 3
REMARK VINA RESULT:     -10.1      1.107      5.076
REMARK  Name = 
REMARK  7 active torsions:
REMARK  status: ('A' for Active; 'I' for Inactive)
REMARK    1  A    between atoms: C_2  and  C_3
REMARK    2  A    between atoms: C_3  and  C_4
REMARK    3  A    between atoms: N_8  and  C_9
REMARK    4  A    between atoms: C_13  and  O_17
REMARK    5  A    between atoms: O_17  and  C_18
REMARK    6  A    between atoms: N_20  and  C_21
REMARK    7  A    between atoms: C_23  and  C_27
REMARK                            x       y       z     vdW  Elec       q    Type
REMARK                         _______ _______ _______ _____ _____    ______ ____
ROOT
ATOM      9  C   UNL     1      -1.375  -0.919  25.046  0.00  0.00    +0.167 C 
ATOM     10  C   UNL     1      -1.412  -0.676  25.834  0.00  0.00    +0.169 C 
ATOM     11  O   UNL     1      -1.036   0.056  25.892  0.00  0.00    -0.348 OA
ATOM     12  C   UNL     1      -0.767   0.265  25.142  0.00  0.00    +0.187 C 
ATOM     13  C   UNL     1      -0.368   0.846  24.713  0.00  0.00    +0.229 C 
ATOM     14  C   UNL     1      -0.330   0.603  23.925  0.00  0.00    +0.188 C 
ATOM     15  O   UNL     1      -0.706  -0.129  23.867  0.00  0.00    -0.348 OA
ATOM     16  C   UNL     1      -0.976  -0.338  24.619  0.00  0.00    +0.171 C 
ENDROOT
BRANCH   9   8
ATOM      4  C   UNL     1      -2.477  -1.772  24.580  0.00  0.00    +0.165 A 
ATOM      5  N   UNL     1      -2.536  -2.540  24.282  0.00  0.00    -0.112 NA
ATOM      6  N   UNL     1      -1.776  -2.863  24.259  0.00  0.00    -0.023 NA
ATOM      7  N   UNL     1      -1.249  -2.295  24.542  0.00  0.00    -0.043 NA
ATOM      8  N   UNL     1      -1.683  -1.621  24.741  0.00  0.00    -0.214 N 
BRANCH   4   3
ATOM      3  C   UNL     1      -3.104  -1.249  24.697  0.00  0.00    +0.093 C 
BRANCH   3   2
ATOM      1  C   UNL     1      -4.437  -0.865  24.354  0.00  0.00    -0.004 C 
ATOM      2  C   UNL     1      -3.863  -1.451  24.442  0.00  0.00    -0.018 C 
ENDBRANCH   3   2
ENDBRANCH   4   3
ENDBRANCH   9   8
BRANCH  13  17
ATOM     17  O   UNL     1      -0.060   1.548  25.018  0.00  0.00    -0.432 OA
BRANCH  17  18
ATOM     18  C   UNL     1      -0.470   2.258  24.917  0.00  0.00    +0.425 C 
ATOM     19  O   UNL     1      -0.778   2.453  24.177  0.00  0.00    -0.224 OA
ATOM     20  N   UNL     1      -0.571   2.770  25.555  0.00  0.00    -0.142 NA
BRANCH  20  21
ATOM     21  C   UNL     1      -0.980   3.479  25.453  0.00  0.00    +0.077 A 
ATOM     22  C   UNL     1      -1.763   3.544  25.705  0.00  0.00    +0.027 A 
ATOM     23  C   UNL     1      -2.172   4.252  25.604  0.00  0.00    +0.070 A 
ATOM     24  C   UNL     1      -1.799   4.898  25.250  0.00  0.00    +0.010 A 
ATOM     25  C   UNL     1      -1.016   4.834  24.998  0.00  0.00    +0.002 A 
ATOM     26  C   UNL     1      -0.607   4.124  25.100  0.00  0.00    +0.017 A 
BRANCH  23  27
ATOM     27  C   UNL     1      -2.955   4.316  25.857  0.00  0.00    +0.100 C 
ATOM     28  N   UNL     1      -3.738   4.380  26.109  0.00  0.00    -0.191 NA
ENDBRANCH  23  27
ENDBRANCH  20  21
ENDBRANCH  17  18
ENDBRANCH  13  17
TORSDOF 7
ENDMDL
MODEL 4
REMARK VINA RESULT:      -9.9      1.850      5.635
REMARK  Name = 
REMARK  7 active torsions:
REMARK  status: ('A' for Active; 'I' for Inactive)
REMARK    1  A    between atoms: C_2  and  C_3
REMARK    2  A    between atoms: C_3  and  C_4
REMARK    3  A    between atoms: N_8  and  C_9
REMARK    4  A    between atoms: C_13  and  O_17
REMARK    5  A    between atoms: O_17  and  C_18
REMARK    6  A    between atoms: N_20  and  C_21
REMARK    7  A    between atoms: C_23  and  C_27
REMARK                            x       y       z     vdW  Elec       q    Type
REMARK                         _______ _______ _______ _____ _____    ______ ____
ROOT
ATOM      9  C   UNL     1      -3.989  -0.707  24.599  0.00  0.00    +0.167 C 
ATOM     10  C   UNL     1      -4.179  -0.479  25.369  0.00  0.00    +0.169 C 
ATOM     11  O   UNL     1      -4.149   0.344  25.406  0.00  0.00    -0.348 OA
ATOM     12  C   UNL     1      -3.941   0.626  24.660  0.00  0.00    +0.187 C 
ATOM     13  C   UNL     1      -3.793   1.308  24.220  0.00  0.00    +0.229 C 
ATOM     14  C   UNL     1      -3.604   1.081  23.451  0.00  0.00    +0.188 C 
ATOM     15  O   UNL     1      -3.634   0.258  23.414  0.00  0.00    -0.348 OA
ATOM     16  C   UNL     1      -3.842  -0.024  24.161  0.00  0.00    +0.171 C 
ENDROOT
BRANCH   9   8
ATOM      4  C   UNL     1      -3.329  -2.009  24.428  0.00  0.00    +0.165 A 
ATOM      5  N   UNL     1      -3.525  -2.718  24.054  0.00  0.00    -0.112 NA
ATOM      6  N   UNL     1      -4.271  -2.629  23.713  0.00  0.00    -0.023 NA
ATOM      7  N   UNL     1      -4.536  -1.864  23.876  0.00  0.00    -0.043 NA
ATOM      8  N   UNL     1      -3.953  -1.481  24.317  0.00  0.00    -0.214 N 
BRANCH   4   3
ATOM      3  C   UNL     1      -2.630  -1.854  24.839  0.00  0.00    +0.093 C 
BRANCH   3   2
ATOM      1  C   UNL     1      -1.247  -2.146  25.048  0.00  0.00    -0.004 C 
ATOM      2  C   UNL     1      -1.993  -2.375  24.778  0.00  0.00    -0.018 C 
ENDBRANCH   3   2
ENDBRANCH   4   3
ENDBRANCH   9   8
BRANCH  13  17
ATOM     17  O   UNL     1      -3.830   2.083  24.502  0.00  0.00    -0.432 OA
BRANCH  17  18
ATOM     18  C   UNL     1      -3.143   2.538  24.548  0.00  0.00    +0.425 C 
ATOM     19  O   UNL     1      -2.681   2.656  23.874  0.00  0.00    -0.224 OA
ATOM     20  N   UNL     1      -2.918   2.876  25.266  0.00  0.00    -0.142 NA
BRANCH  20  21
ATOM     21  C   UNL     1      -2.231   3.331  25.311  0.00  0.00    +0.077 A 
ATOM     22  C   UNL     1      -1.521   2.984  25.544  0.00  0.00    +0.027 A 
ATOM     23  C   UNL     1      -0.835   3.439  25.589  0.00  0.00    +0.070 A 
ATOM     24  C   UNL     1      -0.859   4.242  25.401  0.00  0.00    +0.010 A 
ATOM     25  C   UNL     1      -1.570   4.590  25.168  0.00  0.00    +0.002 A 
ATOM     26  C   UNL     1      -2.256   4.134  25.123  0.00  0.00    +0.017 A 
BRANCH  23  27
ATOM     27  C   UNL     1      -0.123   3.092  25.822  0.00  0.00    +0.100 C 
ATOM     28  N   UNL     1       0.588   2.745  26.055  0.00  0.00    -0.191 NA
ENDBRANCH  23  27
ENDBRANCH  20  21
ENDBRANCH  17  18
ENDBRANCH  13  17
TORSDOF 7
ENDMDL
MODEL 5
REMARK VINA RESULT:      -9.0      1.850      4.545
REMARK  Name = 
REMARK  7 active torsions:
REMARK  status: ('A' for Active; 'I' for Inactive)
REMARK    1  A    between atoms: C_2  and  C_3
REMARK    2  A    between atoms: C_3  and  C_4
REMARK    3  A    between atoms: N_8  and  C_9
REMARK    4  A    between atoms: C_13  and  O_17
REMARK    5  A    between atoms: O_17  and  C_18
REMARK    6  A    between atoms: N_20  and  C_21
REMARK    7  A    between atoms: C_23  and  C_27
REMARK                            x       y       z     vdW  Elec       q    Type
REMARK                         _______ _______ _______ _____ _____    ______ ____
ROOT
ATOM      9  C   UNL     1      -0.384   1.118  24.358  0.00  0.00    +0.167 C 
ATOM     10  C   UNL     1      -0.236   1.340  25.139  0.00  0.00    +0.169 C 
ATOM     11  O   UNL     1      -0.722   1.982  25.317  0.00  0.00    -0.348 OA
ATOM     12  C   UNL     1      -1.170   2.157  24.648  0.00  0.00    +0.187 C 
ATOM     13  C   UNL     1      -1.747   2.662  24.344  0.00  0.00    +0.229 C 
ATOM     14  C   UNL     1      -1.896   2.440  23.563  0.00  0.00    +0.188 C 
ATOM     15  O   UNL     1      -1.410   1.798  23.385  0.00  0.00    -0.348 OA
ATOM     16  C   UNL     1      -0.961   1.623  24.055  0.00  0.00    +0.171 C 
ENDROOT
BRANCH   9   8
ATOM      4  C   UNL     1      -0.161  -0.305  24.065  0.00  0.00    +0.165 A 
ATOM      5  N   UNL     1       0.323  -0.725  23.544  0.00  0.00    -0.112 NA
ATOM      6  N   UNL     1       0.765  -0.179  23.110  0.00  0.00    -0.023 NA
ATOM      7  N   UNL     1       0.554   0.578  23.362  0.00  0.00    -0.043 NA
ATOM      8  N   UNL     1      -0.018   0.500  23.952  0.00  0.00    -0.214 N 
BRANCH   4   3
ATOM      3  C   UNL     1      -0.693  -0.632  24.603  0.00  0.00    +0.093 C 
BRANCH   3   2
ATOM      1  C   UNL     1      -1.438  -1.769  25.045  0.00  0.00    -0.004 C 
ATOM      2  C   UNL     1      -0.799  -1.450  24.632  0.00  0.00    -0.018 C 
ENDBRANCH   3   2
ENDBRANCH   4   3
ENDBRANCH   9   8
BRANCH  13  17
ATOM     17  O   UNL     1      -2.113   3.280  24.750  0.00  0.00    -0.432 OA
BRANCH  17  18
ATOM     18  C   UNL     1      -2.936   3.342  24.755  0.00  0.00    +0.425 C 
ATOM     19  O   UNL     1      -3.337   3.559  24.068  0.00  0.00    -0.224 OA
ATOM     20  N   UNL     1      -3.357   3.187  25.446  0.00  0.00    -0.142 NA
BRANCH  20  21
ATOM     21  C   UNL     1      -4.180   3.248  25.451  0.00  0.00    +0.077 A 
ATOM     22  C   UNL     1      -4.645   2.580  25.318  0.00  0.00    +0.027 A 
ATOM     23  C   UNL     1      -5.466   2.641  25.323  0.00  0.00    +0.070 A 
ATOM     24  C   UNL     1      -5.825   3.372  25.462  0.00  0.00    +0.010 A 
ATOM     25  C   UNL     1      -5.360   4.041  25.595  0.00  0.00    +0.002 A 
ATOM     26  C   UNL     1      -4.538   3.978  25.590  0.00  0.00    +0.017 A 
BRANCH  23  27
ATOM     27  C   UNL     1      -5.931   1.973  25.190  0.00  0.00    +0.100 C 
ATOM     28  N   UNL     1      -6.396   1.305  25.057  0.00  0.00    -0.191 NA
ENDBRANCH  23  27
ENDBRANCH  20  21
ENDBRANCH  17  18
ENDBRANCH  13  17
TORSDOF 7
ENDMDL
MODEL 6
REMARK VINA RESULT:      -8.5      1.902      2.473
REMARK  Name = 
REMARK  7 active torsions:
REMARK  status: ('A' for Active; 'I' for Inactive)
REMARK    1  A    between atoms: C_2  and  C_3
REMARK    2  A    between atoms: C_3  and  C_4
REMARK    3  A    between atoms: N_8  and  C_9
REMARK    4  A    between atoms: C_13  and  O_17
REMARK    5  A    between atoms: O_17  and  C_18
REMARK    6  A    between atoms: N_20  and  C_21
REMARK    7  A    between atoms: C_23  and  C_27
REMARK                            x       y       z     vdW  Elec       q    Type
REMARK                         _______ _______ _______ _____ _____    ______ ____
ROOT
ATOM      9  C   UNL     1      -3.424   2.940  24.536  0.00  0.00    +0.167 C 
ATOM     10  C   UNL     1      -3.424   2.608  23.781  0.00  0.00    +0.169 C 
ATOM     11  O   UNL     1      -2.756   2.129  23.714  0.00  0.00    -0.348 OA
ATOM     12  C   UNL     1      -2.344   2.163  24.426  0.00  0.00    +0.187 C 
ATOM     13  C   UNL     1      -1.676   1.889  24.826  0.00  0.00    +0.229 C 
ATOM     14  C   UNL     1      -1.676   2.220  25.582  0.00  0.00    +0.188 C 
ATOM     15  O   UNL     1      -2.344   2.700  25.649  0.00  0.00    -0.348 OA
ATOM     16  C   UNL     1      -2.756   2.665  24.935  0.00  0.00    +0.171 C 
ENDROOT
BRANCH   9   8
ATOM      4  C   UNL     1      -4.766   3.258  25.043  0.00  0.00    +0.165 A 
ATOM      5  N   UNL     1      -5.139   3.940  25.322  0.00  0.00    -0.112 NA
ATOM      6  N   UNL     1      -4.594   4.559  25.290  0.00  0.00    -0.023 NA
ATOM      7  N   UNL     1      -3.885   4.260  24.992  0.00  0.00    -0.043 NA
ATOM      8  N   UNL     1      -3.992   3.456  24.839  0.00  0.00    -0.214 N 
BRANCH   4   3
ATOM      3  C   UNL     1      -5.109   2.510  24.980  0.00  0.00    +0.093 C 
BRANCH   3   2
ATOM      1  C   UNL     1      -6.207   1.628  25.221  0.00  0.00    -0.004 C 
ATOM      2  C   UNL     1      -5.866   2.377  25.280  0.00  0.00    -0.018 C 
ENDBRANCH   3   2
ENDBRANCH   4   3
ENDBRANCH   9   8
BRANCH  13  17
ATOM     17  O   UNL     1      -1.108   1.373  24.523  0.00  0.00    -0.432 OA
BRANCH  17  18
ATOM     18  C   UNL     1      -1.089   0.587  24.772  0.00  0.00    +0.425 C 
ATOM     19  O   UNL     1      -0.979   0.410  25.570  0.00  0.00    -0.224 OA
ATOM     20  N   UNL     1      -1.182  -0.022  24.224  0.00  0.00    -0.142 NA
BRANCH  20  21
ATOM     21  C   UNL     1      -1.163  -0.809  24.473  0.00  0.00    +0.077 A 
ATOM     22  C   UNL     1      -1.850  -1.264  24.455  0.00  0.00    +0.027 A 
ATOM     23  C   UNL     1      -1.832  -2.049  24.704  0.00  0.00    +0.070 A 
ATOM     24  C   UNL     1      -1.125  -2.381  24.972  0.00  0.00    +0.010 A 
ATOM     25  C   UNL     1      -0.437  -1.926  24.990  0.00  0.00    +0.002 A 
ATOM     26  C   UNL     1      -0.456  -1.140  24.741  0.00  0.00    +0.017 A 
BRANCH  23  27
ATOM     27  C   UNL     1      -2.520  -2.504  24.686  0.00  0.00    +0.100 C 
ATOM     28  N   UNL     1      -3.208  -2.959  24.668  0.00  0.00    -0.191 NA
ENDBRANCH  23  27
ENDBRANCH  20  21
ENDBRANCH  17  18
ENDBRANCH  13  17
TORSDOF 7
ENDMDL
MODEL 7
REMARK VINA RESULT:      -7.1     15.820     17.449
REMARK  Name = 
REMARK  7 active torsions:
REMARK  status: ('A' for Active; 'I' for Inactive)
REMARK    1  A    between atoms: C_2  and  C_3
REMARK    2  A    between atoms: C_3  and  C_4
REMARK    3  A    between atoms: N_8  and  C_9
REMARK    4  A    between atoms: C_13  and  O_17
REMARK    5  A    between atoms: O_17  and  C_18
REMARK    6  A    between atoms: N_20  and  C_21
REMARK    7  A    between atoms: C_23  and  C_27
REMARK                            x       y       z     vdW  Elec       q    Type
REMARK                         _______ _______ _______ _____ _____    ______ ____
ROOT
ATOM      9  C   UNL     1      11.653   8.120  21.264  0.00  0.00    +0.167 C 
ATOM     10  C   UNL     1      11.674   8.127  20.440  0.00  0.00    +0.169 C 
ATOM     11  O   UNL     1      12.432   8.354  20.207  0.00  0.00    -0.348 OA
ATOM     12  C   UNL     1      12.879   8.488  20.886  0.00  0.00    +0.187 C 
ATOM     13  C   UNL     1      13.624   8.711  21.163  0.00  0.00    +0.229 C 
ATOM     14  C   UNL     1      13.603   8.704  21.987  0.00  0.00    +0.188 C 
ATOM     15  O   UNL     1      12.845   8.477  22.221  0.00  0.00    -0.348 OA
ATOM     16  C   UNL     1      12.398   8.343  21.540  0.00  0.00    +0.171 C 
ENDROOT
BRANCH   9   8
ATOM      4  C   UNL     1      10.715   7.163  21.868  0.00  0.00    +0.165 A 
ATOM      5  N   UNL     1      10.058   7.223  22.364  0.00  0.00    -0.112 NA
ATOM      6  N   UNL     1       9.939   8.022  22.534  0.00  0.00    -0.023 NA
ATOM      7  N   UNL     1      10.522   8.455  22.142  0.00  0.00    -0.043 NA
ATOM      8  N   UNL     1      11.002   7.924  21.731  0.00  0.00    -0.214 N 
BRANCH   4   3
ATOM      3  C   UNL     1      11.029   6.464  21.562  0.00  0.00    +0.093 C 
BRANCH   3   2
ATOM      1  C   UNL     1      11.045   5.035  21.579  0.00  0.00    -0.004 C 
ATOM      2  C   UNL     1      10.643   5.746  21.693  0.00  0.00    -0.018 C 
ENDBRANCH   3   2
ENDBRANCH   4   3
ENDBRANCH   9   8
BRANCH  13  17
ATOM     17  O   UNL     1      14.275   8.907  20.696  0.00  0.00    -0.432 OA
BRANCH  17  18
ATOM     18  C   UNL     1      14.954   8.438  20.717  0.00  0.00    +0.425 C 
ATOM     19  O   UNL     1      15.217   8.125  21.433  0.00  0.00    -0.224 OA
ATOM     20  N   UNL     1      15.369   8.283  20.022  0.00  0.00    -0.142 NA
BRANCH  20  21
ATOM     21  C   UNL     1      16.048   7.814  20.042  0.00  0.00    +0.077 A 
ATOM     22  C   UNL     1      16.111   7.158  19.547  0.00  0.00    +0.027 A 
ATOM     23  C   UNL     1      16.788   6.689  19.567  0.00  0.00    +0.070 A 
ATOM     24  C   UNL     1      17.405   6.876  20.083  0.00  0.00    +0.010 A 
ATOM     25  C   UNL     1      17.342   7.533  20.579  0.00  0.00    +0.002 A 
ATOM     26  C   UNL     1      16.663   8.002  20.558  0.00  0.00    +0.017 A 
BRANCH  23  27
ATOM     27  C   UNL     1      16.851   6.032  19.071  0.00  0.00    +0.100 C 
ATOM     28  N   UNL     1      16.914   5.376  18.576  0.00  0.00    -0.191 NA
ENDBRANCH  23  27
ENDBRANCH  20  21
ENDBRANCH  17  18
ENDBRANCH  13  17
TORSDOF 7
ENDMDL
