MODEL 1
REMARK VINA RESULT:     -14.9      0.000      0.000
REMARK  Name = 
REMARK  4 active torsions:
REMARK  status: ('A' for Active; 'I' for Inactive)
REMARK    1  A    between atoms: N_4  and  C_5
REMARK    2  A    between atoms: C_8  and  S_11
REMARK    3  A    between atoms: S_11  and  N_14
REMARK    4  A    between atoms: C_21  and  C_28
REMARK                            x       y       z     vdW  Elec       q    Type
REMARK                         _______ _______ _______ _____ _____    ______ ____
ROOT
ATOM     14  N   UNL     1      -4.707   1.713  24.708  0.00  0.00    -0.155 NA
ATOM     15  C   UNL     1      -5.272   2.328  24.667  0.00  0.00    +0.098 C 
ATOM     16  C   UNL     1      -4.676   3.108  24.781  0.00  0.00    +0.041 C 
ATOM     17  C   UNL     1      -4.328   3.840  24.861  0.00  0.00    +0.011 C 
ATOM     18  C   UNL     1      -4.126   3.168  24.853  0.00  0.00    +0.056 C 
ATOM     19  C   UNL     1      -4.715   2.425  24.742  0.00  0.00    +0.102 C 
ATOM     20  C   UNL     1      -3.377   2.640  24.922  0.00  0.00    +0.041 A 
ATOM     21  C   UNL     1      -2.561   2.697  25.028  0.00  0.00    +0.012 A 
ATOM     22  C   UNL     1      -2.100   2.013  25.052  0.00  0.00    +0.006 A 
ATOM     23  C   UNL     1      -2.456   1.272  24.971  0.00  0.00    +0.061 A 
ATOM     24  C   UNL     1      -3.272   1.216  24.865  0.00  0.00    +0.261 A 
ATOM     25  O   UNL     1      -3.627   0.476  24.783  0.00  0.00    -0.267 OA
ATOM     26  N   UNL     1      -3.732   1.900  24.840  0.00  0.00    -0.299 N 
ATOM     27  C   UNL     1      -3.899   2.548  24.851  0.00  0.00    +0.110 C 
ENDROOT
BRANCH  21  28
ATOM     28  C   UNL     1      -2.206   3.437  25.109  0.00  0.00    +0.001 A 
ATOM     29  C   UNL     1      -2.202   3.814  25.843  0.00  0.00    +0.000 A 
ATOM     30  C   UNL     1      -1.847   4.554  25.925  0.00  0.00    +0.000 A 
ATOM     31  C   UNL     1      -1.496   4.917  25.273  0.00  0.00    +0.000 A 
ATOM     32  C   UNL     1      -1.499   4.540  24.539  0.00  0.00    +0.000 A 
ATOM     33  C   UNL     1      -1.855   3.800  24.457  0.00  0.00    +0.000 A 
ENDBRANCH  21  28
BRANCH  14  11
ATOM     11  S   UNL     1      -4.404   0.946  24.708  0.00  0.00    +0.063 S 
ATOM     12  O   UNL     1      -4.235   1.012  23.903  0.00  0.00    -0.153 OA
ATOM     13  O   UNL     1      -4.573   0.879  25.514  0.00  0.00    -0.153 OA
BRANCH  11   8
ATOM      5  C   UNL     1      -3.494  -1.356  24.709  0.00  0.00    +0.073 A 
ATOM      6  C   UNL     1      -3.541  -0.932  24.004  0.00  0.00    +0.018 A 
ATOM      7  C   UNL     1      -3.845  -0.164  24.003  0.00  0.00    +0.021 A 
ATOM      8  C   UNL     1      -4.100   0.178  24.709  0.00  0.00    +0.122 A 
ATOM      9  C   UNL     1      -4.053  -0.246  25.414  0.00  0.00    +0.021 A 
ATOM     10  C   UNL     1      -3.749  -1.014  25.415  0.00  0.00    +0.018 A 
BRANCH   5   4
ATOM      1  C   UNL     1      -3.316  -3.504  24.364  0.00  0.00    +0.097 C 
ATOM      2  C   UNL     1      -3.619  -2.736  24.363  0.00  0.00    +0.246 C 
ATOM      3  O   UNL     1      -4.351  -2.583  24.016  0.00  0.00    -0.273 OA
ATOM      4  N   UNL     1      -3.190  -2.123  24.710  0.00  0.00    -0.179 NA
ENDBRANCH   5   4
ENDBRANCH  11   8
ENDBRANCH  14  11
TORSDOF 4
ENDMDL
MODEL 2
REMARK VINA RESULT:     -14.7      2.100      5.285
REMARK  Name = 
REMARK  4 active torsions:
REMARK  status: ('A' for Active; 'I' for Inactive)
REMARK    1  A    between atoms: N_4  and  C_5
REMARK    2  A    between atoms: C_8  and  S_11
REMARK    3  A    between atoms: S_11  and  N_14
REMARK    4  A    between atoms: C_21  and  C_28
REMARK                            x       y       z     vdW  Elec       q    Type
REMARK                         _______ _______ _______ _____ _____    ______ ____
ROOT
ATOM     14  N   UNL     1      -0.585   0.309  24.619  0.00  0.00    -0.155 NA
ATOM     15  C   UNL     1      -0.046  -0.317  24.493  0.00  0.00    +0.098 C 
ATOM     16  C   UNL     1      -0.677  -1.077  24.470  0.00  0.00    +0.041 C 
ATOM     17  C   UNL     1      -1.057  -1.796  24.426  0.00  0.00    +0.011 C 
ATOM     18  C   UNL     1      -1.231  -1.122  24.521  0.00  0.00    +0.056 C 
ATOM     19  C   UNL     1      -0.608  -0.398  24.541  0.00  0.00    +0.102 C 
ATOM     20  C   UNL     1      -1.958  -0.578  24.656  0.00  0.00    +0.041 A 
ATOM     21  C   UNL     1      -2.779  -0.612  24.735  0.00  0.00    +0.012 A 
ATOM     22  C   UNL     1      -3.211   0.080  24.857  0.00  0.00    +0.006 A 
ATOM     23  C   UNL     1      -2.822   0.806  24.901  0.00  0.00    +0.061 A 
ATOM     24  C   UNL     1      -2.002   0.841  24.822  0.00  0.00    +0.261 A 
ATOM     25  O   UNL     1      -1.614   1.568  24.866  0.00  0.00    -0.267 OA
ATOM     26  N   UNL     1      -1.570   0.149  24.700  0.00  0.00    -0.299 N 
ATOM     27  C   UNL     1      -1.431  -0.500  24.612  0.00  0.00    +0.110 C 
ENDROOT
BRANCH  21  28
ATOM     28  C   UNL     1      -3.167  -1.339  24.691  0.00  0.00    +0.001 A 
ATOM     29  C   UNL     1      -3.525  -1.574  23.986  0.00  0.00    +0.000 A 
ATOM     30  C   UNL     1      -3.913  -2.300  23.942  0.00  0.00    +0.000 A 
ATOM     31  C   UNL     1      -3.943  -2.793  24.603  0.00  0.00    +0.000 A 
ATOM     32  C   UNL     1      -3.585  -2.558  25.308  0.00  0.00    +0.000 A 
ATOM     33  C   UNL     1      -3.197  -1.832  25.352  0.00  0.00    +0.000 A 
ENDBRANCH  21  28
BRANCH  14  11
ATOM     11  S   UNL     1      -0.856   1.080  24.734  0.00  0.00    +0.063 S 
ATOM     12  O   UNL     1      -0.774   0.987  25.550  0.00  0.00    -0.153 OA
ATOM     13  O   UNL     1      -0.937   1.174  23.918  0.00  0.00    -0.153 OA
BRANCH  11   8
ATOM      5  C   UNL     1      -1.668   3.392  25.080  0.00  0.00    +0.073 A 
ATOM      6  C   UNL     1      -1.418   2.942  25.725  0.00  0.00    +0.018 A 
ATOM      7  C   UNL     1      -1.147   2.171  25.609  0.00  0.00    +0.021 A 
ATOM      8  C   UNL     1      -1.127   1.851  24.850  0.00  0.00    +0.122 A 
ATOM      9  C   UNL     1      -1.376   2.301  24.205  0.00  0.00    +0.021 A 
ATOM     10  C   UNL     1      -1.647   3.072  24.321  0.00  0.00    +0.018 A 
BRANCH   5   4
ATOM      1  C   UNL     1      -1.695   5.571  25.209  0.00  0.00    +0.097 C 
ATOM      2  C   UNL     1      -1.425   4.800  25.094  0.00  0.00    +0.246 C 
ATOM      3  O   UNL     1      -0.640   4.667  24.877  0.00  0.00    -0.273 OA
ATOM      4  N   UNL     1      -1.938   4.163  25.196  0.00  0.00    -0.179 NA
ENDBRANCH   5   4
ENDBRANCH  11   8
ENDBRANCH  14  11
TORSDOF 4
ENDMDL
MODEL 3
REMARK VINA RESULT:     -14.4      1.645      4.457
REMARK  Name = 
REMARK  4 active torsions:
REMARK  status: ('A' for Active; 'I' for Inactive)
REMARK    1  A    between atoms: N_4  and  C_5
REMARK    2  A    between atoms: C_8  and  S_11
REMARK    3  A    between atoms: S_11  and  N_14
REMARK    4  A    between atoms: C_21  and  C_28
REMARK                            x       y       z     vdW  Elec       q    Type
REMARK                         _______ _______ _______ _____ _____    ______ ____
ROOT
ATOM     14  N   UNL     1      -4.959   2.595  25.197  0.00  0.00    -0.155 NA
ATOM     15  C   UNL     1      -5.763   2.375  25.254  0.00  0.00    +0.098 C 
ATOM     16  C   UNL     1      -5.679   1.401  25.110  0.00  0.00    +0.041 C 
ATOM     17  C   UNL     1      -5.779   0.599  25.010  0.00  0.00    +0.011 C 
ATOM     18  C   UNL     1      -5.249   1.059  25.015  0.00  0.00    +0.056 C 
ATOM     19  C   UNL     1      -5.346   1.999  25.156  0.00  0.00    +0.102 C 
ATOM     20  C   UNL     1      -4.336   1.108  24.922  0.00  0.00    +0.041 A 
ATOM     21  C   UNL     1      -3.680   0.629  24.784  0.00  0.00    +0.012 A 
ATOM     22  C   UNL     1      -2.926   0.962  24.747  0.00  0.00    +0.006 A 
ATOM     23  C   UNL     1      -2.828   1.775  24.849  0.00  0.00    +0.061 A 
ATOM     24  C   UNL     1      -3.485   2.255  24.988  0.00  0.00    +0.261 A 
ATOM     25  O   UNL     1      -3.387   3.068  25.090  0.00  0.00    -0.267 OA
ATOM     26  N   UNL     1      -4.239   1.921  25.024  0.00  0.00    -0.299 N 
ATOM     27  C   UNL     1      -4.726   1.463  25.014  0.00  0.00    +0.110 C 
ENDROOT
BRANCH  21  28
ATOM     28  C   UNL     1      -3.777  -0.184  24.681  0.00  0.00    +0.001 A 
ATOM     29  C   UNL     1      -3.702  -0.693  25.327  0.00  0.00    +0.000 A 
ATOM     30  C   UNL     1      -3.800  -1.506  25.225  0.00  0.00    +0.000 A 
ATOM     31  C   UNL     1      -3.972  -1.810  24.477  0.00  0.00    +0.000 A 
ATOM     32  C   UNL     1      -4.046  -1.302  23.832  0.00  0.00    +0.000 A 
ATOM     33  C   UNL     1      -3.949  -0.489  23.934  0.00  0.00    +0.000 A 
ENDBRANCH  21  28
BRANCH  14  11
ATOM     11  S   UNL     1      -4.293   3.082  25.191  0.00  0.00    +0.063 S 
ATOM     12  O   UNL     1      -4.364   3.171  24.373  0.00  0.00    -0.153 OA
ATOM     13  O   UNL     1      -4.221   2.994  26.008  0.00  0.00    -0.153 OA
BRANCH  11   8
ATOM      5  C   UNL     1      -2.295   4.543  25.174  0.00  0.00    +0.073 A 
ATOM      6  C   UNL     1      -2.712   4.407  24.476  0.00  0.00    +0.018 A 
ATOM      7  C   UNL     1      -3.378   3.920  24.481  0.00  0.00    +0.021 A 
ATOM      8  C   UNL     1      -3.627   3.569  25.185  0.00  0.00    +0.122 A 
ATOM      9  C   UNL     1      -3.210   3.706  25.884  0.00  0.00    +0.021 A 
ATOM     10  C   UNL     1      -2.543   4.193  25.878  0.00  0.00    +0.018 A 
BRANCH   5   4
ATOM      1  C   UNL     1      -0.246   5.232  24.871  0.00  0.00    +0.097 C 
ATOM      2  C   UNL     1      -0.912   4.745  24.876  0.00  0.00    +0.246 C 
ATOM      3  O   UNL     1      -0.861   3.974  24.590  0.00  0.00    -0.273 OA
ATOM      4  N   UNL     1      -1.629   5.030  25.168  0.00  0.00    -0.179 NA
ENDBRANCH   5   4
ENDBRANCH  11   8
ENDBRANCH  14  11
TORSDOF 4
ENDMDL
MODEL 4
REMARK VINA RESULT:     -13.8      1.625      4.730
REMARK  Name = 
REMARK  4 active torsions:
REMARK  status: ('A' for Active; 'I' for Inactive)
REMARK    1  A    between atoms: N_4  and  C_5
REMARK    2  A    between atoms: C_8  and  S_11
REMARK    3  A    between atoms: S_11  and  N_14
REMARK    4  A    between atoms: C_21  and  C_28
REMARK                            x       y       z     vdW  Elec       q    Type
REMARK                         _______ _______ _______ _____ _____    ______ ____
ROOT
ATOM     14  N   UNL     1      -1.855   1.162  24.459  0.00  0.00    -0.155 NA
ATOM     15  C   UNL     1      -1.107   0.817  24.320  0.00  0.00    +0.098 C 
ATOM     16  C   UNL     1      -1.353  -0.139  24.365  0.00  0.00    +0.041 C 
ATOM     17  C   UNL     1      -1.391  -0.952  24.371  0.00  0.00    +0.011 C 
ATOM     18  C   UNL     1      -1.831  -0.412  24.453  0.00  0.00    +0.056 C 
ATOM     19  C   UNL     1      -1.577   0.508  24.407  0.00  0.00    +0.102 C 
ATOM     20  C   UNL     1      -2.715  -0.220  24.617  0.00  0.00    +0.041 A 
ATOM     21  C   UNL     1      -3.438  -0.595  24.751  0.00  0.00    +0.012 A 
ATOM     22  C   UNL     1      -4.118  -0.145  24.877  0.00  0.00    +0.006 A 
ATOM     23  C   UNL     1      -4.075   0.679  24.870  0.00  0.00    +0.061 A 
ATOM     24  C   UNL     1      -3.353   1.053  24.736  0.00  0.00    +0.261 A 
ATOM     25  O   UNL     1      -3.311   1.877  24.729  0.00  0.00    -0.267 OA
ATOM     26  N   UNL     1      -2.673   0.604  24.610  0.00  0.00    -0.299 N 
ATOM     27  C   UNL     1      -2.274   0.071  24.536  0.00  0.00    +0.110 C 
ENDROOT
BRANCH  21  28
ATOM     28  C   UNL     1      -3.480  -1.419  24.758  0.00  0.00    +0.001 A 
ATOM     29  C   UNL     1      -3.320  -1.834  25.452  0.00  0.00    +0.000 A 
ATOM     30  C   UNL     1      -3.362  -2.658  25.460  0.00  0.00    +0.000 A 
ATOM     31  C   UNL     1      -3.564  -3.067  24.772  0.00  0.00    +0.000 A 
ATOM     32  C   UNL     1      -3.724  -2.652  24.078  0.00  0.00    +0.000 A 
ATOM     33  C   UNL     1      -3.682  -1.828  24.071  0.00  0.00    +0.000 A 
ENDBRANCH  21  28
BRANCH  14  11
ATOM     11  S   UNL     1      -2.424   1.750  24.565  0.00  0.00    +0.063 S 
ATOM     12  O   UNL     1      -2.579   1.746  23.754  0.00  0.00    -0.153 OA
ATOM     13  O   UNL     1      -2.268   1.755  25.375  0.00  0.00    -0.153 OA
BRANCH  11   8
ATOM      5  C   UNL     1      -4.129   3.516  24.882  0.00  0.00    +0.073 A 
ATOM      6  C   UNL     1      -3.653   3.284  25.515  0.00  0.00    +0.018 A 
ATOM      7  C   UNL     1      -3.084   2.695  25.409  0.00  0.00    +0.021 A 
ATOM      8  C   UNL     1      -2.992   2.339  24.670  0.00  0.00    +0.122 A 
ATOM      9  C   UNL     1      -3.468   2.571  24.038  0.00  0.00    +0.021 A 
ATOM     10  C   UNL     1      -4.037   3.160  24.144  0.00  0.00    +0.018 A 
BRANCH   5   4
ATOM      1  C   UNL     1      -5.940   4.539  25.543  0.00  0.00    +0.097 C 
ATOM      2  C   UNL     1      -5.372   3.950  25.437  0.00  0.00    +0.246 C 
ATOM      3  O   UNL     1      -5.479   3.208  25.780  0.00  0.00    -0.273 OA
ATOM      4  N   UNL     1      -4.697   4.105  24.988  0.00  0.00    -0.179 NA
ENDBRANCH   5   4
ENDBRANCH  11   8
ENDBRANCH  14  11
TORSDOF 4
ENDMDL
MODEL 5
REMARK VINA RESULT:     -12.9      1.426      2.401
REMARK  Name = 
REMARK  4 active torsions:
REMARK  status: ('A' for Active; 'I' for Inactive)
REMARK    1  A    between atoms: N_4  and  C_5
REMARK    2  A    between atoms: C_8  and  S_11
REMARK    3  A    between atoms: S_11  and  N_14
REMARK    4  A    between atoms: C_21  and  C_28
REMARK                            x       y       z     vdW  Elec       q    Type
REMARK                         _______ _______ _______ _____ _____    ______ ____
ROOT
ATOM     14  N   UNL     1      -1.023   0.855  25.522  0.00  0.00    -0.155 NA
ATOM     15  C   UNL     1      -0.286   1.018  25.880  0.00  0.00    +0.098 C 
ATOM     16  C   UNL     1      -0.314   2.006  25.873  0.00  0.00    +0.041 C 
ATOM     17  C   UNL     1      -0.185   2.808  25.942  0.00  0.00    +0.011 C 
ATOM     18  C   UNL     1      -0.686   2.382  25.696  0.00  0.00    +0.056 C 
ATOM     19  C   UNL     1      -0.644   1.428  25.710  0.00  0.00    +0.102 C 
ATOM     20  C   UNL     1      -1.513   2.398  25.295  0.00  0.00    +0.041 A 
ATOM     21  C   UNL     1      -2.082   2.929  25.023  0.00  0.00    +0.012 A 
ATOM     22  C   UNL     1      -2.779   2.648  24.684  0.00  0.00    +0.006 A 
ATOM     23  C   UNL     1      -2.907   1.836  24.616  0.00  0.00    +0.061 A 
ATOM     24  C   UNL     1      -2.338   1.305  24.888  0.00  0.00    +0.261 A 
ATOM     25  O   UNL     1      -2.466   0.492  24.821  0.00  0.00    -0.267 OA
ATOM     26  N   UNL     1      -1.641   1.586  25.228  0.00  0.00    -0.299 N 
ATOM     27  C   UNL     1      -1.178   2.013  25.455  0.00  0.00    +0.110 C 
ENDROOT
BRANCH  21  28
ATOM     28  C   UNL     1      -1.954   3.742  25.090  0.00  0.00    +0.001 A 
ATOM     29  C   UNL     1      -2.306   4.165  25.705  0.00  0.00    +0.000 A 
ATOM     30  C   UNL     1      -2.179   4.977  25.772  0.00  0.00    +0.000 A 
ATOM     31  C   UNL     1      -1.699   5.367  25.225  0.00  0.00    +0.000 A 
ATOM     32  C   UNL     1      -1.347   4.943  24.611  0.00  0.00    +0.000 A 
ATOM     33  C   UNL     1      -1.475   4.131  24.544  0.00  0.00    +0.000 A 
ENDBRANCH  21  28
BRANCH  14  11
ATOM     11  S   UNL     1      -1.649   0.412  25.216  0.00  0.00    +0.063 S 
ATOM     12  O   UNL     1      -2.005   0.400  25.961  0.00  0.00    -0.153 OA
ATOM     13  O   UNL     1      -1.293   0.424  24.472  0.00  0.00    -0.153 OA
BRANCH  11   8
ATOM      5  C   UNL     1      -3.525  -0.916  24.299  0.00  0.00    +0.073 A 
ATOM      6  C   UNL     1      -3.510  -0.723  25.100  0.00  0.00    +0.018 A 
ATOM      7  C   UNL     1      -2.884  -0.280  25.406  0.00  0.00    +0.021 A 
ATOM      8  C   UNL     1      -2.274  -0.031  24.910  0.00  0.00    +0.122 A 
ATOM      9  C   UNL     1      -2.289  -0.224  24.109  0.00  0.00    +0.021 A 
ATOM     10  C   UNL     1      -2.915  -0.667  23.803  0.00  0.00    +0.018 A 
BRANCH   5   4
ATOM      1  C   UNL     1      -4.725  -2.624  23.661  0.00  0.00    +0.097 C 
ATOM      2  C   UNL     1      -4.099  -2.182  23.967  0.00  0.00    +0.246 C 
ATOM      3  O   UNL     1      -3.423  -2.562  24.247  0.00  0.00    -0.273 OA
ATOM      4  N   UNL     1      -4.150  -1.359  23.993  0.00  0.00    -0.179 NA
ENDBRANCH   5   4
ENDBRANCH  11   8
ENDBRANCH  14  11
TORSDOF 4
ENDMDL
