MODEL 1
REMARK VINA RESULT:     -11.3      0.000      0.000
REMARK  Name = 
REMARK  7 active torsions:
REMARK  status: ('A' for Active; 'I' for Inactive)
REMARK    1  A    between atoms: C_2  and  C_3
REMARK    2  A    between atoms: C_2  and  C_25
REMARK    3  A    between atoms: C_10  and  N_11
REMARK    4  A    between atoms: C_12  and  C_14
REMARK    5  A    between atoms: N_27  and  C_29
REMARK    6  A    between atoms: C_29  and  C_30
REMARK    7  A    between atoms: C_30  and  C_31
REMARK                            x       y       z     vdW  Elec       q    Type
REMARK                         _______ _______ _______ _____ _____    ______ ____
ROOT
ATOM      3  C   UNL     1      -4.461   0.324  24.684  0.00  0.00    +0.039 C 
ATOM      4  C   UNL     1      -5.132   0.561  25.100  0.00  0.00    +0.003 C 
ATOM      5  C   UNL     1      -5.206   1.343  25.352  0.00  0.00    +0.000 C 
ATOM      6  C   UNL     1      -4.609   1.888  25.186  0.00  0.00    +0.002 C 
ATOM      7  C   UNL     1      -5.280   2.126  25.603  0.00  0.00    +0.000 C 
ATOM      8  C   UNL     1      -4.684   2.671  25.438  0.00  0.00    +0.002 C 
ATOM      9  C   UNL     1      -4.087   3.216  25.272  0.00  0.00    +0.022 C 
ATOM     10  C   UNL     1      -3.415   2.978  24.855  0.00  0.00    +0.096 C 
ATOM     20  C   UNL     1      -3.341   2.196  24.604  0.00  0.00    +0.022 C 
ATOM     21  C   UNL     1      -2.670   1.960  24.187  0.00  0.00    +0.002 C 
ATOM     22  C   UNL     1      -3.938   1.651  24.770  0.00  0.00    +0.032 C 
ATOM     23  C   UNL     1      -3.863   0.870  24.518  0.00  0.00    +0.152 C 
ATOM     24  O   UNL     1      -3.192   0.632  24.101  0.00  0.00    -0.223 OA
ENDROOT
BRANCH  10  11
ATOM     11  N   UNL     1      -2.819   3.523  24.690  0.00  0.00    -0.202 NA
ATOM     12  C   UNL     1      -2.463   3.945  25.304  0.00  0.00    +0.282 C 
ATOM     13  O   UNL     1      -2.706   3.822  26.084  0.00  0.00    -0.267 OA
BRANCH  12  14
ATOM     14  C   UNL     1      -1.867   4.490  25.139  0.00  0.00    +0.136 A 
ATOM     15  N   UNL     1      -1.100   4.227  24.985  0.00  0.00    -0.239 NA
ATOM     16  C   UNL     1      -0.503   4.772  24.820  0.00  0.00    +0.099 A 
ATOM     17  C   UNL     1      -0.673   5.580  24.808  0.00  0.00    +0.021 A 
ATOM     18  C   UNL     1      -1.441   5.843  24.962  0.00  0.00    +0.003 A 
ATOM     19  C   UNL     1      -2.037   5.298  25.127  0.00  0.00    +0.024 A 
ENDBRANCH  12  14
ENDBRANCH  10  11
BRANCH   3   2
ATOM      1  C   UNL     1      -4.733  -0.698  23.723  0.00  0.00    +0.010 C 
ATOM      2  C   UNL     1      -4.386  -0.458  24.432  0.00  0.00    +0.079 C 
BRANCH   2  25
ATOM     25  C   UNL     1      -3.965  -1.000  24.888  0.00  0.00    +0.225 C 
ATOM     26  O   UNL     1      -3.800  -0.834  25.681  0.00  0.00    -0.275 OA
ATOM     27  N   UNL     1      -3.707  -1.710  24.555  0.00  0.00    -0.277 N 
ATOM     28  C   UNL     1      -3.871  -1.876  23.764  0.00  0.00    +0.115 C 
BRANCH  27  29
ATOM     29  C   UNL     1      -3.286  -2.252  25.011  0.00  0.00    +0.110 C 
BRANCH  29  30
ATOM     30  C   UNL     1      -2.754  -2.770  24.651  0.00  0.00    +0.127 C 
BRANCH  30  31
ATOM     31  C   UNL     1      -1.960  -2.765  24.872  0.00  0.00    +0.075 C 
ATOM     32  N   UNL     1      -1.164  -2.760  25.092  0.00  0.00    -0.196 NA
ENDBRANCH  30  31
ENDBRANCH  29  30
ENDBRANCH  27  29
ENDBRANCH   2  25
ENDBRANCH   3   2
TORSDOF 7
ENDMDL
MODEL 2
REMARK VINA RESULT:     -11.2      3.433      4.956
REMARK  Name = 
REMARK  7 active torsions:
REMARK  status: ('A' for Active; 'I' for Inactive)
REMARK    1  A    between atoms: C_2  and  C_3
REMARK    2  A    between atoms: C_2  and  C_25
REMARK    3  A    between atoms: C_10  and  N_11
REMARK    4  A    between atoms: C_12  and  C_14
REMARK    5  A    between atoms: N_27  and  C_29
REMARK    6  A    between atoms: C_29  and  C_30
REMARK    7  A    between atoms: C_30  and  C_31
REMARK                            x       y       z     vdW  Elec       q    Type
REMARK                         _______ _______ _______ _____ _____    ______ ____
ROOT
ATOM      3  C   UNL     1       0.069   0.055  23.648  0.00  0.00    +0.039 C 
ATOM      4  C   UNL     1       0.142  -0.562  24.191  0.00  0.00    +0.003 C 
ATOM      5  C   UNL     1      -0.439  -0.677  24.765  0.00  0.00    +0.000 C 
ATOM      6  C   UNL     1      -1.094  -0.175  24.796  0.00  0.00    +0.002 C 
ATOM      7  C   UNL     1      -1.021  -0.793  25.339  0.00  0.00    +0.000 C 
ATOM      8  C   UNL     1      -1.675  -0.291  25.371  0.00  0.00    +0.002 C 
ATOM      9  C   UNL     1      -2.329   0.210  25.402  0.00  0.00    +0.022 C 
ATOM     10  C   UNL     1      -2.403   0.828  24.859  0.00  0.00    +0.096 C 
ATOM     20  C   UNL     1      -1.821   0.943  24.285  0.00  0.00    +0.022 C 
ATOM     21  C   UNL     1      -1.895   1.560  23.743  0.00  0.00    +0.002 C 
ATOM     22  C   UNL     1      -1.167   0.441  24.254  0.00  0.00    +0.032 C 
ATOM     23  C   UNL     1      -0.587   0.557  23.680  0.00  0.00    +0.152 C 
ATOM     24  O   UNL     1      -0.659   1.174  23.137  0.00  0.00    -0.223 OA
ENDROOT
BRANCH  10  11
ATOM     11  N   UNL     1      -3.056   1.329  24.890  0.00  0.00    -0.202 NA
ATOM     12  C   UNL     1      -3.799   1.026  25.085  0.00  0.00    +0.282 C 
ATOM     13  O   UNL     1      -3.887   0.222  25.249  0.00  0.00    -0.267 OA
BRANCH  12  14
ATOM     14  C   UNL     1      -4.454   1.528  25.116  0.00  0.00    +0.136 A 
ATOM     15  N   UNL     1      -4.375   2.289  25.427  0.00  0.00    -0.239 NA
ATOM     16  C   UNL     1      -5.030   2.790  25.458  0.00  0.00    +0.099 A 
ATOM     17  C   UNL     1      -5.762   2.531  25.179  0.00  0.00    +0.021 A 
ATOM     18  C   UNL     1      -5.840   1.770  24.869  0.00  0.00    +0.003 A 
ATOM     19  C   UNL     1      -5.186   1.268  24.838  0.00  0.00    +0.024 A 
ENDBRANCH  12  14
ENDBRANCH  10  11
BRANCH   3   2
ATOM      1  C   UNL     1       0.511  -0.063  22.295  0.00  0.00    +0.010 C 
ATOM      2  C   UNL     1       0.649   0.171  23.074  0.00  0.00    +0.079 C 
BRANCH   2  25
ATOM     25  C   UNL     1       1.368   0.521  23.278  0.00  0.00    +0.225 C 
ATOM     26  O   UNL     1       1.397   1.081  23.883  0.00  0.00    -0.275 OA
ATOM     27  N   UNL     1       2.058   0.311  22.877  0.00  0.00    -0.277 N 
ATOM     28  C   UNL     1       2.029  -0.249  22.272  0.00  0.00    +0.115 C 
BRANCH  27  29
ATOM     29  C   UNL     1       2.776   0.661  23.081  0.00  0.00    +0.110 C 
BRANCH  29  30
ATOM     30  C   UNL     1       3.469   0.441  22.690  0.00  0.00    +0.127 C 
BRANCH  30  31
ATOM     31  C   UNL     1       4.203   0.601  23.029  0.00  0.00    +0.075 C 
ATOM     32  N   UNL     1       4.938   0.761  23.368  0.00  0.00    -0.196 NA
ENDBRANCH  30  31
ENDBRANCH  29  30
ENDBRANCH  27  29
ENDBRANCH   2  25
ENDBRANCH   3   2
TORSDOF 7
ENDMDL
MODEL 3
REMARK VINA RESULT:     -10.6      0.810      5.241
REMARK  Name = 
REMARK  7 active torsions:
REMARK  status: ('A' for Active; 'I' for Inactive)
REMARK    1  A    between atoms: C_2  and  C_3
REMARK    2  A    between atoms: C_2  and  C_25
REMARK    3  A    between atoms: C_10  and  N_11
REMARK    4  A    between atoms: C_12  and  C_14
REMARK    5  A    between atoms: N_27  and  C_29
REMARK    6  A    between atoms: C_29  and  C_30
REMARK    7  A    between atoms: C_30  and  C_31
REMARK                            x       y       z     vdW  Elec       q    Type
REMARK                         _______ _______ _______ _____ _____    ______ ____
ROOT
ATOM      3  C   UNL     1      -4.200   3.093  24.850  0.00  0.00    +0.039 C 
ATOM      4  C   UNL     1      -4.889   3.109  25.301  0.00  0.00    +0.003 C 
ATOM      5  C   UNL     1      -5.282   2.407  25.479  0.00  0.00    +0.000 C 
ATOM      6  C   UNL     1      -4.985   1.686  25.205  0.00  0.00    +0.002 C 
ATOM      7  C   UNL     1      -5.676   1.703  25.657  0.00  0.00    +0.000 C 
ATOM      8  C   UNL     1      -5.379   0.983  25.384  0.00  0.00    +0.002 C 
ATOM      9  C   UNL     1      -5.082   0.264  25.110  0.00  0.00    +0.022 C 
ATOM     10  C   UNL     1      -4.391   0.247  24.658  0.00  0.00    +0.096 C 
ATOM     20  C   UNL     1      -3.998   0.951  24.481  0.00  0.00    +0.022 C 
ATOM     21  C   UNL     1      -3.308   0.934  24.029  0.00  0.00    +0.002 C 
ATOM     22  C   UNL     1      -4.295   1.670  24.754  0.00  0.00    +0.032 C 
ATOM     23  C   UNL     1      -3.902   2.372  24.576  0.00  0.00    +0.152 C 
ATOM     24  O   UNL     1      -3.212   2.357  24.125  0.00  0.00    -0.223 OA
ENDROOT
BRANCH  10  11
ATOM     11  N   UNL     1      -4.095  -0.471  24.385  0.00  0.00    -0.202 NA
ATOM     12  C   UNL     1      -3.896  -1.067  24.921  0.00  0.00    +0.282 C 
ATOM     13  O   UNL     1      -3.995  -0.942  25.732  0.00  0.00    -0.267 OA
BRANCH  12  14
ATOM     14  C   UNL     1      -3.599  -1.786  24.648  0.00  0.00    +0.136 A 
ATOM     15  N   UNL     1      -2.811  -1.986  24.787  0.00  0.00    -0.239 NA
ATOM     16  C   UNL     1      -2.514  -2.706  24.513  0.00  0.00    +0.099 A 
ATOM     17  C   UNL     1      -3.005  -3.225  24.101  0.00  0.00    +0.021 A 
ATOM     18  C   UNL     1      -3.794  -3.024  23.962  0.00  0.00    +0.003 A 
ATOM     19  C   UNL     1      -4.091  -2.305  24.235  0.00  0.00    +0.024 A 
ENDBRANCH  12  14
ENDBRANCH  10  11
BRANCH   3   2
ATOM      1  C   UNL     1      -4.018   4.228  24.002  0.00  0.00    +0.010 C 
ATOM      2  C   UNL     1      -3.806   3.796  24.672  0.00  0.00    +0.079 C 
BRANCH   2  25
ATOM     25  C   UNL     1      -3.201   4.066  25.162  0.00  0.00    +0.225 C 
ATOM     26  O   UNL     1      -3.250   3.954  25.979  0.00  0.00    -0.275 OA
ATOM     27  N   UNL     1      -2.545   4.448  24.838  0.00  0.00    -0.277 N 
ATOM     28  C   UNL     1      -2.496   4.560  24.022  0.00  0.00    +0.115 C 
BRANCH  27  29
ATOM     29  C   UNL     1      -1.940   4.718  25.329  0.00  0.00    +0.110 C 
BRANCH  29  30
ATOM     30  C   UNL     1      -1.194   4.879  25.014  0.00  0.00    +0.127 C 
BRANCH  30  31
ATOM     31  C   UNL     1      -0.550   4.407  25.217  0.00  0.00    +0.075 C 
ATOM     32  N   UNL     1       0.095   3.933  25.420  0.00  0.00    -0.196 NA
ENDBRANCH  30  31
ENDBRANCH  29  30
ENDBRANCH  27  29
ENDBRANCH   2  25
ENDBRANCH   3   2
TORSDOF 7
ENDMDL
MODEL 4
REMARK VINA RESULT:     -10.4      2.972      4.556
REMARK  Name = 
REMARK  7 active torsions:
REMARK  status: ('A' for Active; 'I' for Inactive)
REMARK    1  A    between atoms: C_2  and  C_3
REMARK    2  A    between atoms: C_2  and  C_25
REMARK    3  A    between atoms: C_10  and  N_11
REMARK    4  A    between atoms: C_12  and  C_14
REMARK    5  A    between atoms: N_27  and  C_29
REMARK    6  A    between atoms: C_29  and  C_30
REMARK    7  A    between atoms: C_30  and  C_31
REMARK                            x       y       z     vdW  Elec       q    Type
REMARK                         _______ _______ _______ _____ _____    ______ ____
ROOT
ATOM      3  C   UNL     1      -0.757   0.773  23.560  0.00  0.00    +0.039 C 
ATOM      4  C   UNL     1      -0.793   1.215  22.866  0.00  0.00    +0.003 C 
ATOM      5  C   UNL     1      -1.468   1.655  22.690  0.00  0.00    +0.000 C 
ATOM      6  C   UNL     1      -2.109   1.651  23.211  0.00  0.00    +0.002 C 
ATOM      7  C   UNL     1      -2.144   2.095  22.515  0.00  0.00    +0.000 C 
ATOM      8  C   UNL     1      -2.785   2.091  23.035  0.00  0.00    +0.002 C 
ATOM      9  C   UNL     1      -3.425   2.088  23.555  0.00  0.00    +0.022 C 
ATOM     10  C   UNL     1      -3.390   1.645  24.251  0.00  0.00    +0.096 C 
ATOM     20  C   UNL     1      -2.714   1.206  24.425  0.00  0.00    +0.022 C 
ATOM     21  C   UNL     1      -2.680   0.763  25.120  0.00  0.00    +0.002 C 
ATOM     22  C   UNL     1      -2.074   1.209  23.905  0.00  0.00    +0.032 C 
ATOM     23  C   UNL     1      -1.399   0.770  24.081  0.00  0.00    +0.152 C 
ATOM     24  O   UNL     1      -1.363   0.326  24.776  0.00  0.00    -0.223 OA
ENDROOT
BRANCH  10  11
ATOM     11  N   UNL     1      -4.030   1.642  24.770  0.00  0.00    -0.202 NA
ATOM     12  C   UNL     1      -4.617   2.218  24.705  0.00  0.00    +0.282 C 
ATOM     13  O   UNL     1      -4.564   2.798  24.120  0.00  0.00    -0.267 OA
BRANCH  12  14
ATOM     14  C   UNL     1      -5.258   2.215  25.225  0.00  0.00    +0.136 A 
ATOM     15  N   UNL     1      -5.266   2.727  25.872  0.00  0.00    -0.239 NA
ATOM     16  C   UNL     1      -5.907   2.724  26.392  0.00  0.00    +0.099 A 
ATOM     17  C   UNL     1      -6.539   2.208  26.265  0.00  0.00    +0.021 A 
ATOM     18  C   UNL     1      -6.530   1.696  25.617  0.00  0.00    +0.003 A 
ATOM     19  C   UNL     1      -5.890   1.700  25.097  0.00  0.00    +0.024 A 
ENDBRANCH  12  14
ENDBRANCH  10  11
BRANCH   3   2
ATOM      1  C   UNL     1      -0.153  -0.451  23.982  0.00  0.00    +0.010 C 
ATOM      2  C   UNL     1      -0.082   0.333  23.736  0.00  0.00    +0.079 C 
BRANCH   2  25
ATOM     25  C   UNL     1       0.665   0.677  23.667  0.00  0.00    +0.225 C 
ATOM     26  O   UNL     1       0.822   1.399  24.035  0.00  0.00    -0.275 OA
ATOM     27  N   UNL     1       1.254   0.300  23.229  0.00  0.00    -0.277 N 
ATOM     28  C   UNL     1       1.096  -0.422  22.861  0.00  0.00    +0.115 C 
BRANCH  27  29
ATOM     29  C   UNL     1       2.000   0.643  23.160  0.00  0.00    +0.110 C 
BRANCH  29  30
ATOM     30  C   UNL     1       2.586   0.273  22.712  0.00  0.00    +0.127 C 
BRANCH  30  31
ATOM     31  C   UNL     1       3.353   0.575  22.704  0.00  0.00    +0.075 C 
ATOM     32  N   UNL     1       4.121   0.877  22.697  0.00  0.00    -0.196 NA
ENDBRANCH  30  31
ENDBRANCH  29  30
ENDBRANCH  27  29
ENDBRANCH   2  25
ENDBRANCH   3   2
TORSDOF 7
ENDMDL
MODEL 5
REMARK VINA RESULT:     -10.2      3.327      4.909
REMARK  Name = 
REMARK  7 active torsions:
REMARK  status: ('A' for Active; 'I' for Inactive)
REMARK    1  A    between atoms: C_2  and  C_3
REMARK    2  A    between atoms: C_2  and  C_25
REMARK    3  A    between atoms: C_10  and  N_11
REMARK    4  A    between atoms: C_12  and  C_14
REMARK    5  A    between atoms: N_27  and  C_29
REMARK    6  A    between atoms: C_29  and  C_30
REMARK    7  A    between atoms: C_30  and  C_31
REMARK                            x       y       z     vdW  Elec       q    Type
REMARK                         _______ _______ _______ _____ _____    ______ ____
ROOT
ATOM      3  C   UNL     1      -2.581   1.449  24.172  0.00  0.00    +0.039 C 
ATOM      4  C   UNL     1      -2.781   0.706  24.470  0.00  0.00    +0.003 C 
ATOM      5  C   UNL     1      -2.208   0.117  24.527  0.00  0.00    +0.000 C 
ATOM      6  C   UNL     1      -1.433   0.270  24.287  0.00  0.00    +0.002 C 
ATOM      7  C   UNL     1      -1.633  -0.473  24.585  0.00  0.00    +0.000 C 
ATOM      8  C   UNL     1      -0.859  -0.320  24.345  0.00  0.00    +0.002 C 
ATOM      9  C   UNL     1      -0.085  -0.168  24.104  0.00  0.00    +0.022 C 
ATOM     10  C   UNL     1       0.116   0.576  23.806  0.00  0.00    +0.096 C 
ATOM     20  C   UNL     1      -0.458   1.165  23.749  0.00  0.00    +0.022 C 
ATOM     21  C   UNL     1      -0.257   1.907  23.450  0.00  0.00    +0.002 C 
ATOM     22  C   UNL     1      -1.233   1.012  23.989  0.00  0.00    +0.032 C 
ATOM     23  C   UNL     1      -1.806   1.602  23.931  0.00  0.00    +0.152 C 
ATOM     24  O   UNL     1      -1.606   2.345  23.633  0.00  0.00    -0.223 OA
ENDROOT
BRANCH  10  11
ATOM     11  N   UNL     1       0.889   0.728  23.566  0.00  0.00    -0.202 NA
ATOM     12  C   UNL     1       1.301   0.170  23.119  0.00  0.00    +0.282 C 
ATOM     13  O   UNL     1       0.937  -0.542  22.912  0.00  0.00    -0.267 OA
BRANCH  12  14
ATOM     14  C   UNL     1       2.075   0.322  22.878  0.00  0.00    +0.136 A 
ATOM     15  N   UNL     1       2.548   0.839  23.315  0.00  0.00    -0.239 NA
ATOM     16  C   UNL     1       3.322   0.992  23.075  0.00  0.00    +0.099 A 
ATOM     17  C   UNL     1       3.624   0.628  22.398  0.00  0.00    +0.021 A 
ATOM     18  C   UNL     1       3.150   0.112  21.961  0.00  0.00    +0.003 A 
ATOM     19  C   UNL     1       2.376  -0.041  22.201  0.00  0.00    +0.024 A 
ENDBRANCH  12  14
ENDBRANCH  10  11
BRANCH   3   2
ATOM      1  C   UNL     1      -3.318   2.384  23.383  0.00  0.00    +0.010 C 
ATOM      2  C   UNL     1      -3.155   2.039  24.114  0.00  0.00    +0.079 C 
BRANCH   2  25
ATOM     25  C   UNL     1      -3.565   2.284  24.786  0.00  0.00    +0.225 C 
ATOM     26  O   UNL     1      -3.155   2.433  25.487  0.00  0.00    -0.275 OA
ATOM     27  N   UNL     1      -4.384   2.380  24.758  0.00  0.00    -0.277 N 
ATOM     28  C   UNL     1      -4.793   2.230  24.057  0.00  0.00    +0.115 C 
BRANCH  27  29
ATOM     29  C   UNL     1      -4.794   2.625  25.430  0.00  0.00    +0.110 C 
BRANCH  29  30
ATOM     30  C   UNL     1      -5.616   2.561  25.459  0.00  0.00    +0.127 C 
BRANCH  30  31
ATOM     31  C   UNL     1      -5.996   2.444  26.181  0.00  0.00    +0.075 C 
ATOM     32  N   UNL     1      -6.377   2.327  26.904  0.00  0.00    -0.196 NA
ENDBRANCH  30  31
ENDBRANCH  29  30
ENDBRANCH  27  29
ENDBRANCH   2  25
ENDBRANCH   3   2
TORSDOF 7
ENDMDL
MODEL 6
REMARK VINA RESULT:     -10.0      2.861      4.789
REMARK  Name = 
REMARK  7 active torsions:
REMARK  status: ('A' for Active; 'I' for Inactive)
REMARK    1  A    between atoms: C_2  and  C_3
REMARK    2  A    between atoms: C_2  and  C_25
REMARK    3  A    between atoms: C_10  and  N_11
REMARK    4  A    between atoms: C_12  and  C_14
REMARK    5  A    between atoms: N_27  and  C_29
REMARK    6  A    between atoms: C_29  and  C_30
REMARK    7  A    between atoms: C_30  and  C_31
REMARK                            x       y       z     vdW  Elec       q    Type
REMARK                         _______ _______ _______ _____ _____    ______ ____
ROOT
ATOM      3  C   UNL     1      -2.649   3.258  24.980  0.00  0.00    +0.039 C 
ATOM      4  C   UNL     1      -2.275   3.593  25.634  0.00  0.00    +0.003 C 
ATOM      5  C   UNL     1      -1.499   3.383  25.818  0.00  0.00    +0.000 C 
ATOM      6  C   UNL     1      -1.097   2.836  25.347  0.00  0.00    +0.002 C 
ATOM      7  C   UNL     1      -0.722   3.172  26.002  0.00  0.00    +0.000 C 
ATOM      8  C   UNL     1      -0.321   2.626  25.532  0.00  0.00    +0.002 C 
ATOM      9  C   UNL     1       0.081   2.079  25.062  0.00  0.00    +0.022 C 
ATOM     10  C   UNL     1      -0.294   1.743  24.408  0.00  0.00    +0.096 C 
ATOM     20  C   UNL     1      -1.070   1.954  24.224  0.00  0.00    +0.022 C 
ATOM     21  C   UNL     1      -1.444   1.618  23.571  0.00  0.00    +0.002 C 
ATOM     22  C   UNL     1      -1.471   2.500  24.694  0.00  0.00    +0.032 C 
ATOM     23  C   UNL     1      -2.247   2.711  24.510  0.00  0.00    +0.152 C 
ATOM     24  O   UNL     1      -2.622   2.375  23.856  0.00  0.00    -0.223 OA
ENDROOT
BRANCH  10  11
ATOM     11  N   UNL     1       0.107   1.197  23.939  0.00  0.00    -0.202 NA
ATOM     12  C   UNL     1       0.913   1.294  23.789  0.00  0.00    +0.282 C 
ATOM     13  O   UNL     1       1.318   1.939  24.110  0.00  0.00    -0.267 OA
BRANCH  12  14
ATOM     14  C   UNL     1       1.315   0.748  23.319  0.00  0.00    +0.136 A 
ATOM     15  N   UNL     1       0.916   0.090  23.020  0.00  0.00    -0.239 NA
ATOM     16  C   UNL     1       1.318  -0.456  22.550  0.00  0.00    +0.099 A 
ATOM     17  C   UNL     1       2.118  -0.345  22.380  0.00  0.00    +0.021 A 
ATOM     18  C   UNL     1       2.517   0.313  22.680  0.00  0.00    +0.003 A 
ATOM     19  C   UNL     1       2.115   0.860  23.150  0.00  0.00    +0.024 A 
ENDBRANCH  12  14
ENDBRANCH  10  11
BRANCH   3   2
ATOM      1  C   UNL     1      -3.604   3.767  24.048  0.00  0.00    +0.010 C 
ATOM      2  C   UNL     1      -3.425   3.468  24.796  0.00  0.00    +0.079 C 
BRANCH   2  25
ATOM     25  C   UNL     1      -4.022   3.379  25.358  0.00  0.00    +0.225 C 
ATOM     26  O   UNL     1      -3.923   3.688  26.117  0.00  0.00    -0.275 OA
ATOM     27  N   UNL     1      -4.719   2.983  25.162  0.00  0.00    -0.277 N 
ATOM     28  C   UNL     1      -4.818   2.675  24.403  0.00  0.00    +0.115 C 
BRANCH  27  29
ATOM     29  C   UNL     1      -5.315   2.894  25.724  0.00  0.00    +0.110 C 
BRANCH  29  30
ATOM     30  C   UNL     1      -5.854   2.273  25.660  0.00  0.00    +0.127 C 
BRANCH  30  31
ATOM     31  C   UNL     1      -6.292   2.036  26.317  0.00  0.00    +0.075 C 
ATOM     32  N   UNL     1      -6.730   1.800  26.976  0.00  0.00    -0.196 NA
ENDBRANCH  30  31
ENDBRANCH  29  30
ENDBRANCH  27  29
ENDBRANCH   2  25
ENDBRANCH   3   2
TORSDOF 7
ENDMDL
MODEL 7
REMARK VINA RESULT:      -9.9      2.325      3.866
REMARK  Name = 
REMARK  7 active torsions:
REMARK  status: ('A' for Active; 'I' for Inactive)
REMARK    1  A    between atoms: C_2  and  C_3
REMARK    2  A    between atoms: C_2  and  C_25
REMARK    3  A    between atoms: C_10  and  N_11
REMARK    4  A    between atoms: C_12  and  C_14
REMARK    5  A    between atoms: N_27  and  C_29
REMARK    6  A    between atoms: C_29  and  C_30
REMARK    7  A    between atoms: C_30  and  C_31
REMARK                            x       y       z     vdW  Elec       q    Type
REMARK                         _______ _______ _______ _____ _____    ______ ____
ROOT
ATOM      3  C   UNL     1      -1.790  -1.101  24.646  0.00  0.00    +0.039 C 
ATOM      4  C   UNL     1      -2.285  -1.697  24.362  0.00  0.00    +0.003 C 
ATOM      5  C   UNL     1      -3.100  -1.579  24.338  0.00  0.00    +0.000 C 
ATOM      6  C   UNL     1      -3.422  -0.864  24.598  0.00  0.00    +0.002 C 
ATOM      7  C   UNL     1      -3.917  -1.461  24.314  0.00  0.00    +0.000 C 
ATOM      8  C   UNL     1      -4.238  -0.747  24.574  0.00  0.00    +0.002 C 
ATOM      9  C   UNL     1      -4.560  -0.033  24.833  0.00  0.00    +0.022 C 
ATOM     10  C   UNL     1      -4.065   0.564  25.117  0.00  0.00    +0.096 C 
ATOM     20  C   UNL     1      -3.249   0.446  25.141  0.00  0.00    +0.022 C 
ATOM     21  C   UNL     1      -2.755   1.042  25.425  0.00  0.00    +0.002 C 
ATOM     22  C   UNL     1      -2.927  -0.268  24.881  0.00  0.00    +0.032 C 
ATOM     23  C   UNL     1      -2.112  -0.386  24.906  0.00  0.00    +0.152 C 
ATOM     24  O   UNL     1      -1.616   0.210  25.189  0.00  0.00    -0.223 OA
ENDROOT
BRANCH  10  11
ATOM     11  N   UNL     1      -4.386   1.277  25.377  0.00  0.00    -0.202 NA
ATOM     12  C   UNL     1      -4.844   1.735  24.864  0.00  0.00    +0.282 C 
ATOM     13  O   UNL     1      -4.979   1.478  24.091  0.00  0.00    -0.267 OA
BRANCH  12  14
ATOM     14  C   UNL     1      -5.165   2.449  25.124  0.00  0.00    +0.136 A 
ATOM     15  N   UNL     1      -4.774   3.158  24.967  0.00  0.00    -0.239 NA
ATOM     16  C   UNL     1      -5.095   3.872  25.226  0.00  0.00    +0.099 A 
ATOM     17  C   UNL     1      -5.808   3.877  25.643  0.00  0.00    +0.021 A 
ATOM     18  C   UNL     1      -6.199   3.167  25.800  0.00  0.00    +0.003 A 
ATOM     19  C   UNL     1      -5.877   2.453  25.540  0.00  0.00    +0.024 A 
ENDBRANCH  12  14
ENDBRANCH  10  11
BRANCH   3   2
ATOM      1  C   UNL     1      -0.601  -1.372  25.390  0.00  0.00    +0.010 C 
ATOM      2  C   UNL     1      -0.974  -1.218  24.670  0.00  0.00    +0.079 C 
BRANCH   2  25
ATOM     25  C   UNL     1      -0.530  -1.182  23.976  0.00  0.00    +0.225 C 
ATOM     26  O   UNL     1      -0.757  -1.627  23.318  0.00  0.00    -0.275 OA
ATOM     27  N   UNL     1       0.140  -0.702  23.938  0.00  0.00    -0.277 N 
ATOM     28  C   UNL     1       0.366  -0.258  24.595  0.00  0.00    +0.115 C 
BRANCH  27  29
ATOM     29  C   UNL     1       0.583  -0.666  23.244  0.00  0.00    +0.110 C 
BRANCH  29  30
ATOM     30  C   UNL     1       1.105  -0.040  23.119  0.00  0.00    +0.127 C 
BRANCH  30  31
ATOM     31  C   UNL     1       1.665  -0.083  22.515  0.00  0.00    +0.075 C 
ATOM     32  N   UNL     1       2.226  -0.126  21.911  0.00  0.00    -0.196 NA
ENDBRANCH  30  31
ENDBRANCH  29  30
ENDBRANCH  27  29
ENDBRANCH   2  25
ENDBRANCH   3   2
TORSDOF 7
ENDMDL
MODEL 8
REMARK VINA RESULT:      -9.8      2.206      3.326
REMARK  Name = 
REMARK  7 active torsions:
REMARK  status: ('A' for Active; 'I' for Inactive)
REMARK    1  A    between atoms: C_2  and  C_3
REMARK    2  A    between atoms: C_2  and  C_25
REMARK    3  A    between atoms: C_10  and  N_11
REMARK    4  A    between atoms: C_12  and  C_14
REMARK    5  A    between atoms: N_27  and  C_29
REMARK    6  A    between atoms: C_29  and  C_30
REMARK    7  A    between atoms: C_30  and  C_31
REMARK                            x       y       z     vdW  Elec       q    Type
REMARK                         _______ _______ _______ _____ _____    ______ ____
ROOT
ATOM      3  C   UNL     1      -0.685  -0.866  24.708  0.00  0.00    +0.039 C 
ATOM      4  C   UNL     1      -0.127  -0.926  24.104  0.00  0.00    +0.003 C 
ATOM      5  C   UNL     1       0.213  -0.245  23.788  0.00  0.00    +0.000 C 
ATOM      6  C   UNL     1      -0.005   0.498  24.076  0.00  0.00    +0.002 C 
ATOM      7  C   UNL     1       0.554   0.438  23.472  0.00  0.00    +0.000 C 
ATOM      8  C   UNL     1       0.336   1.179  23.760  0.00  0.00    +0.002 C 
ATOM      9  C   UNL     1       0.118   1.921  24.048  0.00  0.00    +0.022 C 
ATOM     10  C   UNL     1      -0.441   1.982  24.652  0.00  0.00    +0.096 C 
ATOM     20  C   UNL     1      -0.781   1.300  24.968  0.00  0.00    +0.022 C 
ATOM     21  C   UNL     1      -1.339   1.360  25.572  0.00  0.00    +0.002 C 
ATOM     22  C   UNL     1      -0.563   0.558  24.680  0.00  0.00    +0.032 C 
ATOM     23  C   UNL     1      -0.903  -0.123  24.996  0.00  0.00    +0.152 C 
ATOM     24  O   UNL     1      -1.462  -0.064  25.600  0.00  0.00    -0.223 OA
ENDROOT
BRANCH  10  11
ATOM     11  N   UNL     1      -0.658   2.722  24.940  0.00  0.00    -0.202 NA
ATOM     12  C   UNL     1      -0.977   3.287  24.429  0.00  0.00    +0.282 C 
ATOM     13  O   UNL     1      -1.078   3.108  23.629  0.00  0.00    -0.267 OA
BRANCH  12  14
ATOM     14  C   UNL     1      -1.195   4.028  24.717  0.00  0.00    +0.136 A 
ATOM     15  N   UNL     1      -1.942   4.138  25.049  0.00  0.00    -0.239 NA
ATOM     16  C   UNL     1      -2.160   4.880  25.337  0.00  0.00    +0.099 A 
ATOM     17  C   UNL     1      -1.631   5.512  25.293  0.00  0.00    +0.021 A 
ATOM     18  C   UNL     1      -0.883   5.402  24.959  0.00  0.00    +0.003 A 
ATOM     19  C   UNL     1      -0.666   4.660  24.671  0.00  0.00    +0.024 A 
ENDBRANCH  12  14
ENDBRANCH  10  11
BRANCH   3   2
ATOM      1  C   UNL     1      -0.838  -1.783  25.792  0.00  0.00    +0.010 C 
ATOM      2  C   UNL     1      -1.026  -1.547  25.024  0.00  0.00    +0.079 C 
BRANCH   2  25
ATOM     25  C   UNL     1      -1.555  -1.992  24.574  0.00  0.00    +0.225 C 
ATOM     26  O   UNL     1      -1.361  -2.204  23.800  0.00  0.00    -0.275 OA
ATOM     27  N   UNL     1      -2.277  -2.225  24.897  0.00  0.00    -0.277 N 
ATOM     28  C   UNL     1      -2.471  -2.013  25.670  0.00  0.00    +0.115 C 
BRANCH  27  29
ATOM     29  C   UNL     1      -2.806  -2.670  24.447  0.00  0.00    +0.110 C 
BRANCH  29  30
ATOM     30  C   UNL     1      -3.609  -2.673  24.635  0.00  0.00    +0.127 C 
BRANCH  30  31
ATOM     31  C   UNL     1      -4.174  -2.674  24.035  0.00  0.00    +0.075 C 
ATOM     32  N   UNL     1      -4.741  -2.676  23.434  0.00  0.00    -0.196 NA
ENDBRANCH  30  31
ENDBRANCH  29  30
ENDBRANCH  27  29
ENDBRANCH   2  25
ENDBRANCH   3   2
TORSDOF 7
ENDMDL
