REMARK  Name = 
REMARK  8 active torsions:
REMARK  status: ('A' for Active; 'I' for Inactive)
REMARK    1  A    between atoms: O_2  and  C_3
REMARK    2  A    between atoms: C_3  and  C_4
REMARK    3  A    between atoms: C_4  and  C_5
REMARK    4  A    between atoms: N_7  and  C_8
REMARK    5  A    between atoms: C_8  and  C_9
REMARK    6  A    between atoms: C_13  and  C_14
REMARK    7  A    between atoms: C_14  and  C_15
REMARK    8  A    between atoms: C_19  and  C_20
REMARK                            x       y       z     vdW  Elec       q    Type
REMARK                         _______ _______ _______ _____ _____    ______ ____
ROOT
ATOM      9  C   UNL     1       5.716  -4.125   0.000  0.00  0.00    +0.043 C 
ATOM     10  C   UNL     1       6.430  -3.712   0.000  0.00  0.00    -0.033 C 
ATOM     11  C   UNL     1       7.145  -4.125   0.000  0.00  0.00    -0.048 C 
ATOM     12  C   UNL     1       7.859  -3.712   0.000  0.00  0.00    +0.026 C 
ATOM     13  C   UNL     1       7.145  -4.950   0.000  0.00  0.00    +0.029 C 
ATOM     18  C   UNL     1       6.430  -5.362   0.000  0.00  0.00    +0.005 C 
ATOM     19  C   UNL     1       5.716  -4.950   0.000  0.00  0.00    +0.006 C 
ENDROOT
BRANCH  19  20
ATOM     20  C   UNL     1       5.001  -5.362   0.000  0.00  0.00    +0.000 C 
ATOM     21  C   UNL     1       4.287  -4.950   0.000  0.00  0.00    +0.000 C 
ATOM     22  C   UNL     1       5.001  -6.188   0.000  0.00  0.00    +0.000 C 
ENDBRANCH  19  20
BRANCH   9   8
ATOM      8  C   UNL     1       5.001  -3.712   0.000  0.00  0.00    +0.119 C 
BRANCH   8   7
ATOM      5  C   UNL     1       3.572  -3.712   0.000  0.00  0.00    +0.244 C 
ATOM      6  O   UNL     1       3.572  -2.888   0.000  0.00  0.00    -0.273 OA
ATOM      7  N   UNL     1       4.287  -4.125   0.000  0.00  0.00    -0.205 NA
BRANCH   5   4
ATOM      4  C   UNL     1       2.858  -4.125   0.000  0.00  0.00    +0.119 C 
BRANCH   4   3
ATOM      3  C   UNL     1       2.143  -3.712   0.000  0.00  0.00    +0.152 C 
BRANCH   3   2
ATOM      1  C   UNL     1       0.715  -3.712   0.000  0.00  0.00    +0.174 C 
ATOM      2  O   UNL     1       1.429  -4.125   0.000  0.00  0.00    -0.351 OA
ENDBRANCH   3   2
ENDBRANCH   4   3
ENDBRANCH   5   4
ENDBRANCH   8   7
ENDBRANCH   9   8
BRANCH  13  14
ATOM     14  C   UNL     1       7.859  -5.362   0.000  0.00  0.00    +0.118 C 
BRANCH  14  15
ATOM     15  C   UNL     1       7.859  -6.188   0.000  0.00  0.00    +0.365 C 
ATOM     16  O   UNL     1       8.574  -6.600   0.000  0.00  0.00    -0.246 OA
ATOM     17  O   UNL     1       7.145  -6.600   0.000  0.00  0.00    -0.246 OA
ENDBRANCH  14  15
ENDBRANCH  13  14
TORSDOF 8
