MODEL 1
REMARK VINA RESULT:      -9.5      0.000      0.000
REMARK  Name = 
REMARK  8 active torsions:
REMARK  status: ('A' for Active; 'I' for Inactive)
REMARK    1  A    between atoms: N_2  and  C_4
REMARK    2  A    between atoms: C_8  and  O_9
REMARK    3  A    between atoms: O_9  and  C_10
REMARK    4  A    between atoms: N_14  and  C_15
REMARK    5  A    between atoms: C_19  and  N_23
REMARK    6  A    between atoms: C_24  and  C_26
REMARK    7  A    between atoms: C_26  and  C_27
REMARK    8  A    between atoms: C_27  and  C_28
REMARK                            x       y       z     vdW  Elec       q    Type
REMARK                         _______ _______ _______ _____ _____    ______ ____
ROOT
ATOM     15  C   UNL     1      -0.412   1.278  24.937  0.00  0.00    +0.170 C 
ATOM     16  C   UNL     1      -0.390   1.137  24.125  0.00  0.00    +0.169 C 
ATOM     17  O   UNL     1      -0.780   0.424  23.980  0.00  0.00    -0.350 OA
ATOM     18  C   UNL     1      -1.043   0.125  24.702  0.00  0.00    +0.167 C 
ATOM     19  C   UNL     1      -1.445  -0.500  25.059  0.00  0.00    +0.154 C 
ATOM     20  C   UNL     1      -1.467  -0.358  25.872  0.00  0.00    +0.166 C 
ATOM     21  O   UNL     1      -1.077   0.354  26.017  0.00  0.00    -0.350 OA
ATOM     22  C   UNL     1      -0.815   0.653  25.294  0.00  0.00    +0.169 C 
ENDROOT
BRANCH  15  14
ATOM     10  C   UNL     1      -0.336   2.713  25.247  0.00  0.00    +0.343 A 
ATOM     11  N   UNL     1       0.140   3.181  25.731  0.00  0.00    -0.071 NA
ATOM     12  N   UNL     1       0.683   2.687  26.109  0.00  0.00    -0.020 NA
ATOM     13  N   UNL     1       0.542   1.915  25.857  0.00  0.00    -0.040 NA
ATOM     14  N   UNL     1      -0.088   1.931  25.325  0.00  0.00    -0.180 N 
BRANCH  10   9
ATOM      9  O   UNL     1      -0.953   2.982  24.768  0.00  0.00    -0.421 OA
BRANCH   9   8
ATOM      4  C   UNL     1      -2.593   4.181  25.566  0.00  0.00    +0.051 A 
ATOM      5  C   UNL     1      -2.294   4.943  25.461  0.00  0.00    +0.015 A 
ATOM      6  C   UNL     1      -1.548   5.051  25.125  0.00  0.00    +0.004 A 
ATOM      7  C   UNL     1      -1.101   4.397  24.894  0.00  0.00    +0.038 A 
ATOM      8  C   UNL     1      -1.400   3.636  24.999  0.00  0.00    +0.150 A 
ATOM     31  C   UNL     1      -2.146   3.527  25.335  0.00  0.00    +0.052 A 
BRANCH   4   2
ATOM      1  C   UNL     1      -3.447   4.189  26.711  0.00  0.00    +0.112 C 
ATOM      2  N   UNL     1      -3.339   4.073  25.901  0.00  0.00    -0.304 N 
ATOM      3  C   UNL     1      -3.976   3.848  25.428  0.00  0.00    +0.112 C 
ENDBRANCH   4   2
ENDBRANCH   9   8
ENDBRANCH  10   9
ENDBRANCH  15  14
BRANCH  19  23
ATOM     23  N   UNL     1      -1.770  -1.152  24.671  0.00  0.00    -0.202 NA
ATOM     24  C   UNL     1      -2.482  -1.475  24.934  0.00  0.00    +0.242 C 
ATOM     25  O   UNL     1      -2.870  -1.146  25.584  0.00  0.00    -0.273 OA
BRANCH  24  26
ATOM     26  C   UNL     1      -2.806  -2.127  24.547  0.00  0.00    +0.099 C 
BRANCH  26  27
ATOM     27  C   UNL     1      -3.618  -2.270  24.588  0.00  0.00    +0.124 C 
BRANCH  27  28
ATOM     28  C   UNL     1      -3.968  -2.811  24.074  0.00  0.00    +0.365 C 
ATOM     29  O   UNL     1      -3.779  -3.613  24.129  0.00  0.00    -0.246 OA
ATOM     30  O   UNL     1      -4.507  -2.553  23.505  0.00  0.00    -0.246 OA
ENDBRANCH  27  28
ENDBRANCH  26  27
ENDBRANCH  24  26
ENDBRANCH  19  23
TORSDOF 8
ENDMDL
MODEL 2
REMARK VINA RESULT:      -8.7      1.745      3.130
REMARK  Name = 
REMARK  8 active torsions:
REMARK  status: ('A' for Active; 'I' for Inactive)
REMARK    1  A    between atoms: N_2  and  C_4
REMARK    2  A    between atoms: C_8  and  O_9
REMARK    3  A    between atoms: O_9  and  C_10
REMARK    4  A    between atoms: N_14  and  C_15
REMARK    5  A    between atoms: C_19  and  N_23
REMARK    6  A    between atoms: C_24  and  C_26
REMARK    7  A    between atoms: C_26  and  C_27
REMARK    8  A    between atoms: C_27  and  C_28
REMARK                            x       y       z     vdW  Elec       q    Type
REMARK                         _______ _______ _______ _____ _____    ______ ____
ROOT
ATOM     15  C   UNL     1      -4.247   2.484  24.655  0.00  0.00    +0.170 C 
ATOM     16  C   UNL     1      -4.677   2.257  25.321  0.00  0.00    +0.169 C 
ATOM     17  O   UNL     1      -4.718   1.433  25.328  0.00  0.00    -0.350 OA
ATOM     18  C   UNL     1      -4.313   1.151  24.667  0.00  0.00    +0.167 C 
ATOM     19  C   UNL     1      -4.088   0.468  24.264  0.00  0.00    +0.154 C 
ATOM     20  C   UNL     1      -3.657   0.696  23.597  0.00  0.00    +0.166 C 
ATOM     21  O   UNL     1      -3.616   1.520  23.590  0.00  0.00    -0.350 OA
ATOM     22  C   UNL     1      -4.022   1.801  24.252  0.00  0.00    +0.169 C 
ENDROOT
BRANCH  15  14
ATOM     10  C   UNL     1      -3.493   3.741  24.769  0.00  0.00    +0.343 A 
ATOM     11  N   UNL     1      -3.509   4.468  24.379  0.00  0.00    -0.071 NA
ATOM     12  N   UNL     1      -4.097   4.436  23.802  0.00  0.00    -0.020 NA
ATOM     13  N   UNL     1      -4.445   3.688  23.835  0.00  0.00    -0.040 NA
ATOM     14  N   UNL     1      -4.072   3.260  24.433  0.00  0.00    -0.180 N 
BRANCH  10   9
ATOM      9  O   UNL     1      -2.987   3.533  25.387  0.00  0.00    -0.421 OA
BRANCH   9   8
ATOM      4  C   UNL     1      -0.810   3.376  25.349  0.00  0.00    +0.051 A 
ATOM      5  C   UNL     1      -0.597   4.171  25.298  0.00  0.00    +0.015 A 
ATOM      6  C   UNL     1      -1.181   4.754  25.276  0.00  0.00    +0.004 A 
ATOM      7  C   UNL     1      -1.977   4.541  25.306  0.00  0.00    +0.038 A 
ATOM      8  C   UNL     1      -2.190   3.746  25.357  0.00  0.00    +0.150 A 
ATOM     31  C   UNL     1      -1.607   3.163  25.379  0.00  0.00    +0.052 A 
BRANCH   4   2
ATOM      1  C   UNL     1       0.103   2.567  26.093  0.00  0.00    +0.112 C 
ATOM      2  N   UNL     1      -0.227   2.793  25.371  0.00  0.00    -0.304 N 
ATOM      3  C   UNL     1       0.027   2.436  24.672  0.00  0.00    +0.112 C 
ENDBRANCH   4   2
ENDBRANCH   9   8
ENDBRANCH  10   9
ENDBRANCH  15  14
BRANCH  19  23
ATOM     23  N   UNL     1      -4.263  -0.307  24.486  0.00  0.00    -0.202 NA
ATOM     24  C   UNL     1      -3.716  -0.909  24.348  0.00  0.00    +0.242 C 
ATOM     25  O   UNL     1      -2.994  -0.736  23.987  0.00  0.00    -0.273 OA
BRANCH  24  26
ATOM     26  C   UNL     1      -3.891  -1.683  24.571  0.00  0.00    +0.099 C 
BRANCH  26  27
ATOM     27  C   UNL     1      -3.319  -2.273  24.495  0.00  0.00    +0.124 C 
BRANCH  27  28
ATOM     28  C   UNL     1      -3.478  -3.038  24.759  0.00  0.00    +0.365 C 
ATOM     29  O   UNL     1      -3.760  -3.607  24.230  0.00  0.00    -0.246 OA
ATOM     30  O   UNL     1      -3.357  -3.236  25.550  0.00  0.00    -0.246 OA
ENDBRANCH  27  28
ENDBRANCH  26  27
ENDBRANCH  24  26
ENDBRANCH  19  23
TORSDOF 8
ENDMDL
MODEL 3
REMARK VINA RESULT:      -8.6      2.015      5.020
REMARK  Name = 
REMARK  8 active torsions:
REMARK  status: ('A' for Active; 'I' for Inactive)
REMARK    1  A    between atoms: N_2  and  C_4
REMARK    2  A    between atoms: C_8  and  O_9
REMARK    3  A    between atoms: O_9  and  C_10
REMARK    4  A    between atoms: N_14  and  C_15
REMARK    5  A    between atoms: C_19  and  N_23
REMARK    6  A    between atoms: C_24  and  C_26
REMARK    7  A    between atoms: C_26  and  C_27
REMARK    8  A    between atoms: C_27  and  C_28
REMARK                            x       y       z     vdW  Elec       q    Type
REMARK                         _______ _______ _______ _____ _____    ______ ____
ROOT
ATOM     15  C   UNL     1      -1.066   1.178  24.565  0.00  0.00    +0.170 C 
ATOM     16  C   UNL     1      -1.023   1.468  25.335  0.00  0.00    +0.169 C 
ATOM     17  O   UNL     1      -1.621   2.031  25.428  0.00  0.00    -0.350 OA
ATOM     18  C   UNL     1      -2.031   2.087  24.715  0.00  0.00    +0.167 C 
ATOM     19  C   UNL     1      -2.653   2.469  24.332  0.00  0.00    +0.154 C 
ATOM     20  C   UNL     1      -2.696   2.178  23.561  0.00  0.00    +0.166 C 
ATOM     21  O   UNL     1      -2.099   1.616  23.468  0.00  0.00    -0.350 OA
ATOM     22  C   UNL     1      -1.688   1.560  24.182  0.00  0.00    +0.169 C 
ENDROOT
BRANCH  15  14
ATOM     10  C   UNL     1      -0.566  -0.198  24.427  0.00  0.00    +0.343 A 
ATOM     11  N   UNL     1       0.012  -0.565  23.967  0.00  0.00    -0.071 NA
ATOM     12  N   UNL     1       0.363   0.010  23.491  0.00  0.00    -0.020 NA
ATOM     13  N   UNL     1       0.002   0.733  23.657  0.00  0.00    -0.040 NA
ATOM     14  N   UNL     1      -0.572   0.604  24.235  0.00  0.00    -0.180 N 
BRANCH  10   9
ATOM      9  O   UNL     1      -1.052  -0.568  24.981  0.00  0.00    -0.421 OA
BRANCH   9   8
ATOM      4  C   UNL     1      -2.518  -2.113  24.500  0.00  0.00    +0.051 A 
ATOM      5  C   UNL     1      -2.037  -2.783  24.480  0.00  0.00    +0.015 A 
ATOM      6  C   UNL     1      -1.228  -2.715  24.628  0.00  0.00    +0.004 A 
ATOM      7  C   UNL     1      -0.900  -1.977  24.795  0.00  0.00    +0.038 A 
ATOM      8  C   UNL     1      -1.380  -1.307  24.814  0.00  0.00    +0.150 A 
ATOM     31  C   UNL     1      -2.189  -1.374  24.667  0.00  0.00    +0.052 A 
BRANCH   4   2
ATOM      1  C   UNL     1      -3.679  -2.926  24.321  0.00  0.00    +0.112 C 
ATOM      2  N   UNL     1      -3.327  -2.180  24.353  0.00  0.00    -0.304 N 
ATOM      3  C   UNL     1      -3.783  -1.503  24.237  0.00  0.00    +0.112 C 
ENDBRANCH   4   2
ENDBRANCH   9   8
ENDBRANCH  10   9
ENDBRANCH  15  14
BRANCH  19  23
ATOM     23  N   UNL     1      -3.147   3.043  24.662  0.00  0.00    -0.202 NA
ATOM     24  C   UNL     1      -3.966   2.961  24.607  0.00  0.00    +0.242 C 
ATOM     25  O   UNL     1      -4.292   2.307  24.224  0.00  0.00    -0.273 OA
BRANCH  24  26
ATOM     26  C   UNL     1      -4.460   3.534  24.937  0.00  0.00    +0.099 C 
BRANCH  26  27
ATOM     27  C   UNL     1      -5.238   3.343  25.136  0.00  0.00    +0.124 C 
BRANCH  27  28
ATOM     28  C   UNL     1      -5.616   3.745  25.749  0.00  0.00    +0.365 C 
ATOM     29  O   UNL     1      -5.725   3.374  26.479  0.00  0.00    -0.246 OA
ATOM     30  O   UNL     1      -5.886   4.516  25.633  0.00  0.00    -0.246 OA
ENDBRANCH  27  28
ENDBRANCH  26  27
ENDBRANCH  24  26
ENDBRANCH  19  23
TORSDOF 8
ENDMDL
MODEL 4
REMARK VINA RESULT:      -8.3      2.262      4.117
REMARK  Name = 
REMARK  8 active torsions:
REMARK  status: ('A' for Active; 'I' for Inactive)
REMARK    1  A    between atoms: N_2  and  C_4
REMARK    2  A    between atoms: C_8  and  O_9
REMARK    3  A    between atoms: O_9  and  C_10
REMARK    4  A    between atoms: N_14  and  C_15
REMARK    5  A    between atoms: C_19  and  N_23
REMARK    6  A    between atoms: C_24  and  C_26
REMARK    7  A    between atoms: C_26  and  C_27
REMARK    8  A    between atoms: C_27  and  C_28
REMARK                            x       y       z     vdW  Elec       q    Type
REMARK                         _______ _______ _______ _____ _____    ______ ____
ROOT
ATOM     15  C   UNL     1      -1.743   3.227  24.867  0.00  0.00    +0.170 C 
ATOM     16  C   UNL     1      -1.543   3.548  24.135  0.00  0.00    +0.169 C 
ATOM     17  O   UNL     1      -0.862   3.165  23.867  0.00  0.00    -0.350 OA
ATOM     18  C   UNL     1      -0.642   2.608  24.434  0.00  0.00    +0.167 C 
ATOM     19  C   UNL     1      -0.087   2.028  24.620  0.00  0.00    +0.154 C 
ATOM     20  C   UNL     1      -0.288   1.707  25.353  0.00  0.00    +0.166 C 
ATOM     21  O   UNL     1      -0.968   2.089  25.621  0.00  0.00    -0.350 OA
ATOM     22  C   UNL     1      -1.187   2.647  25.053  0.00  0.00    +0.169 C 
ENDROOT
BRANCH  15  14
ATOM     10  C   UNL     1      -3.177   3.258  25.190  0.00  0.00    +0.343 A 
ATOM     11  N   UNL     1      -3.632   3.590  25.792  0.00  0.00    -0.071 NA
ATOM     12  N   UNL     1      -3.124   3.986  26.308  0.00  0.00    -0.020 NA
ATOM     13  N   UNL     1      -2.355   3.898  26.024  0.00  0.00    -0.040 NA
ATOM     14  N   UNL     1      -2.387   3.448  25.334  0.00  0.00    -0.180 N 
BRANCH  10   9
ATOM      9  O   UNL     1      -3.462   2.813  24.556  0.00  0.00    -0.421 OA
BRANCH   9   8
ATOM      4  C   UNL     1      -4.537   0.932  24.822  0.00  0.00    +0.051 A 
ATOM      5  C   UNL     1      -5.311   1.205  24.902  0.00  0.00    +0.015 A 
ATOM      6  C   UNL     1      -5.469   2.015  24.866  0.00  0.00    +0.004 A 
ATOM      7  C   UNL     1      -4.853   2.550  24.751  0.00  0.00    +0.038 A 
ATOM      8  C   UNL     1      -4.079   2.277  24.671  0.00  0.00    +0.150 A 
ATOM     31  C   UNL     1      -3.920   1.469  24.707  0.00  0.00    +0.052 A 
BRANCH   4   2
ATOM      1  C   UNL     1      -4.472  -0.345  24.185  0.00  0.00    +0.112 C 
ATOM      2  N   UNL     1      -4.378   0.124  24.858  0.00  0.00    -0.304 N 
ATOM      3  C   UNL     1      -4.126  -0.217  25.566  0.00  0.00    +0.112 C 
ENDBRANCH   4   2
ENDBRANCH   9   8
ENDBRANCH  10   9
ENDBRANCH  15  14
BRANCH  19  23
ATOM     23  N   UNL     1       0.558   1.807  24.153  0.00  0.00    -0.202 NA
ATOM     24  C   UNL     1       0.641   1.023  23.911  0.00  0.00    +0.242 C 
ATOM     25  O   UNL     1       0.081   0.460  24.135  0.00  0.00    -0.273 OA
BRANCH  24  26
ATOM     26  C   UNL     1       1.285   0.802  23.446  0.00  0.00    +0.099 C 
BRANCH  26  27
ATOM     27  C   UNL     1       1.250   0.112  22.993  0.00  0.00    +0.124 C 
BRANCH  27  28
ATOM     28  C   UNL     1       1.839  -0.047  22.439  0.00  0.00    +0.365 C 
ATOM     29  O   UNL     1       1.633  -0.280  21.674  0.00  0.00    -0.246 OA
ATOM     30  O   UNL     1       2.634   0.025  22.649  0.00  0.00    -0.246 OA
ENDBRANCH  27  28
ENDBRANCH  26  27
ENDBRANCH  24  26
ENDBRANCH  19  23
TORSDOF 8
ENDMDL
MODEL 5
REMARK VINA RESULT:      -8.3      2.673      4.556
REMARK  Name = 
REMARK  8 active torsions:
REMARK  status: ('A' for Active; 'I' for Inactive)
REMARK    1  A    between atoms: N_2  and  C_4
REMARK    2  A    between atoms: C_8  and  O_9
REMARK    3  A    between atoms: O_9  and  C_10
REMARK    4  A    between atoms: N_14  and  C_15
REMARK    5  A    between atoms: C_19  and  N_23
REMARK    6  A    between atoms: C_24  and  C_26
REMARK    7  A    between atoms: C_26  and  C_27
REMARK    8  A    between atoms: C_27  and  C_28
REMARK                            x       y       z     vdW  Elec       q    Type
REMARK                         _______ _______ _______ _____ _____    ______ ____
ROOT
ATOM     15  C   UNL     1      -0.563   0.831  24.350  0.00  0.00    +0.170 C 
ATOM     16  C   UNL     1      -0.171   1.396  24.804  0.00  0.00    +0.169 C 
ATOM     17  O   UNL     1       0.602   1.459  24.520  0.00  0.00    -0.350 OA
ATOM     18  C   UNL     1       0.686   0.933  23.891  0.00  0.00    +0.167 C 
ATOM     19  C   UNL     1       1.215   0.647  23.327  0.00  0.00    +0.154 C 
ATOM     20  C   UNL     1       0.822   0.081  22.872  0.00  0.00    +0.166 C 
ATOM     21  O   UNL     1       0.050   0.018  23.156  0.00  0.00    -0.350 OA
ATOM     22  C   UNL     1      -0.034   0.545  23.786  0.00  0.00    +0.169 C 
ENDROOT
BRANCH  15  14
ATOM     10  C   UNL     1      -2.014   1.069  24.338  0.00  0.00    +0.343 A 
ATOM     11  N   UNL     1      -2.681   0.609  24.489  0.00  0.00    -0.071 NA
ATOM     12  N   UNL     1      -2.429  -0.151  24.688  0.00  0.00    -0.020 NA
ATOM     13  N   UNL     1      -1.604  -0.160  24.660  0.00  0.00    -0.040 NA
ATOM     14  N   UNL     1      -1.348   0.593  24.444  0.00  0.00    -0.180 N 
BRANCH  10   9
ATOM      9  O   UNL     1      -2.013   1.865  24.120  0.00  0.00    -0.421 OA
BRANCH   9   8
ATOM      4  C   UNL     1      -3.736   3.078  24.691  0.00  0.00    +0.051 A 
ATOM      5  C   UNL     1      -4.146   3.112  23.976  0.00  0.00    +0.015 A 
ATOM      6  C   UNL     1      -3.844   2.731  23.309  0.00  0.00    +0.004 A 
ATOM      7  C   UNL     1      -3.134   2.315  23.357  0.00  0.00    +0.038 A 
ATOM      8  C   UNL     1      -2.724   2.281  24.072  0.00  0.00    +0.150 A 
ATOM     31  C   UNL     1      -3.024   2.662  24.739  0.00  0.00    +0.052 A 
BRANCH   4   2
ATOM      1  C   UNL     1      -3.554   3.967  25.794  0.00  0.00    +0.112 C 
ATOM      2  N   UNL     1      -4.036   3.459  25.358  0.00  0.00    -0.304 N 
ATOM      3  C   UNL     1      -4.818   3.332  25.589  0.00  0.00    +0.112 C 
ENDBRANCH   4   2
ENDBRANCH   9   8
ENDBRANCH  10   9
ENDBRANCH  15  14
BRANCH  19  23
ATOM     23  N   UNL     1       2.000   0.884  23.233  0.00  0.00    -0.202 NA
ATOM     24  C   UNL     1       2.549   0.368  22.897  0.00  0.00    +0.242 C 
ATOM     25  O   UNL     1       2.314  -0.385  22.655  0.00  0.00    -0.273 OA
BRANCH  24  26
ATOM     26  C   UNL     1       3.333   0.606  22.803  0.00  0.00    +0.099 C 
BRANCH  26  27
ATOM     27  C   UNL     1       3.938   0.187  23.177  0.00  0.00    +0.124 C 
BRANCH  27  28
ATOM     28  C   UNL     1       4.719   0.447  23.116  0.00  0.00    +0.365 C 
ATOM     29  O   UNL     1       5.065   0.864  23.739  0.00  0.00    -0.246 OA
ATOM     30  O   UNL     1       5.153   0.291  22.432  0.00  0.00    -0.246 OA
ENDBRANCH  27  28
ENDBRANCH  26  27
ENDBRANCH  24  26
ENDBRANCH  19  23
TORSDOF 8
ENDMDL
MODEL 6
REMARK VINA RESULT:      -8.2      2.213      4.220
REMARK  Name = 
REMARK  8 active torsions:
REMARK  status: ('A' for Active; 'I' for Inactive)
REMARK    1  A    between atoms: N_2  and  C_4
REMARK    2  A    between atoms: C_8  and  O_9
REMARK    3  A    between atoms: O_9  and  C_10
REMARK    4  A    between atoms: N_14  and  C_15
REMARK    5  A    between atoms: C_19  and  N_23
REMARK    6  A    between atoms: C_24  and  C_26
REMARK    7  A    between atoms: C_26  and  C_27
REMARK    8  A    between atoms: C_27  and  C_28
REMARK                            x       y       z     vdW  Elec       q    Type
REMARK                         _______ _______ _______ _____ _____    ______ ____
ROOT
ATOM     15  C   UNL     1      -2.456  -0.941  24.792  0.00  0.00    +0.170 C 
ATOM     16  C   UNL     1      -2.487  -1.398  24.107  0.00  0.00    +0.169 C 
ATOM     17  O   UNL     1      -1.741  -1.377  23.754  0.00  0.00    -0.350 OA
ATOM     18  C   UNL     1      -1.250  -0.907  24.221  0.00  0.00    +0.167 C 
ATOM     19  C   UNL     1      -0.487  -0.604  24.291  0.00  0.00    +0.154 C 
ATOM     20  C   UNL     1      -0.456  -0.146  24.978  0.00  0.00    +0.166 C 
ATOM     21  O   UNL     1      -1.201  -0.167  25.331  0.00  0.00    -0.350 OA
ATOM     22  C   UNL     1      -1.692  -0.638  24.863  0.00  0.00    +0.169 C 
ENDROOT
BRANCH  15  14
ATOM     10  C   UNL     1      -3.676  -0.247  25.228  0.00  0.00    +0.343 A 
ATOM     11  N   UNL     1      -4.182  -0.308  25.876  0.00  0.00    -0.071 NA
ATOM     12  N   UNL     1      -3.899  -0.908  26.366  0.00  0.00    -0.020 NA
ATOM     13  N   UNL     1      -3.217  -1.219  26.019  0.00  0.00    -0.040 NA
ATOM     14  N   UNL     1      -3.080  -0.810  25.316  0.00  0.00    -0.180 N 
BRANCH  10   9
ATOM      9  O   UNL     1      -3.754   0.284  24.601  0.00  0.00    -0.421 OA
BRANCH   9   8
ATOM      4  C   UNL     1      -4.371   2.365  24.837  0.00  0.00    +0.051 A 
ATOM      5  C   UNL     1      -5.192   2.284  24.842  0.00  0.00    +0.015 A 
ATOM      6  C   UNL     1      -5.533   1.537  24.767  0.00  0.00    +0.004 A 
ATOM      7  C   UNL     1      -5.054   0.871  24.687  0.00  0.00    +0.038 A 
ATOM      8  C   UNL     1      -4.233   0.951  24.681  0.00  0.00    +0.150 A 
ATOM     31  C   UNL     1      -3.891   1.698  24.757  0.00  0.00    +0.052 A 
BRANCH   4   2
ATOM      1  C   UNL     1      -4.032   3.495  25.644  0.00  0.00    +0.112 C 
ATOM      2  N   UNL     1      -4.029   3.112  24.913  0.00  0.00    -0.304 N 
ATOM      3  C   UNL     1      -3.683   3.476  24.258  0.00  0.00    +0.112 C 
ENDBRANCH   4   2
ENDBRANCH   9   8
ENDBRANCH  10   9
ENDBRANCH  15  14
BRANCH  19  23
ATOM     23  N   UNL     1       0.138  -0.735  23.767  0.00  0.00    -0.202 NA
ATOM     24  C   UNL     1       0.577  -0.098  23.483  0.00  0.00    +0.242 C 
ATOM     25  O   UNL     1       0.393   0.670  23.721  0.00  0.00    -0.273 OA
BRANCH  24  26
ATOM     26  C   UNL     1       1.201  -0.229  22.959  0.00  0.00    +0.099 C 
BRANCH  26  27
ATOM     27  C   UNL     1       1.790   0.342  22.869  0.00  0.00    +0.124 C 
BRANCH  27  28
ATOM     28  C   UNL     1       2.445   0.186  22.391  0.00  0.00    +0.365 C 
ATOM     29  O   UNL     1       3.207   0.291  22.690  0.00  0.00    -0.246 OA
ATOM     30  O   UNL     1       2.338  -0.074  21.616  0.00  0.00    -0.246 OA
ENDBRANCH  27  28
ENDBRANCH  26  27
ENDBRANCH  24  26
ENDBRANCH  19  23
TORSDOF 8
ENDMDL
MODEL 7
REMARK VINA RESULT:      -8.0      2.745      5.420
REMARK  Name = 
REMARK  8 active torsions:
REMARK  status: ('A' for Active; 'I' for Inactive)
REMARK    1  A    between atoms: N_2  and  C_4
REMARK    2  A    between atoms: C_8  and  O_9
REMARK    3  A    between atoms: O_9  and  C_10
REMARK    4  A    between atoms: N_14  and  C_15
REMARK    5  A    between atoms: C_19  and  N_23
REMARK    6  A    between atoms: C_24  and  C_26
REMARK    7  A    between atoms: C_26  and  C_27
REMARK    8  A    between atoms: C_27  and  C_28
REMARK                            x       y       z     vdW  Elec       q    Type
REMARK                         _______ _______ _______ _____ _____    ______ ____
ROOT
ATOM     15  C   UNL     1      -0.709   1.128  23.792  0.00  0.00    +0.170 C 
ATOM     16  C   UNL     1      -0.308   1.456  24.434  0.00  0.00    +0.169 C 
ATOM     17  O   UNL     1       0.481   1.218  24.388  0.00  0.00    -0.350 OA
ATOM     18  C   UNL     1       0.567   0.744  23.719  0.00  0.00    +0.167 C 
ATOM     19  C   UNL     1       1.107   0.304  23.278  0.00  0.00    +0.154 C 
ATOM     20  C   UNL     1       0.705  -0.024  22.636  0.00  0.00    +0.166 C 
ATOM     21  O   UNL     1      -0.083   0.214  22.681  0.00  0.00    -0.350 OA
ATOM     22  C   UNL     1      -0.169   0.689  23.351  0.00  0.00    +0.169 C 
ENDROOT
BRANCH  15  14
ATOM     10  C   UNL     1      -2.134   0.816  23.976  0.00  0.00    +0.343 A 
ATOM     11  N   UNL     1      -2.838   1.084  23.641  0.00  0.00    -0.071 NA
ATOM     12  N   UNL     1      -2.651   1.658  23.078  0.00  0.00    -0.020 NA
ATOM     13  N   UNL     1      -1.830   1.744  23.067  0.00  0.00    -0.040 NA
ATOM     14  N   UNL     1      -1.511   1.224  23.621  0.00  0.00    -0.180 N 
BRANCH  10   9
ATOM      9  O   UNL     1      -2.065   0.241  24.564  0.00  0.00    -0.421 OA
BRANCH   9   8
ATOM      4  C   UNL     1      -3.495  -1.404  24.689  0.00  0.00    +0.051 A 
ATOM      5  C   UNL     1      -4.041  -1.096  25.225  0.00  0.00    +0.015 A 
ATOM      6  C   UNL     1      -3.927  -0.342  25.541  0.00  0.00    +0.004 A 
ATOM      7  C   UNL     1      -3.269   0.103  25.321  0.00  0.00    +0.038 A 
ATOM      8  C   UNL     1      -2.724  -0.205  24.784  0.00  0.00    +0.150 A 
ATOM     31  C   UNL     1      -2.836  -0.958  24.468  0.00  0.00    +0.052 A 
BRANCH   4   2
ATOM      1  C   UNL     1      -4.202  -2.286  23.814  0.00  0.00    +0.112 C 
ATOM      2  N   UNL     1      -3.607  -2.157  24.372  0.00  0.00    -0.304 N 
ATOM      3  C   UNL     1      -3.126  -2.783  24.613  0.00  0.00    +0.112 C 
ENDBRANCH   4   2
ENDBRANCH   9   8
ENDBRANCH  10   9
ENDBRANCH  15  14
BRANCH  19  23
ATOM     23  N   UNL     1       1.909   0.208  23.449  0.00  0.00    -0.202 NA
ATOM     24  C   UNL     1       2.456   0.140  22.834  0.00  0.00    +0.242 C 
ATOM     25  O   UNL     1       2.201   0.168  22.050  0.00  0.00    -0.273 OA
BRANCH  24  26
ATOM     26  C   UNL     1       3.257   0.044  23.005  0.00  0.00    +0.099 C 
BRANCH  26  27
ATOM     27  C   UNL     1       3.802   0.612  22.755  0.00  0.00    +0.124 C 
BRANCH  27  28
ATOM     28  C   UNL     1       4.585   0.572  23.013  0.00  0.00    +0.365 C 
ATOM     29  O   UNL     1       5.135   0.122  22.593  0.00  0.00    -0.246 OA
ATOM     30  O   UNL     1       4.818   0.983  23.690  0.00  0.00    -0.246 OA
ENDBRANCH  27  28
ENDBRANCH  26  27
ENDBRANCH  24  26
ENDBRANCH  19  23
TORSDOF 8
ENDMDL
MODEL 8
REMARK VINA RESULT:      -7.9      1.496      5.169
REMARK  Name = 
REMARK  8 active torsions:
REMARK  status: ('A' for Active; 'I' for Inactive)
REMARK    1  A    between atoms: N_2  and  C_4
REMARK    2  A    between atoms: C_8  and  O_9
REMARK    3  A    between atoms: O_9  and  C_10
REMARK    4  A    between atoms: N_14  and  C_15
REMARK    5  A    between atoms: C_19  and  N_23
REMARK    6  A    between atoms: C_24  and  C_26
REMARK    7  A    between atoms: C_26  and  C_27
REMARK    8  A    between atoms: C_27  and  C_28
REMARK                            x       y       z     vdW  Elec       q    Type
REMARK                         _______ _______ _______ _____ _____    ______ ____
ROOT
ATOM     15  C   UNL     1      -0.515  -0.246  24.661  0.00  0.00    +0.170 C 
ATOM     16  C   UNL     1      -0.238   0.030  23.935  0.00  0.00    +0.169 C 
ATOM     17  O   UNL     1      -0.160   0.850  23.987  0.00  0.00    -0.350 OA
ATOM     18  C   UNL     1      -0.388   1.080  24.745  0.00  0.00    +0.167 C 
ATOM     19  C   UNL     1      -0.480   1.729  25.246  0.00  0.00    +0.154 C 
ATOM     20  C   UNL     1      -0.757   1.453  25.973  0.00  0.00    +0.166 C 
ATOM     21  O   UNL     1      -0.836   0.633  25.921  0.00  0.00    -0.350 OA
ATOM     22  C   UNL     1      -0.607   0.403  25.162  0.00  0.00    +0.169 C 
ENDROOT
BRANCH  15  14
ATOM     10  C   UNL     1      -1.301  -1.484  24.569  0.00  0.00    +0.343 A 
ATOM     11  N   UNL     1      -1.245  -2.237  24.902  0.00  0.00    -0.071 NA
ATOM     12  N   UNL     1      -0.581  -2.251  25.392  0.00  0.00    -0.020 NA
ATOM     13  N   UNL     1      -0.227  -1.506  25.361  0.00  0.00    -0.040 NA
ATOM     14  N   UNL     1      -0.672  -1.033  24.853  0.00  0.00    -0.180 N 
BRANCH  10   9
ATOM      9  O   UNL     1      -1.884  -1.229  24.044  0.00  0.00    -0.421 OA
BRANCH   9   8
ATOM      4  C   UNL     1      -3.988  -0.964  24.562  0.00  0.00    +0.051 A 
ATOM      5  C   UNL     1      -4.264  -1.738  24.493  0.00  0.00    +0.015 A 
ATOM      6  C   UNL     1      -3.747  -2.343  24.275  0.00  0.00    +0.004 A 
ATOM      7  C   UNL     1      -2.954  -2.173  24.125  0.00  0.00    +0.038 A 
ATOM      8  C   UNL     1      -2.678  -1.399  24.194  0.00  0.00    +0.150 A 
ATOM     31  C   UNL     1      -3.194  -0.794  24.412  0.00  0.00    +0.052 A 
BRANCH   4   2
ATOM      1  C   UNL     1      -4.402   0.031  25.500  0.00  0.00    +0.112 C 
ATOM      2  N   UNL     1      -4.505  -0.359  24.780  0.00  0.00    -0.304 N 
ATOM      3  C   UNL     1      -5.123  -0.144  24.279  0.00  0.00    +0.112 C 
ENDBRANCH   4   2
ENDBRANCH   9   8
ENDBRANCH  10   9
ENDBRANCH  15  14
BRANCH  19  23
ATOM     23  N   UNL     1      -0.323   2.516  25.054  0.00  0.00    -0.202 NA
ATOM     24  C   UNL     1      -0.815   3.115  25.337  0.00  0.00    +0.242 C 
ATOM     25  O   UNL     1      -1.464   2.927  25.811  0.00  0.00    -0.273 OA
BRANCH  24  26
ATOM     26  C   UNL     1      -0.658   3.902  25.145  0.00  0.00    +0.099 C 
BRANCH  26  27
ATOM     27  C   UNL     1      -1.280   4.439  25.068  0.00  0.00    +0.124 C 
BRANCH  27  28
ATOM     28  C   UNL     1      -1.121   5.240  24.954  0.00  0.00    +0.365 C 
ATOM     29  O   UNL     1      -0.423   5.472  24.577  0.00  0.00    -0.246 OA
ATOM     30  O   UNL     1      -1.657   5.810  25.215  0.00  0.00    -0.246 OA
ENDBRANCH  27  28
ENDBRANCH  26  27
ENDBRANCH  24  26
ENDBRANCH  19  23
TORSDOF 8
ENDMDL
MODEL 9
REMARK VINA RESULT:      -5.5     15.043     17.229
REMARK  Name = 
REMARK  8 active torsions:
REMARK  status: ('A' for Active; 'I' for Inactive)
REMARK    1  A    between atoms: N_2  and  C_4
REMARK    2  A    between atoms: C_8  and  O_9
REMARK    3  A    between atoms: O_9  and  C_10
REMARK    4  A    between atoms: N_14  and  C_15
REMARK    5  A    between atoms: C_19  and  N_23
REMARK    6  A    between atoms: C_24  and  C_26
REMARK    7  A    between atoms: C_26  and  C_27
REMARK    8  A    between atoms: C_27  and  C_28
REMARK                            x       y       z     vdW  Elec       q    Type
REMARK                         _______ _______ _______ _____ _____    ______ ____
ROOT
ATOM     15  C   UNL     1      -5.723 -10.440  13.461  0.00  0.00    +0.170 C 
ATOM     16  C   UNL     1      -6.440 -10.779  13.235  0.00  0.00    +0.169 C 
ATOM     17  O   UNL     1      -6.972 -10.686  13.860  0.00  0.00    -0.350 OA
ATOM     18  C   UNL     1      -6.584 -10.291  14.470  0.00  0.00    +0.167 C 
ATOM     19  C   UNL     1      -6.672  -9.989  15.233  0.00  0.00    +0.154 C 
ATOM     20  C   UNL     1      -5.953  -9.651  15.458  0.00  0.00    +0.166 C 
ATOM     21  O   UNL     1      -5.421  -9.743  14.834  0.00  0.00    -0.350 OA
ATOM     22  C   UNL     1      -5.811 -10.139  14.223  0.00  0.00    +0.169 C 
ENDROOT
BRANCH  15  14
ATOM     10  C   UNL     1      -4.963 -10.048  12.266  0.00  0.00    +0.343 A 
ATOM     11  N   UNL     1      -4.185 -10.149  12.009  0.00  0.00    -0.071 NA
ATOM     12  N   UNL     1      -3.778 -10.573  12.589  0.00  0.00    -0.020 NA
ATOM     13  N   UNL     1      -4.305 -10.733  13.203  0.00  0.00    -0.040 NA
ATOM     14  N   UNL     1      -5.037 -10.409  13.003  0.00  0.00    -0.180 N 
BRANCH  10   9
ATOM      9  O   UNL     1      -5.561  -9.654  11.855  0.00  0.00    -0.421 OA
BRANCH   9   8
ATOM      4  C   UNL     1      -5.390  -9.345   9.701  0.00  0.00    +0.051 A 
ATOM      5  C   UNL     1      -5.072  -8.584   9.678  0.00  0.00    +0.015 A 
ATOM      6  C   UNL     1      -4.917  -8.180  10.380  0.00  0.00    +0.004 A 
ATOM      7  C   UNL     1      -5.080  -8.536  11.106  0.00  0.00    +0.038 A 
ATOM      8  C   UNL     1      -5.398  -9.297  11.129  0.00  0.00    +0.150 A 
ATOM     31  C   UNL     1      -5.553  -9.702  10.427  0.00  0.00    +0.052 A 
BRANCH   4   2
ATOM      1  C   UNL     1      -4.968  -9.788   8.410  0.00  0.00    +0.112 C 
ATOM      2  N   UNL     1      -5.544  -9.749   8.999  0.00  0.00    -0.304 N 
ATOM      3  C   UNL     1      -6.275 -10.115   8.886  0.00  0.00    +0.112 C 
ENDBRANCH   4   2
ENDBRANCH   9   8
ENDBRANCH  10   9
ENDBRANCH  15  14
BRANCH  19  23
ATOM     23  N   UNL     1      -7.358 -10.021  15.691  0.00  0.00    -0.202 NA
ATOM     24  C   UNL     1      -7.380  -9.646  16.425  0.00  0.00    +0.242 C 
ATOM     25  O   UNL     1      -6.717  -9.241  16.703  0.00  0.00    -0.273 OA
BRANCH  24  26
ATOM     26  C   UNL     1      -8.066  -9.678  16.882  0.00  0.00    +0.099 C 
BRANCH  26  27
ATOM     27  C   UNL     1      -8.382  -8.984  17.199  0.00  0.00    +0.124 C 
BRANCH  27  28
ATOM     28  C   UNL     1      -9.141  -8.988  17.523  0.00  0.00    +0.365 C 
ATOM     29  O   UNL     1      -9.632  -8.330  17.431  0.00  0.00    -0.246 OA
ATOM     30  O   UNL     1      -9.409  -9.648  17.939  0.00  0.00    -0.246 OA
ENDBRANCH  27  28
ENDBRANCH  26  27
ENDBRANCH  24  26
ENDBRANCH  19  23
TORSDOF 8
ENDMDL
