MODEL 1
REMARK VINA RESULT:     -10.9      0.000      0.000
REMARK  Name = 
REMARK  6 active torsions:
REMARK  status: ('A' for Active; 'I' for Inactive)
REMARK    1  A    between atoms: C_2  and  C_5
REMARK    2  A    between atoms: C_7  and  C_8
REMARK    3  A    between atoms: C_8  and  C_9
REMARK    4  A    between atoms: C_9  and  N_13
REMARK    5  A    between atoms: N_13  and  C_14
REMARK    6  A    between atoms: C_14  and  C_15
REMARK                            x       y       z     vdW  Elec       q    Type
REMARK                         _______ _______ _______ _____ _____    ______ ____
ROOT
ATOM      9  C   UNL     1      -4.624   1.924  24.825  0.00  0.00    +0.120 C 
ATOM     10  C   UNL     1      -5.304   1.628  25.187  0.00  0.00    +0.161 C 
ATOM     11  O   UNL     1      -5.687   2.347  25.054  0.00  0.00    -0.351 OA
ATOM     12  C   UNL     1      -5.007   2.642  24.692  0.00  0.00    +0.161 C 
ENDROOT
BRANCH   9   8
ATOM      8  C   UNL     1      -3.944   2.219  24.463  0.00  0.00    +0.070 C 
BRANCH   8   7
ATOM      5  C   UNL     1      -2.372   3.437  25.240  0.00  0.00    +0.153 A 
ATOM      6  C   UNL     1      -2.665   2.912  24.675  0.00  0.00    +0.054 A 
ATOM      7  C   UNL     1      -3.442   2.725  24.878  0.00  0.00    +0.102 A 
ATOM     22  N   UNL     1      -3.631   3.134  25.569  0.00  0.00    -0.082 NA
ATOM     23  O   UNL     1      -2.969   3.574  25.793  0.00  0.00    -0.358 OA
BRANCH   5   2
ATOM      1  C   UNL     1      -0.861   4.097  25.262  0.00  0.00    +0.008 C 
ATOM      2  C   UNL     1      -1.617   3.766  25.251  0.00  0.00    +0.054 C 
ATOM      3  C   UNL     1      -1.288   3.013  25.330  0.00  0.00    +0.008 C 
ATOM      4  C   UNL     1      -1.945   4.519  25.173  0.00  0.00    +0.008 C 
ENDBRANCH   5   2
ENDBRANCH   8   7
ENDBRANCH   9   8
BRANCH   9  13
ATOM     13  N   UNL     1      -4.241   1.205  24.958  0.00  0.00    -0.211 NA
BRANCH  13  14
ATOM     14  C   UNL     1      -4.634   0.495  24.805  0.00  0.00    +0.115 C 
BRANCH  14  15
ATOM     15  C   UNL     1      -4.225  -0.220  24.853  0.00  0.00    -0.005 A 
ATOM     16  C   UNL     1      -4.150  -0.696  24.183  0.00  0.00    -0.001 A 
ATOM     17  C   UNL     1      -3.741  -1.412  24.229  0.00  0.00    +0.029 A 
ATOM     18  C   UNL     1      -3.409  -1.650  24.946  0.00  0.00    +0.140 A 
ATOM     19  F   UNL     1      -3.000  -2.366  24.993  0.00  0.00    -0.204 F 
ATOM     20  C   UNL     1      -3.485  -1.174  25.616  0.00  0.00    +0.029 A 
ATOM     21  C   UNL     1      -3.893  -0.459  25.568  0.00  0.00    -0.001 A 
ENDBRANCH  14  15
ENDBRANCH  13  14
ENDBRANCH   9  13
TORSDOF 6
ENDMDL
MODEL 2
REMARK VINA RESULT:     -10.8      1.851      4.404
REMARK  Name = 
REMARK  6 active torsions:
REMARK  status: ('A' for Active; 'I' for Inactive)
REMARK    1  A    between atoms: C_2  and  C_5
REMARK    2  A    between atoms: C_7  and  C_8
REMARK    3  A    between atoms: C_8  and  C_9
REMARK    4  A    between atoms: C_9  and  N_13
REMARK    5  A    between atoms: N_13  and  C_14
REMARK    6  A    between atoms: C_14  and  C_15
REMARK                            x       y       z     vdW  Elec       q    Type
REMARK                         _______ _______ _______ _____ _____    ______ ____
ROOT
ATOM      9  C   UNL     1      -4.814   1.775  25.002  0.00  0.00    +0.120 C 
ATOM     10  C   UNL     1      -5.247   2.386  24.653  0.00  0.00    +0.161 C 
ATOM     11  O   UNL     1      -5.928   1.922  24.686  0.00  0.00    -0.351 OA
ATOM     12  C   UNL     1      -5.496   1.312  25.034  0.00  0.00    +0.161 C 
ENDROOT
BRANCH   9   8
ATOM      8  C   UNL     1      -4.382   1.165  25.351  0.00  0.00    +0.070 C 
BRANCH   8   7
ATOM      5  C   UNL     1      -3.881  -0.757  24.569  0.00  0.00    +0.153 A 
ATOM      6  C   UNL     1      -4.086  -0.267  25.200  0.00  0.00    +0.054 A 
ATOM      7  C   UNL     1      -4.178   0.499  24.909  0.00  0.00    +0.102 A 
ATOM     22  N   UNL     1      -4.031   0.484  24.097  0.00  0.00    -0.082 NA
ATOM     23  O   UNL     1      -3.847  -0.293  23.887  0.00  0.00    -0.358 OA
BRANCH   5   2
ATOM      1  C   UNL     1      -3.591  -2.379  24.652  0.00  0.00    +0.008 C 
ATOM      2  C   UNL     1      -3.736  -1.567  24.611  0.00  0.00    +0.054 C 
ATOM      3  C   UNL     1      -3.277  -1.451  25.287  0.00  0.00    +0.008 C 
ATOM      4  C   UNL     1      -4.195  -1.684  23.935  0.00  0.00    +0.008 C 
ENDBRANCH   5   2
ENDBRANCH   8   7
ENDBRANCH   9   8
BRANCH   9  13
ATOM     13  N   UNL     1      -4.133   2.240  24.970  0.00  0.00    -0.211 NA
BRANCH  13  14
ATOM     14  C   UNL     1      -4.162   3.030  25.207  0.00  0.00    +0.115 C 
BRANCH  14  15
ATOM     15  C   UNL     1      -3.463   3.462  25.286  0.00  0.00    -0.005 A 
ATOM     16  C   UNL     1      -3.232   3.739  26.028  0.00  0.00    -0.001 A 
ATOM     17  C   UNL     1      -2.534   4.172  26.108  0.00  0.00    +0.029 A 
ATOM     18  C   UNL     1      -2.067   4.326  25.445  0.00  0.00    +0.140 A 
ATOM     19  F   UNL     1      -1.368   4.758  25.525  0.00  0.00    -0.204 F 
ATOM     20  C   UNL     1      -2.298   4.048  24.703  0.00  0.00    +0.029 A 
ATOM     21  C   UNL     1      -2.997   3.616  24.625  0.00  0.00    -0.001 A 
ENDBRANCH  14  15
ENDBRANCH  13  14
ENDBRANCH   9  13
TORSDOF 6
ENDMDL
MODEL 3
REMARK VINA RESULT:     -10.0      2.236      4.644
REMARK  Name = 
REMARK  6 active torsions:
REMARK  status: ('A' for Active; 'I' for Inactive)
REMARK    1  A    between atoms: C_2  and  C_5
REMARK    2  A    between atoms: C_7  and  C_8
REMARK    3  A    between atoms: C_8  and  C_9
REMARK    4  A    between atoms: C_9  and  N_13
REMARK    5  A    between atoms: N_13  and  C_14
REMARK    6  A    between atoms: C_14  and  C_15
REMARK                            x       y       z     vdW  Elec       q    Type
REMARK                         _______ _______ _______ _____ _____    ______ ____
ROOT
ATOM      9  C   UNL     1      -2.409   1.147  24.546  0.00  0.00    +0.120 C 
ATOM     10  C   UNL     1      -1.926   1.684  24.947  0.00  0.00    +0.161 C 
ATOM     11  O   UNL     1      -1.257   1.295  24.662  0.00  0.00    -0.351 OA
ATOM     12  C   UNL     1      -1.739   0.759  24.262  0.00  0.00    +0.161 C 
ENDROOT
BRANCH   9   8
ATOM      8  C   UNL     1      -2.891   0.611  24.146  0.00  0.00    +0.070 C 
BRANCH   8   7
ATOM      5  C   UNL     1      -3.380  -1.421  24.583  0.00  0.00    +0.153 A 
ATOM      6  C   UNL     1      -3.350  -0.783  24.060  0.00  0.00    +0.054 A 
ATOM      7  C   UNL     1      -3.023  -0.140  24.460  0.00  0.00    +0.102 A 
ATOM     22  N   UNL     1      -2.851  -0.379  25.230  0.00  0.00    -0.082 NA
ATOM     23  O   UNL     1      -3.071  -1.171  25.306  0.00  0.00    -0.358 OA
BRANCH   5   2
ATOM      1  C   UNL     1      -3.954  -2.929  24.243  0.00  0.00    +0.008 C 
ATOM      2  C   UNL     1      -3.667  -2.174  24.412  0.00  0.00    +0.054 C 
ATOM      3  C   UNL     1      -4.241  -1.845  23.920  0.00  0.00    +0.008 C 
ATOM      4  C   UNL     1      -3.093  -2.503  24.905  0.00  0.00    +0.008 C 
ENDBRANCH   5   2
ENDBRANCH   8   7
ENDBRANCH   9   8
BRANCH   9  13
ATOM     13  N   UNL     1      -3.078   1.537  24.831  0.00  0.00    -0.211 NA
BRANCH  13  14
ATOM     14  C   UNL     1      -3.232   2.314  24.601  0.00  0.00    +0.115 C 
BRANCH  14  15
ATOM     15  C   UNL     1      -3.895   2.708  24.895  0.00  0.00    -0.005 A 
ATOM     16  C   UNL     1      -3.802   3.318  25.442  0.00  0.00    -0.001 A 
ATOM     17  C   UNL     1      -4.464   3.713  25.737  0.00  0.00    +0.029 A 
ATOM     18  C   UNL     1      -5.219   3.495  25.484  0.00  0.00    +0.140 A 
ATOM     19  F   UNL     1      -5.882   3.889  25.779  0.00  0.00    -0.204 F 
ATOM     20  C   UNL     1      -5.312   2.884  24.937  0.00  0.00    +0.029 A 
ATOM     21  C   UNL     1      -4.649   2.491  24.643  0.00  0.00    -0.001 A 
ENDBRANCH  14  15
ENDBRANCH  13  14
ENDBRANCH   9  13
TORSDOF 6
ENDMDL
MODEL 4
REMARK VINA RESULT:     -10.0      1.655      2.609
REMARK  Name = 
REMARK  6 active torsions:
REMARK  status: ('A' for Active; 'I' for Inactive)
REMARK    1  A    between atoms: C_2  and  C_5
REMARK    2  A    between atoms: C_7  and  C_8
REMARK    3  A    between atoms: C_8  and  C_9
REMARK    4  A    between atoms: C_9  and  N_13
REMARK    5  A    between atoms: N_13  and  C_14
REMARK    6  A    between atoms: C_14  and  C_15
REMARK                            x       y       z     vdW  Elec       q    Type
REMARK                         _______ _______ _______ _____ _____    ______ ____
ROOT
ATOM      9  C   UNL     1      -2.629   1.138  23.899  0.00  0.00    +0.120 C 
ATOM     10  C   UNL     1      -1.839   0.902  23.939  0.00  0.00    +0.161 C 
ATOM     11  O   UNL     1      -1.615   1.583  23.530  0.00  0.00    -0.351 OA
ATOM     12  C   UNL     1      -2.404   1.819  23.490  0.00  0.00    +0.161 C 
ENDROOT
BRANCH   9   8
ATOM      8  C   UNL     1      -3.418   1.374  23.859  0.00  0.00    +0.070 C 
BRANCH   8   7
ATOM      5  C   UNL     1      -4.568   2.627  25.149  0.00  0.00    +0.153 A 
ATOM      6  C   UNL     1      -4.517   2.075  24.538  0.00  0.00    +0.054 A 
ATOM      7  C   UNL     1      -3.720   1.900  24.418  0.00  0.00    +0.102 A 
ATOM     22  N   UNL     1      -3.278   2.343  24.954  0.00  0.00    -0.082 NA
ATOM     23  O   UNL     1      -3.802   2.793  25.407  0.00  0.00    -0.358 OA
BRANCH   5   2
ATOM      1  C   UNL     1      -5.956   3.284  25.752  0.00  0.00    +0.008 C 
ATOM      2  C   UNL     1      -5.262   2.955  25.450  0.00  0.00    +0.054 C 
ATOM      3  C   UNL     1      -5.579   2.200  25.546  0.00  0.00    +0.008 C 
ATOM      4  C   UNL     1      -4.945   3.711  25.355  0.00  0.00    +0.008 C 
ENDBRANCH   5   2
ENDBRANCH   8   7
ENDBRANCH   9   8
BRANCH   9  13
ATOM     13  N   UNL     1      -2.852   0.457  24.308  0.00  0.00    -0.211 NA
BRANCH  13  14
ATOM     14  C   UNL     1      -2.629  -0.285  24.025  0.00  0.00    +0.115 C 
BRANCH  14  15
ATOM     15  C   UNL     1      -2.910  -0.968  24.393  0.00  0.00    -0.005 A 
ATOM     16  C   UNL     1      -2.627  -1.179  25.140  0.00  0.00    -0.001 A 
ATOM     17  C   UNL     1      -2.908  -1.861  25.509  0.00  0.00    +0.029 A 
ATOM     18  C   UNL     1      -3.470  -2.332  25.132  0.00  0.00    +0.140 A 
ATOM     19  F   UNL     1      -3.751  -3.016  25.501  0.00  0.00    -0.204 F 
ATOM     20  C   UNL     1      -3.753  -2.121  24.385  0.00  0.00    +0.029 A 
ATOM     21  C   UNL     1      -3.472  -1.438  24.017  0.00  0.00    -0.001 A 
ENDBRANCH  14  15
ENDBRANCH  13  14
ENDBRANCH   9  13
TORSDOF 6
ENDMDL
