MODEL 1
REMARK VINA RESULT:     -10.4      0.000      0.000
REMARK  Name = 
REMARK  3 active torsions:
REMARK  status: ('A' for Active; 'I' for Inactive)
REMARK    1  A    between atoms: N_5  and  C_6
REMARK    2  A    between atoms: C_6  and  C_7
REMARK    3  A    between atoms: C_10  and  N_11
REMARK                            x       y       z     vdW  Elec       q    Type
REMARK                         _______ _______ _______ _____ _____    ______ ____
ROOT
ATOM      1  C   UNL     1      -1.676   3.490  24.479  0.00  0.00    +0.115 C 
ATOM      2  N   UNL     1      -2.310   3.619  24.992  0.00  0.00    -0.274 N 
ATOM      3  C   UNL     1      -2.985   3.147  24.939  0.00  0.00    +0.120 C 
ATOM      4  C   UNL     1      -3.182   2.518  24.442  0.00  0.00    +0.095 C 
ATOM      5  N   UNL     1      -3.938   2.258  24.646  0.00  0.00    -0.265 NA
ATOM     17  C   UNL     1      -4.208   2.726  25.270  0.00  0.00    +0.104 C 
ATOM     18  C   UNL     1      -3.619   3.275  25.451  0.00  0.00    +0.151 C 
ATOM     19  O   UNL     1      -3.578   3.876  26.016  0.00  0.00    -0.344 OA
ATOM     20  C   UNL     1      -2.903   4.347  26.068  0.00  0.00    +0.227 C 
ATOM     21  C   UNL     1      -2.269   4.219  25.556  0.00  0.00    +0.256 C 
ATOM     22  O   UNL     1      -1.595   4.690  25.608  0.00  0.00    -0.272 OA
ENDROOT
BRANCH   5   6
ATOM      6  C   UNL     1      -4.351   1.639  24.290  0.00  0.00    +0.099 C 
BRANCH   6   7
ATOM      7  C   UNL     1      -4.115   0.859  24.418  0.00  0.00    -0.006 A 
ATOM      8  C   UNL     1      -3.629   0.480  23.869  0.00  0.00    -0.002 A 
ATOM      9  C   UNL     1      -3.394  -0.299  23.997  0.00  0.00    +0.016 A 
ATOM     10  C   UNL     1      -3.643  -0.701  24.673  0.00  0.00    +0.073 A 
ATOM     15  C   UNL     1      -4.129  -0.322  25.222  0.00  0.00    +0.016 A 
ATOM     16  C   UNL     1      -4.364   0.458  25.094  0.00  0.00    -0.002 A 
BRANCH  10  11
ATOM     11  N   UNL     1      -3.407  -1.481  24.800  0.00  0.00    -0.179 NA
ATOM     12  C   UNL     1      -3.789  -2.098  24.407  0.00  0.00    +0.246 C 
ATOM     13  C   UNL     1      -3.553  -2.877  24.534  0.00  0.00    +0.097 C 
ATOM     14  O   UNL     1      -4.407  -1.934  23.885  0.00  0.00    -0.273 OA
ENDBRANCH  10  11
ENDBRANCH   6   7
ENDBRANCH   5   6
TORSDOF 3
ENDMDL
MODEL 2
REMARK VINA RESULT:     -10.1      1.009      4.730
REMARK  Name = 
REMARK  3 active torsions:
REMARK  status: ('A' for Active; 'I' for Inactive)
REMARK    1  A    between atoms: N_5  and  C_6
REMARK    2  A    between atoms: C_6  and  C_7
REMARK    3  A    between atoms: C_10  and  N_11
REMARK                            x       y       z     vdW  Elec       q    Type
REMARK                         _______ _______ _______ _____ _____    ______ ____
ROOT
ATOM      1  C   UNL     1      -4.042  -1.771  23.661  0.00  0.00    +0.115 C 
ATOM      2  N   UNL     1      -3.879  -1.513  24.428  0.00  0.00    -0.274 N 
ATOM      3  C   UNL     1      -4.071  -0.742  24.653  0.00  0.00    +0.120 C 
ATOM      4  C   UNL     1      -4.422  -0.118  24.243  0.00  0.00    +0.095 C 
ATOM      5  N   UNL     1      -4.476   0.526  24.756  0.00  0.00    -0.265 NA
ATOM     17  C   UNL     1      -4.159   0.300  25.484  0.00  0.00    +0.104 C 
ATOM     18  C   UNL     1      -3.909  -0.484  25.420  0.00  0.00    +0.151 C 
ATOM     19  O   UNL     1      -3.554  -0.997  25.962  0.00  0.00    -0.344 OA
ATOM     20  C   UNL     1      -3.362  -1.766  25.736  0.00  0.00    +0.227 C 
ATOM     21  C   UNL     1      -3.524  -2.024  24.969  0.00  0.00    +0.256 C 
ATOM     22  O   UNL     1      -3.332  -2.794  24.744  0.00  0.00    -0.272 OA
ENDROOT
BRANCH   5   6
ATOM      6  C   UNL     1      -4.792   1.266  24.574  0.00  0.00    +0.099 C 
BRANCH   6   7
ATOM      7  C   UNL     1      -4.316   1.939  24.617  0.00  0.00    -0.006 A 
ATOM      8  C   UNL     1      -4.400   2.462  25.249  0.00  0.00    -0.002 A 
ATOM      9  C   UNL     1      -3.925   3.135  25.293  0.00  0.00    +0.016 A 
ATOM     10  C   UNL     1      -3.365   3.285  24.706  0.00  0.00    +0.073 A 
ATOM     15  C   UNL     1      -3.282   2.761  24.073  0.00  0.00    +0.016 A 
ATOM     16  C   UNL     1      -3.757   2.088  24.030  0.00  0.00    -0.002 A 
BRANCH  10  11
ATOM     11  N   UNL     1      -2.890   3.957  24.749  0.00  0.00    -0.179 NA
ATOM     12  C   UNL     1      -2.187   3.939  25.181  0.00  0.00    +0.246 C 
ATOM     13  C   UNL     1      -1.712   4.611  25.225  0.00  0.00    +0.097 C 
ATOM     14  O   UNL     1      -1.960   3.247  25.569  0.00  0.00    -0.273 OA
ENDBRANCH  10  11
ENDBRANCH   6   7
ENDBRANCH   5   6
TORSDOF 3
ENDMDL
MODEL 3
REMARK VINA RESULT:      -9.9      1.354      1.682
REMARK  Name = 
REMARK  3 active torsions:
REMARK  status: ('A' for Active; 'I' for Inactive)
REMARK    1  A    between atoms: N_5  and  C_6
REMARK    2  A    between atoms: C_6  and  C_7
REMARK    3  A    between atoms: C_10  and  N_11
REMARK                            x       y       z     vdW  Elec       q    Type
REMARK                         _______ _______ _______ _____ _____    ______ ____
ROOT
ATOM      1  C   UNL     1      -3.291   2.831  23.632  0.00  0.00    +0.115 C 
ATOM      2  N   UNL     1      -3.759   2.873  24.311  0.00  0.00    -0.274 N 
ATOM      3  C   UNL     1      -4.167   2.205  24.573  0.00  0.00    +0.120 C 
ATOM      4  C   UNL     1      -4.213   1.435  24.279  0.00  0.00    +0.095 C 
ATOM      5  N   UNL     1      -4.709   1.002  24.775  0.00  0.00    -0.265 NA
ATOM     17  C   UNL     1      -4.970   1.504  25.376  0.00  0.00    +0.104 C 
ATOM     18  C   UNL     1      -4.635   2.248  25.251  0.00  0.00    +0.151 C 
ATOM     19  O   UNL     1      -4.695   2.958  25.667  0.00  0.00    -0.344 OA
ATOM     20  C   UNL     1      -4.288   3.625  25.404  0.00  0.00    +0.227 C 
ATOM     21  C   UNL     1      -3.820   3.583  24.726  0.00  0.00    +0.256 C 
ATOM     22  O   UNL     1      -3.412   4.250  24.464  0.00  0.00    -0.272 OA
ENDROOT
BRANCH   5   6
ATOM      6  C   UNL     1      -4.909   0.207  24.686  0.00  0.00    +0.099 C 
BRANCH   6   7
ATOM      7  C   UNL     1      -4.323  -0.372  24.722  0.00  0.00    -0.006 A 
ATOM      8  C   UNL     1      -4.093  -0.769  24.036  0.00  0.00    -0.002 A 
ATOM      9  C   UNL     1      -3.507  -1.348  24.071  0.00  0.00    +0.016 A 
ATOM     10  C   UNL     1      -3.150  -1.531  24.792  0.00  0.00    +0.073 A 
ATOM     15  C   UNL     1      -3.379  -1.134  25.478  0.00  0.00    +0.016 A 
ATOM     16  C   UNL     1      -3.966  -0.555  25.443  0.00  0.00    -0.002 A 
BRANCH  10  11
ATOM     11  N   UNL     1      -2.564  -2.109  24.827  0.00  0.00    -0.179 NA
ATOM     12  C   UNL     1      -1.773  -1.905  24.707  0.00  0.00    +0.246 C 
ATOM     13  C   UNL     1      -1.187  -2.484  24.742  0.00  0.00    +0.097 C 
ATOM     14  O   UNL     1      -1.570  -1.121  24.552  0.00  0.00    -0.273 OA
ENDBRANCH  10  11
ENDBRANCH   6   7
ENDBRANCH   5   6
TORSDOF 3
ENDMDL
