REMARK  Name = 
REMARK  13 active torsions:
REMARK  status: ('A' for Active; 'I' for Inactive)
REMARK    1  A    between atoms: S_2  and  C_3
REMARK    2  A    between atoms: C_3  and  C_4
REMARK    3  A    between atoms: N_6  and  C_7
REMARK    4  A    between atoms: C_7  and  C_8
REMARK    5  A    between atoms: C_8  and  C_9
REMARK    6  A    between atoms: C_9  and  C_10
REMARK    7  A    between atoms: C_10  and  N_11
REMARK    8  A    between atoms: C_10  and  C_36
REMARK    9  A    between atoms: C_12  and  C_14
REMARK   10  A    between atoms: C_15  and  N_24
REMARK   11  A    between atoms: C_19  and  C_21
REMARK   12  A    between atoms: C_21  and  S_22
REMARK   13  A    between atoms: N_27  and  C_28
REMARK                            x       y       z     vdW  Elec       q    Type
REMARK                         _______ _______ _______ _____ _____    ______ ____
ROOT
ATOM     14  C   UNL     1       6.280 -10.108   0.000  0.00  0.00    +0.174 C 
ATOM     15  C   UNL     1       7.034  -9.773   0.000  0.00  0.00    +0.126 C 
ATOM     16  C   UNL     1       7.586 -10.386   0.000  0.00  0.00    +0.045 C 
ATOM     17  C   UNL     1       7.174 -11.101   0.000  0.00  0.00    +0.096 C 
ATOM     18  N   UNL     1       6.367 -10.929   0.000  0.00  0.00    -0.271 N 
ATOM     19  C   UNL     1       5.754 -11.481   0.000  0.00  0.00    +0.237 C 
ATOM     20  O   UNL     1       4.969 -11.226   0.000  0.00  0.00    -0.274 OA
ENDROOT
BRANCH  15  24
ATOM     24  N   UNL     1       7.206  -8.966   0.000  0.00  0.00    -0.186 NA
ATOM     25  C   UNL     1       7.990  -8.711   0.000  0.00  0.00    +0.344 C 
ATOM     26  O   UNL     1       8.603  -9.263   0.000  0.00  0.00    -0.249 OA
ATOM     27  N   UNL     1       8.162  -7.904   0.000  0.00  0.00    -0.159 NA
BRANCH  27  28
ATOM     28  C   UNL     1       8.947  -7.649   0.000  0.00  0.00    +0.102 A 
ATOM     29  C   UNL     1       9.118  -6.842   0.000  0.00  0.00    +0.158 A 
ATOM     30  F   UNL     1       8.505  -6.290   0.000  0.00  0.00    -0.203 F 
ATOM     31  C   UNL     1       9.903  -6.587   0.000  0.00  0.00    +0.061 A 
ATOM     32  C   UNL     1      10.516  -7.139   0.000  0.00  0.00    +0.142 A 
ATOM     33  F   UNL     1      11.300  -6.884   0.000  0.00  0.00    -0.204 F 
ATOM     34  C   UNL     1      10.344  -7.946   0.000  0.00  0.00    +0.031 A 
ATOM     35  C   UNL     1       9.560  -8.201   0.000  0.00  0.00    +0.021 A 
ENDBRANCH  27  28
ENDBRANCH  15  24
BRANCH  14  12
ATOM     11  N   UNL     1       4.852 -10.108   0.000  0.00  0.00    -0.196 NA
ATOM     12  C   UNL     1       5.566  -9.696   0.000  0.00  0.00    +0.262 C 
ATOM     13  O   UNL     1       5.566  -8.871   0.000  0.00  0.00    -0.271 OA
BRANCH  11  10
ATOM     10  C   UNL     1       4.137  -9.696   0.000  0.00  0.00    +0.174 C 
BRANCH  10  36
ATOM     36  C   UNL     1       4.137  -8.871   0.000  0.00  0.00    +0.281 C 
ATOM     37  N   UNL     1       4.852  -8.459   0.000  0.00  0.00    -0.086 NA
ATOM     38  O   UNL     1       3.423  -8.459   0.000  0.00  0.00    -0.270 OA
ENDBRANCH  10  36
BRANCH  10   9
ATOM      9  C   UNL     1       3.423 -10.108   0.000  0.00  0.00    +0.033 C 
BRANCH   9   8
ATOM      8  C   UNL     1       2.708  -9.696   0.000  0.00  0.00    +0.026 C 
BRANCH   8   7
ATOM      7  C   UNL     1       1.994 -10.108   0.000  0.00  0.00    +0.115 C 
BRANCH   7   6
ATOM      4  C   UNL     1       0.565 -10.108   0.000  0.00  0.00    +0.252 C 
ATOM      5  O   UNL     1       0.565 -10.934   0.000  0.00  0.00    -0.272 OA
ATOM      6  N   UNL     1       1.279  -9.696   0.000  0.00  0.00    -0.205 NA
BRANCH   4   3
ATOM      3  C   UNL     1      -0.150  -9.696   0.000  0.00  0.00    +0.144 C 
BRANCH   3   2
ATOM      1  C   UNL     1      -1.579  -9.696   0.000  0.00  0.00    +0.070 C 
ATOM      2  S   UNL     1      -0.864 -10.108   0.000  0.00  0.00    -0.130 S 
ENDBRANCH   3   2
ENDBRANCH   4   3
ENDBRANCH   7   6
ENDBRANCH   8   7
ENDBRANCH   9   8
ENDBRANCH  10   9
ENDBRANCH  11  10
ENDBRANCH  14  12
BRANCH  19  21
ATOM     21  C   UNL     1       5.925 -12.288   0.000  0.00  0.00    +0.143 C 
BRANCH  21  22
ATOM     22  S   UNL     1       6.710 -12.543   0.000  0.00  0.00    -0.130 S 
ATOM     23  C   UNL     1       6.881 -13.350   0.000  0.00  0.00    +0.070 C 
ENDBRANCH  21  22
ENDBRANCH  19  21
TORSDOF 13
