MODEL 1
REMARK VINA RESULT:     -11.0      0.000      0.000
REMARK  Name = 
REMARK  5 active torsions:
REMARK  status: ('A' for Active; 'I' for Inactive)
REMARK    1  A    between atoms: C_2  and  C_3
REMARK    2  A    between atoms: C_3  and  N_4
REMARK    3  A    between atoms: C_12  and  O_14
REMARK    4  A    between atoms: O_14  and  C_15
REMARK    5  A    between atoms: C_18  and  C_21
REMARK                            x       y       z     vdW  Elec       q    Type
REMARK                         _______ _______ _______ _____ _____    ______ ____
ROOT
ATOM      4  N   UNL     1      -2.433   3.530  25.003  0.00  0.00    -0.188 NA
ATOM      5  C   UNL     1      -2.485   2.810  24.606  0.00  0.00    +0.323 C 
ATOM      6  O   UNL     1      -1.840   2.529  24.175  0.00  0.00    -0.251 OA
ATOM      7  N   UNL     1      -3.181   2.368  24.639  0.00  0.00    -0.257 N 
ATOM      8  C   UNL     1      -3.792   2.698  25.085  0.00  0.00    +0.127 C 
ATOM      9  C   UNL     1      -4.547   2.397  25.225  0.00  0.00    +0.164 C 
ATOM     10  O   UNL     1      -4.878   1.692  24.953  0.00  0.00    -0.348 OA
ATOM     11  C   UNL     1      -4.536   1.114  24.475  0.00  0.00    +0.187 C 
ATOM     12  C   UNL     1      -3.778   1.098  24.150  0.00  0.00    +0.217 C 
ATOM     13  C   UNL     1      -3.175   1.656  24.224  0.00  0.00    +0.141 C 
ENDROOT
BRANCH   4   3
ATOM      3  C   UNL     1      -1.737   3.971  24.969  0.00  0.00    +0.117 C 
BRANCH   3   2
ATOM      1  C   UNL     1      -1.242   5.311  25.008  0.00  0.00    +0.002 C 
ATOM      2  C   UNL     1      -1.696   4.708  25.339  0.00  0.00    +0.023 C 
ENDBRANCH   3   2
ENDBRANCH   4   3
BRANCH  12  14
ATOM     14  O   UNL     1      -3.598   0.436  23.692  0.00  0.00    -0.460 OA
BRANCH  14  15
ATOM     15  C   UNL     1      -3.576  -0.312  24.039  0.00  0.00    +0.225 A 
ATOM     16  C   UNL     1      -4.193  -0.845  23.912  0.00  0.00    +0.058 A 
ATOM     17  C   UNL     1      -4.170  -1.593  24.260  0.00  0.00    +0.010 A 
ATOM     18  C   UNL     1      -3.531  -1.808  24.734  0.00  0.00    +0.091 A 
ATOM     19  C   UNL     1      -2.913  -1.275  24.862  0.00  0.00    +0.106 A 
ATOM     20  N   UNL     1      -2.936  -0.527  24.514  0.00  0.00    -0.210 NA
BRANCH  18  21
ATOM     21  C   UNL     1      -3.508  -2.556  25.082  0.00  0.00    +0.420 C 
ATOM     22  F   UNL     1      -3.485  -3.304  25.431  0.00  0.00    -0.166 F 
ATOM     23  F   UNL     1      -3.374  -2.896  24.343  0.00  0.00    -0.166 F 
ATOM     24  F   UNL     1      -3.641  -2.216  25.822  0.00  0.00    -0.166 F 
ENDBRANCH  18  21
ENDBRANCH  14  15
ENDBRANCH  12  14
TORSDOF 5
ENDMDL
MODEL 2
REMARK VINA RESULT:     -10.6      1.737      2.383
REMARK  Name = 
REMARK  5 active torsions:
REMARK  status: ('A' for Active; 'I' for Inactive)
REMARK    1  A    between atoms: C_2  and  C_3
REMARK    2  A    between atoms: C_3  and  N_4
REMARK    3  A    between atoms: C_12  and  O_14
REMARK    4  A    between atoms: O_14  and  C_15
REMARK    5  A    between atoms: C_18  and  C_21
REMARK                            x       y       z     vdW  Elec       q    Type
REMARK                         _______ _______ _______ _____ _____    ______ ____
ROOT
ATOM      4  N   UNL     1      -1.044   2.891  24.924  0.00  0.00    -0.188 NA
ATOM      5  C   UNL     1      -1.367   2.195  25.225  0.00  0.00    +0.323 C 
ATOM      6  O   UNL     1      -1.978   2.229  25.778  0.00  0.00    -0.251 OA
ATOM      7  N   UNL     1      -1.079   1.463  24.974  0.00  0.00    -0.257 N 
ATOM      8  C   UNL     1      -0.468   1.491  24.421  0.00  0.00    +0.127 C 
ATOM      9  C   UNL     1      -0.067   0.863  24.066  0.00  0.00    +0.164 C 
ATOM     10  O   UNL     1      -0.178   0.052  24.177  0.00  0.00    -0.348 OA
ATOM     11  C   UNL     1      -0.718  -0.329  24.670  0.00  0.00    +0.187 C 
ATOM     12  C   UNL     1      -1.279   0.004  25.174  0.00  0.00    +0.217 C 
ATOM     13  C   UNL     1      -1.440   0.801  25.309  0.00  0.00    +0.141 C 
ENDROOT
BRANCH   4   3
ATOM      3  C   UNL     1      -1.331   3.621  25.175  0.00  0.00    +0.117 C 
BRANCH   3   2
ATOM      1  C   UNL     1      -1.281   5.044  25.048  0.00  0.00    +0.002 C 
ATOM      2  C   UNL     1      -0.906   4.310  25.016  0.00  0.00    +0.023 C 
ENDBRANCH   3   2
ENDBRANCH   4   3
BRANCH  12  14
ATOM     14  O   UNL     1      -1.742  -0.531  25.599  0.00  0.00    -0.460 OA
BRANCH  14  15
ATOM     15  C   UNL     1      -2.321  -0.973  25.212  0.00  0.00    +0.225 A 
ATOM     16  C   UNL     1      -3.109  -0.730  25.233  0.00  0.00    +0.058 A 
ATOM     17  C   UNL     1      -3.687  -1.172  24.846  0.00  0.00    +0.010 A 
ATOM     18  C   UNL     1      -3.479  -1.858  24.438  0.00  0.00    +0.091 A 
ATOM     19  C   UNL     1      -2.691  -2.102  24.417  0.00  0.00    +0.106 A 
ATOM     20  N   UNL     1      -2.112  -1.659  24.804  0.00  0.00    -0.210 NA
BRANCH  18  21
ATOM     21  C   UNL     1      -4.058  -2.300  24.051  0.00  0.00    +0.420 C 
ATOM     22  F   UNL     1      -4.637  -2.742  23.663  0.00  0.00    -0.166 F 
ATOM     23  F   UNL     1      -3.875  -2.952  24.522  0.00  0.00    -0.166 F 
ATOM     24  F   UNL     1      -4.241  -1.648  23.579  0.00  0.00    -0.166 F 
ENDBRANCH  18  21
ENDBRANCH  14  15
ENDBRANCH  12  14
TORSDOF 5
ENDMDL
MODEL 3
REMARK VINA RESULT:     -10.2      3.286      5.678
REMARK  Name = 
REMARK  5 active torsions:
REMARK  status: ('A' for Active; 'I' for Inactive)
REMARK    1  A    between atoms: C_2  and  C_3
REMARK    2  A    between atoms: C_3  and  N_4
REMARK    3  A    between atoms: C_12  and  O_14
REMARK    4  A    between atoms: O_14  and  C_15
REMARK    5  A    between atoms: C_18  and  C_21
REMARK                            x       y       z     vdW  Elec       q    Type
REMARK                         _______ _______ _______ _____ _____    ______ ____
ROOT
ATOM      4  N   UNL     1      -2.295  -1.188  24.625  0.00  0.00    -0.188 NA
ATOM      5  C   UNL     1      -2.120  -0.528  25.088  0.00  0.00    +0.323 C 
ATOM      6  O   UNL     1      -2.584  -0.353  25.748  0.00  0.00    -0.251 OA
ATOM      7  N   UNL     1      -1.483  -0.042  24.891  0.00  0.00    -0.257 N 
ATOM      8  C   UNL     1      -1.057  -0.266  24.221  0.00  0.00    +0.127 C 
ATOM      9  C   UNL     1      -0.398   0.101  23.885  0.00  0.00    +0.164 C 
ATOM     10  O   UNL     1      -0.004   0.781  24.135  0.00  0.00    -0.348 OA
ATOM     11  C   UNL     1      -0.171   1.262  24.783  0.00  0.00    +0.187 C 
ATOM     12  C   UNL     1      -0.773   1.184  25.342  0.00  0.00    +0.217 C 
ATOM     13  C   UNL     1      -1.356   0.603  25.389  0.00  0.00    +0.141 C 
ENDROOT
BRANCH   4   3
ATOM      3  C   UNL     1      -2.931  -1.673  24.822  0.00  0.00    +0.117 C 
BRANCH   3   2
ATOM      1  C   UNL     1      -3.763  -2.709  24.296  0.00  0.00    +0.002 C 
ATOM      2  C   UNL     1      -3.013  -2.413  24.466  0.00  0.00    +0.023 C 
ENDBRANCH   3   2
ENDBRANCH   4   3
BRANCH  12  14
ATOM     14  O   UNL     1      -0.794   1.762  25.930  0.00  0.00    -0.460 OA
BRANCH  14  15
ATOM     15  C   UNL     1      -0.945   2.547  25.730  0.00  0.00    +0.225 A 
ATOM     16  C   UNL     1      -0.320   3.076  25.629  0.00  0.00    +0.058 A 
ATOM     17  C   UNL     1      -0.472   3.862  25.430  0.00  0.00    +0.010 A 
ATOM     18  C   UNL     1      -1.248   4.120  25.330  0.00  0.00    +0.091 A 
ATOM     19  C   UNL     1      -1.875   3.591  25.431  0.00  0.00    +0.106 A 
ATOM     20  N   UNL     1      -1.722   2.805  25.631  0.00  0.00    -0.210 NA
BRANCH  18  21
ATOM     21  C   UNL     1      -1.400   4.905  25.131  0.00  0.00    +0.420 C 
ATOM     22  F   UNL     1      -1.552   5.692  24.930  0.00  0.00    -0.166 F 
ATOM     23  F   UNL     1      -2.039   4.915  25.652  0.00  0.00    -0.166 F 
ATOM     24  F   UNL     1      -0.761   4.896  24.608  0.00  0.00    -0.166 F 
ENDBRANCH  18  21
ENDBRANCH  14  15
ENDBRANCH  12  14
TORSDOF 5
ENDMDL
MODEL 4
REMARK VINA RESULT:      -9.9      2.791      5.061
REMARK  Name = 
REMARK  5 active torsions:
REMARK  status: ('A' for Active; 'I' for Inactive)
REMARK    1  A    between atoms: C_2  and  C_3
REMARK    2  A    between atoms: C_3  and  N_4
REMARK    3  A    between atoms: C_12  and  O_14
REMARK    4  A    between atoms: O_14  and  C_15
REMARK    5  A    between atoms: C_18  and  C_21
REMARK                            x       y       z     vdW  Elec       q    Type
REMARK                         _______ _______ _______ _____ _____    ______ ____
ROOT
ATOM      4  N   UNL     1      -3.920  -0.805  24.712  0.00  0.00    -0.188 NA
ATOM      5  C   UNL     1      -3.706  -0.083  24.376  0.00  0.00    +0.323 C 
ATOM      6  O   UNL     1      -3.065  -0.044  23.859  0.00  0.00    -0.251 OA
ATOM      7  N   UNL     1      -4.133   0.600  24.557  0.00  0.00    -0.257 N 
ATOM      8  C   UNL     1      -4.763   0.499  25.080  0.00  0.00    +0.127 C 
ATOM      9  C   UNL     1      -5.289   1.067  25.366  0.00  0.00    +0.164 C 
ATOM     10  O   UNL     1      -5.315   1.875  25.200  0.00  0.00    -0.348 OA
ATOM     11  C   UNL     1      -4.821   2.314  24.707  0.00  0.00    +0.187 C 
ATOM     12  C   UNL     1      -4.179   2.055  24.259  0.00  0.00    +0.217 C 
ATOM     13  C   UNL     1      -3.873   1.292  24.192  0.00  0.00    +0.141 C 
ENDROOT
BRANCH   4   3
ATOM      3  C   UNL     1      -3.494  -1.487  24.532  0.00  0.00    +0.117 C 
BRANCH   3   2
ATOM      1  C   UNL     1      -3.524  -2.912  24.634  0.00  0.00    +0.002 C 
ATOM      2  C   UNL     1      -3.594  -2.169  24.985  0.00  0.00    +0.023 C 
ENDBRANCH   3   2
ENDBRANCH   4   3
BRANCH  12  14
ATOM     14  O   UNL     1      -3.792   2.636  23.818  0.00  0.00    -0.460 OA
BRANCH  14  15
ATOM     15  C   UNL     1      -3.270   3.155  24.190  0.00  0.00    +0.225 A 
ATOM     16  C   UNL     1      -3.551   3.850  24.532  0.00  0.00    +0.058 A 
ATOM     17  C   UNL     1      -3.028   4.369  24.904  0.00  0.00    +0.010 A 
ATOM     18  C   UNL     1      -2.224   4.192  24.934  0.00  0.00    +0.091 A 
ATOM     19  C   UNL     1      -1.941   3.496  24.592  0.00  0.00    +0.106 A 
ATOM     20  N   UNL     1      -2.464   2.977  24.220  0.00  0.00    -0.210 NA
BRANCH  18  21
ATOM     21  C   UNL     1      -1.701   4.710  25.305  0.00  0.00    +0.420 C 
ATOM     22  F   UNL     1      -1.177   5.229  25.676  0.00  0.00    -0.166 F 
ATOM     23  F   UNL     1      -2.046   4.538  26.034  0.00  0.00    -0.166 F 
ATOM     24  F   UNL     1      -1.354   4.883  24.576  0.00  0.00    -0.166 F 
ENDBRANCH  18  21
ENDBRANCH  14  15
ENDBRANCH  12  14
TORSDOF 5
ENDMDL
