REMARK  Name = 
REMARK  8 active torsions:
REMARK  status: ('A' for Active; 'I' for Inactive)
REMARK    1  A    between atoms: C_4  and  C_5
REMARK    2  A    between atoms: C_5  and  N_6
REMARK    3  A    between atoms: N_6  and  C_7
REMARK    4  A    between atoms: C_12  and  C_13
REMARK    5  A    between atoms: C_13  and  C_14
REMARK    6  A    between atoms: C_14  and  C_15
REMARK    7  A    between atoms: N_17  and  C_18
REMARK    8  A    between atoms: C_18  and  C_19
REMARK                            x       y       z     vdW  Elec       q    Type
REMARK                         _______ _______ _______ _____ _____    ______ ____
ROOT
ATOM      7  C   UNL     1      -0.582  -3.745   0.000  0.00  0.00    +0.091 C 
ATOM      8  C   UNL     1      -0.410  -2.938   0.000  0.00  0.00    +0.044 C 
ATOM      9  C   UNL     1      -1.125  -2.526   0.000  0.00  0.00    +0.138 C 
ATOM     10  N   UNL     1      -1.738  -3.078   0.000  0.00  0.00    -0.265 NA
ATOM     11  C   UNL     1      -1.402  -3.831   0.000  0.00  0.00    +0.090 C 
ATOM     12  C   UNL     1      -2.522  -2.823   0.000  0.00  0.00    +0.080 C 
ATOM     25  C   UNL     1      -2.694  -2.016   0.000  0.00  0.00    +0.131 C 
ATOM     26  N   UNL     1      -2.081  -1.464   0.000  0.00  0.00    -0.203 NA
ATOM     27  C   UNL     1      -1.296  -1.719   0.000  0.00  0.00    +0.256 C 
ATOM     28  O   UNL     1      -0.683  -1.167   0.000  0.00  0.00    -0.272 OA
ENDROOT
BRANCH   7   6
ATOM      6  N   UNL     1      -0.029  -4.358   0.000  0.00  0.00    -0.213 NA
BRANCH   6   5
ATOM      5  C   UNL     1       0.777  -4.187   0.000  0.00  0.00    +0.116 C 
BRANCH   5   4
ATOM      1  C   UNL     1       0.777  -1.283   0.000  0.00  0.00    +0.130 C 
ATOM      2  N   UNL     1       1.032  -2.067   0.000  0.00  0.00    -0.324 N 
ATOM      3  C   UNL     1       0.547  -2.735   0.000  0.00  0.00    +0.073 A 
ATOM      4  C   UNL     1       1.032  -3.402   0.000  0.00  0.00    +0.014 A 
ATOM     29  C   UNL     1       1.817  -3.147   0.000  0.00  0.00    +0.015 A 
ATOM     30  C   UNL     1       1.817  -2.322   0.000  0.00  0.00    +0.060 A 
ATOM     31  C   UNL     1       2.531  -1.910   0.000  0.00  0.00    +0.017 A 
ATOM     32  C   UNL     1       3.246  -2.322   0.000  0.00  0.00    +0.001 A 
ATOM     33  C   UNL     1       3.246  -3.147   0.000  0.00  0.00    +0.000 A 
ATOM     34  C   UNL     1       2.531  -3.560   0.000  0.00  0.00    +0.001 A 
ENDBRANCH   5   4
ENDBRANCH   6   5
ENDBRANCH   7   6
BRANCH  12  13
ATOM     13  C   UNL     1      -3.135  -3.375   0.000  0.00  0.00    +0.027 C 
BRANCH  13  14
ATOM     14  C   UNL     1      -3.920  -3.120   0.000  0.00  0.00    +0.088 C 
BRANCH  14  15
ATOM     15  C   UNL     1      -4.533  -3.672   0.000  0.00  0.00    +0.242 C 
ATOM     16  O   UNL     1      -4.362  -4.479   0.000  0.00  0.00    -0.273 OA
ATOM     17  N   UNL     1      -5.318  -3.417   0.000  0.00  0.00    -0.201 NA
BRANCH  17  18
ATOM     18  C   UNL     1      -5.931  -3.969   0.000  0.00  0.00    +0.141 C 
BRANCH  18  19
ATOM     19  C   UNL     1      -6.715  -3.714   0.000  0.00  0.00    -0.001 A 
ATOM     20  C   UNL     1      -7.329  -4.266   0.000  0.00  0.00    -0.003 A 
ATOM     21  C   UNL     1      -8.113  -4.011   0.000  0.00  0.00    -0.000 A 
ATOM     22  C   UNL     1      -8.285  -3.204   0.000  0.00  0.00    -0.000 A 
ATOM     23  C   UNL     1      -7.671  -2.652   0.000  0.00  0.00    -0.000 A 
ATOM     24  C   UNL     1      -6.887  -2.907   0.000  0.00  0.00    -0.003 A 
ENDBRANCH  18  19
ENDBRANCH  17  18
ENDBRANCH  14  15
ENDBRANCH  13  14
ENDBRANCH  12  13
TORSDOF 8
