REMARK  Name = 
REMARK  8 active torsions:
REMARK  status: ('A' for Active; 'I' for Inactive)
REMARK    1  A    between atoms: N_2  and  C_4
REMARK    2  A    between atoms: C_4  and  C_5
REMARK    3  A    between atoms: C_5  and  N_6
REMARK    4  A    between atoms: N_6  and  C_8
REMARK    5  A    between atoms: C_21  and  C_22
REMARK    6  A    between atoms: C_22  and  C_23
REMARK    7  A    between atoms: N_25  and  C_26
REMARK    8  A    between atoms: C_26  and  C_27
REMARK                            x       y       z     vdW  Elec       q    Type
REMARK                         _______ _______ _______ _____ _____    ______ ____
ROOT
ATOM      8  C   UNL     1       8.183   0.598   0.000  0.00  0.00    +0.048 A 
ATOM      9  C   UNL     1       7.621   1.202   0.000  0.00  0.00    +0.015 A 
ATOM     10  C   UNL     1       6.817   1.016   0.000  0.00  0.00    +0.030 A 
ATOM     11  C   UNL     1       6.576   0.227   0.000  0.00  0.00    +0.136 A 
ATOM     12  O   UNL     1       6.869  -0.610   0.000  0.00  0.00    -0.476 OA
ATOM     13  C   UNL     1       6.242  -1.146   0.000  0.00  0.00    +0.205 C 
ATOM     14  C   UNL     1       5.539  -0.715   0.000  0.00  0.00    +0.047 C 
ATOM     15  C   UNL     1       4.645  -0.842   0.000  0.00  0.00    +0.006 C 
ATOM     16  C   UNL     1       4.109  -0.214   0.000  0.00  0.00    +0.021 C 
ATOM     17  C   UNL     1       4.383   0.563   0.000  0.00  0.00    +0.093 C 
ATOM     18  N   UNL     1       3.847   1.190   0.000  0.00  0.00    -0.278 N 
ATOM     19  C   UNL     1       3.036   1.040   0.000  0.00  0.00    +0.093 C 
ATOM     20  C   UNL     1       2.761   0.262   0.000  0.00  0.00    +0.022 C 
ATOM     21  C   UNL     1       3.297  -0.365   0.000  0.00  0.00    +0.012 C 
ATOM     33  C   UNL     1       4.122   1.968   0.000  0.00  0.00    +0.243 C 
ATOM     34  O   UNL     1       3.586   2.595   0.000  0.00  0.00    -0.273 OA
ATOM     35  C   UNL     1       4.933   2.119   0.000  0.00  0.00    +0.174 C 
ATOM     36  N   UNL     1       5.470   1.492   0.000  0.00  0.00    -0.204 NA
ATOM     37  C   UNL     1       6.281   1.643   0.000  0.00  0.00    +0.119 C 
ATOM     38  C   UNL     1       7.139  -0.377   0.000  0.00  0.00    +0.038 A 
ATOM     39  C   UNL     1       7.942  -0.191   0.000  0.00  0.00    +0.018 A 
ENDROOT
BRANCH   8   6
ATOM      6  N   UNL     1       8.987   0.784   0.000  0.00  0.00    -0.304 N 
ATOM      7  C   UNL     1       9.228   1.573   0.000  0.00  0.00    +0.112 C 
BRANCH   6   5
ATOM      5  C   UNL     1       9.550   0.181   0.000  0.00  0.00    +0.108 C 
BRANCH   5   4
ATOM      4  C   UNL     1      10.354   0.367   0.000  0.00  0.00    +0.094 C 
BRANCH   4   2
ATOM      1  C   UNL     1      11.720  -0.050   0.000  0.00  0.00    +0.090 C 
ATOM      2  N   UNL     1      10.917  -0.236   0.000  0.00  0.00    -0.269 NA
ATOM      3  C   UNL     1      10.676  -1.025   0.000  0.00  0.00    +0.090 C 
ENDBRANCH   4   2
ENDBRANCH   5   4
ENDBRANCH   6   5
ENDBRANCH   8   6
BRANCH  21  22
ATOM     22  C   UNL     1       3.022  -1.143   0.000  0.00  0.00    +0.087 C 
BRANCH  22  23
ATOM     23  C   UNL     1       3.559  -1.770   0.000  0.00  0.00    +0.242 C 
ATOM     24  O   UNL     1       4.370  -1.619   0.000  0.00  0.00    -0.273 OA
ATOM     25  N   UNL     1       3.284  -2.548   0.000  0.00  0.00    -0.199 NA
BRANCH  25  26
ATOM     26  C   UNL     1       2.473  -2.699   0.000  0.00  0.00    +0.160 C 
BRANCH  26  27
ATOM     27  C   UNL     1       1.936  -2.072   0.000  0.00  0.00    +0.081 A 
ATOM     28  C   UNL     1       1.125  -2.223   0.000  0.00  0.00    +0.017 A 
ATOM     29  C   UNL     1       0.589  -1.595   0.000  0.00  0.00    +0.003 A 
ATOM     30  C   UNL     1       0.864  -0.818   0.000  0.00  0.00    +0.021 A 
ATOM     31  C   UNL     1       1.675  -0.667   0.000  0.00  0.00    +0.099 A 
ATOM     32  N   UNL     1       2.211  -1.294   0.000  0.00  0.00    -0.246 NA
ENDBRANCH  26  27
ENDBRANCH  25  26
ENDBRANCH  22  23
ENDBRANCH  21  22
TORSDOF 8
