MODEL 1
REMARK VINA RESULT:     -10.6      0.000      0.000
REMARK  Name = 
REMARK  7 active torsions:
REMARK  status: ('A' for Active; 'I' for Inactive)
REMARK    1  A    between atoms: C_2  and  C_3
REMARK    2  A    between atoms: C_3  and  C_4
REMARK    3  A    between atoms: C_4  and  C_5
REMARK    4  A    between atoms: C_7  and  C_8
REMARK    5  A    between atoms: C_8  and  C_9
REMARK    6  A    between atoms: C_14  and  C_15
REMARK    7  A    between atoms: C_15  and  C_16
REMARK                            x       y       z     vdW  Elec       q    Type
REMARK                         _______ _______ _______ _____ _____    ______ ____
ROOT
ATOM      9  C   UNL     1      -4.459   2.100  24.809  0.00  0.00    +0.024 C 
ATOM     10  C   UNL     1      -5.265   1.949  24.897  0.00  0.00    +0.089 C 
ATOM     11  N   UNL     1      -5.751   2.502  25.268  0.00  0.00    -0.218 NA
ATOM     12  C   UNL     1      -5.430   3.207  25.553  0.00  0.00    +0.089 C 
ATOM     13  C   UNL     1      -4.624   3.359  25.465  0.00  0.00    +0.019 C 
ATOM     14  C   UNL     1      -4.138   2.805  25.093  0.00  0.00    +0.012 C 
ENDROOT
BRANCH   9   8
ATOM      8  C   UNL     1      -3.972   1.546  24.437  0.00  0.00    +0.051 C 
BRANCH   8   7
ATOM      5  C   UNL     1      -4.155  -0.580  24.477  0.00  0.00    +0.154 A 
ATOM      6  C   UNL     1      -4.058   0.127  24.063  0.00  0.00    +0.054 A 
ATOM      7  C   UNL     1      -4.055   0.744  24.610  0.00  0.00    +0.100 A 
ATOM     24  N   UNL     1      -4.151   0.419  25.362  0.00  0.00    -0.082 NA
ATOM     25  O   UNL     1      -4.212  -0.399  25.280  0.00  0.00    -0.358 OA
BRANCH   5   4
ATOM      4  C   UNL     1      -4.189  -1.335  24.146  0.00  0.00    +0.067 C 
BRANCH   4   3
ATOM      3  C   UNL     1      -3.759  -1.953  24.483  0.00  0.00    +0.008 C 
BRANCH   3   2
ATOM      1  C   UNL     1      -3.363  -3.326  24.488  0.00  0.00    +0.000 C 
ATOM      2  C   UNL     1      -3.762  -2.699  24.130  0.00  0.00    +0.000 C 
ENDBRANCH   3   2
ENDBRANCH   4   3
ENDBRANCH   5   4
ENDBRANCH   8   7
ENDBRANCH   9   8
BRANCH  14  15
ATOM     15  C   UNL     1      -3.332   2.957  25.005  0.00  0.00    +0.085 C 
BRANCH  15  16
ATOM     16  C   UNL     1      -3.066   3.731  24.907  0.00  0.00    +0.226 C 
ATOM     17  O   UNL     1      -3.590   4.320  24.660  0.00  0.00    -0.275 OA
ATOM     18  N   UNL     1      -2.277   3.919  25.055  0.00  0.00    -0.274 N 
ATOM     19  C   UNL     1      -2.011   4.694  24.956  0.00  0.00    +0.125 C 
ATOM     20  C   UNL     1      -1.221   4.881  25.105  0.00  0.00    +0.164 C 
ATOM     21  O   UNL     1      -0.697   4.294  25.351  0.00  0.00    -0.350 OA
ATOM     22  C   UNL     1      -0.963   3.518  25.449  0.00  0.00    +0.164 C 
ATOM     23  C   UNL     1      -1.752   3.331  25.301  0.00  0.00    +0.125 C 
ENDBRANCH  15  16
ENDBRANCH  14  15
TORSDOF 7
ENDMDL
MODEL 2
REMARK VINA RESULT:      -9.7      1.121      4.844
REMARK  Name = 
REMARK  7 active torsions:
REMARK  status: ('A' for Active; 'I' for Inactive)
REMARK    1  A    between atoms: C_2  and  C_3
REMARK    2  A    between atoms: C_3  and  C_4
REMARK    3  A    between atoms: C_4  and  C_5
REMARK    4  A    between atoms: C_7  and  C_8
REMARK    5  A    between atoms: C_8  and  C_9
REMARK    6  A    between atoms: C_14  and  C_15
REMARK    7  A    between atoms: C_15  and  C_16
REMARK                            x       y       z     vdW  Elec       q    Type
REMARK                         _______ _______ _______ _____ _____    ______ ____
ROOT
ATOM      9  C   UNL     1      -4.454   1.607  24.631  0.00  0.00    +0.024 C 
ATOM     10  C   UNL     1      -5.080   2.110  24.819  0.00  0.00    +0.089 C 
ATOM     11  N   UNL     1      -5.743   1.816  25.212  0.00  0.00    -0.218 NA
ATOM     12  C   UNL     1      -5.780   1.018  25.418  0.00  0.00    +0.089 C 
ATOM     13  C   UNL     1      -5.153   0.514  25.230  0.00  0.00    +0.019 C 
ATOM     14  C   UNL     1      -4.491   0.808  24.837  0.00  0.00    +0.012 C 
ENDROOT
BRANCH   9   8
ATOM      8  C   UNL     1      -3.791   1.901  24.237  0.00  0.00    +0.051 C 
BRANCH   8   7
ATOM      5  C   UNL     1      -2.958   3.793  24.769  0.00  0.00    +0.154 A 
ATOM      6  C   UNL     1      -2.995   2.972  24.853  0.00  0.00    +0.054 A 
ATOM      7  C   UNL     1      -3.571   2.690  24.335  0.00  0.00    +0.100 A 
ATOM     24  N   UNL     1      -3.889   3.335  23.931  0.00  0.00    -0.082 NA
ATOM     25  O   UNL     1      -3.510   4.016  24.199  0.00  0.00    -0.358 OA
BRANCH   5   4
ATOM      4  C   UNL     1      -2.456   4.300  25.183  0.00  0.00    +0.067 C 
BRANCH   4   3
ATOM      3  C   UNL     1      -1.688   4.433  24.912  0.00  0.00    +0.008 C 
BRANCH   3   2
ATOM      1  C   UNL     1      -0.542   5.281  24.815  0.00  0.00    +0.000 C 
ATOM      2  C   UNL     1      -1.281   5.113  25.143  0.00  0.00    +0.000 C 
ENDBRANCH   3   2
ENDBRANCH   4   3
ENDBRANCH   5   4
ENDBRANCH   8   7
ENDBRANCH   9   8
BRANCH  14  15
ATOM     15  C   UNL     1      -3.865   0.304  24.648  0.00  0.00    +0.085 C 
BRANCH  15  16
ATOM     16  C   UNL     1      -4.014  -0.482  24.451  0.00  0.00    +0.226 C 
ATOM     17  O   UNL     1      -4.756  -0.703  24.163  0.00  0.00    -0.275 OA
ATOM     18  N   UNL     1      -3.423  -1.050  24.542  0.00  0.00    -0.274 N 
ATOM     19  C   UNL     1      -3.572  -1.837  24.345  0.00  0.00    +0.125 C 
ATOM     20  C   UNL     1      -2.979  -2.404  24.436  0.00  0.00    +0.164 C 
ATOM     21  O   UNL     1      -2.239  -2.184  24.724  0.00  0.00    -0.350 OA
ATOM     22  C   UNL     1      -2.090  -1.397  24.921  0.00  0.00    +0.164 C 
ATOM     23  C   UNL     1      -2.681  -0.830  24.830  0.00  0.00    +0.125 C 
ENDBRANCH  15  16
ENDBRANCH  14  15
TORSDOF 7
ENDMDL
MODEL 3
REMARK VINA RESULT:      -9.5      1.292      5.104
REMARK  Name = 
REMARK  7 active torsions:
REMARK  status: ('A' for Active; 'I' for Inactive)
REMARK    1  A    between atoms: C_2  and  C_3
REMARK    2  A    between atoms: C_3  and  C_4
REMARK    3  A    between atoms: C_4  and  C_5
REMARK    4  A    between atoms: C_7  and  C_8
REMARK    5  A    between atoms: C_8  and  C_9
REMARK    6  A    between atoms: C_14  and  C_15
REMARK    7  A    between atoms: C_15  and  C_16
REMARK                            x       y       z     vdW  Elec       q    Type
REMARK                         _______ _______ _______ _____ _____    ______ ____
ROOT
ATOM      9  C   UNL     1      -3.515   1.312  24.552  0.00  0.00    +0.024 C 
ATOM     10  C   UNL     1      -3.908   2.018  24.711  0.00  0.00    +0.089 C 
ATOM     11  N   UNL     1      -4.692   2.007  24.967  0.00  0.00    -0.218 NA
ATOM     12  C   UNL     1      -5.083   1.286  25.064  0.00  0.00    +0.089 C 
ATOM     13  C   UNL     1      -4.689   0.578  24.904  0.00  0.00    +0.019 C 
ATOM     14  C   UNL     1      -3.905   0.591  24.649  0.00  0.00    +0.012 C 
ENDROOT
BRANCH   9   8
ATOM      8  C   UNL     1      -2.730   1.323  24.296  0.00  0.00    +0.051 C 
BRANCH   8   7
ATOM      5  C   UNL     1      -1.388   2.893  24.838  0.00  0.00    +0.154 A 
ATOM      6  C   UNL     1      -1.912   2.545  24.303  0.00  0.00    +0.054 A 
ATOM      7  C   UNL     1      -2.193   1.847  24.640  0.00  0.00    +0.100 A 
ATOM     24  N   UNL     1      -1.844   1.763  25.383  0.00  0.00    -0.082 NA
ATOM     25  O   UNL     1      -1.346   2.409  25.505  0.00  0.00    -0.358 OA
BRANCH   5   4
ATOM      4  C   UNL     1      -0.978   3.600  24.725  0.00  0.00    +0.067 C 
BRANCH   4   3
ATOM      3  C   UNL     1      -1.256   4.297  25.066  0.00  0.00    +0.008 C 
BRANCH   3   2
ATOM      1  C   UNL     1      -1.293   5.718  24.925  0.00  0.00    +0.000 C 
ATOM      2  C   UNL     1      -0.869   5.011  24.921  0.00  0.00    +0.000 C 
ENDBRANCH   3   2
ENDBRANCH   4   3
ENDBRANCH   5   4
ENDBRANCH   8   7
ENDBRANCH   9   8
BRANCH  14  15
ATOM     15  C   UNL     1      -3.512  -0.117  24.489  0.00  0.00    +0.085 C 
BRANCH  15  16
ATOM     16  C   UNL     1      -3.941  -0.787  24.274  0.00  0.00    +0.226 C 
ATOM     17  O   UNL     1      -4.716  -0.712  24.002  0.00  0.00    -0.275 OA
ATOM     18  N   UNL     1      -3.595  -1.534  24.332  0.00  0.00    -0.274 N 
ATOM     19  C   UNL     1      -4.024  -2.205  24.117  0.00  0.00    +0.125 C 
ATOM     20  C   UNL     1      -3.678  -2.952  24.174  0.00  0.00    +0.164 C 
ATOM     21  O   UNL     1      -2.904  -3.028  24.447  0.00  0.00    -0.350 OA
ATOM     22  C   UNL     1      -2.474  -2.356  24.662  0.00  0.00    +0.164 C 
ATOM     23  C   UNL     1      -2.820  -1.610  24.604  0.00  0.00    +0.125 C 
ENDBRANCH  15  16
ENDBRANCH  14  15
TORSDOF 7
ENDMDL
MODEL 4
REMARK VINA RESULT:      -9.2      2.411      5.885
REMARK  Name = 
REMARK  7 active torsions:
REMARK  status: ('A' for Active; 'I' for Inactive)
REMARK    1  A    between atoms: C_2  and  C_3
REMARK    2  A    between atoms: C_3  and  C_4
REMARK    3  A    between atoms: C_4  and  C_5
REMARK    4  A    between atoms: C_7  and  C_8
REMARK    5  A    between atoms: C_8  and  C_9
REMARK    6  A    between atoms: C_14  and  C_15
REMARK    7  A    between atoms: C_15  and  C_16
REMARK                            x       y       z     vdW  Elec       q    Type
REMARK                         _______ _______ _______ _____ _____    ______ ____
ROOT
ATOM      9  C   UNL     1      -0.661   0.593  24.812  0.00  0.00    +0.024 C 
ATOM     10  C   UNL     1       0.013   0.968  24.521  0.00  0.00    +0.089 C 
ATOM     11  N   UNL     1       0.416   0.652  23.874  0.00  0.00    -0.218 NA
ATOM     12  C   UNL     1       0.142  -0.041  23.518  0.00  0.00    +0.089 C 
ATOM     13  C   UNL     1      -0.532  -0.416  23.809  0.00  0.00    +0.019 C 
ATOM     14  C   UNL     1      -0.934  -0.100  24.456  0.00  0.00    +0.012 C 
ENDROOT
BRANCH   9   8
ATOM      8  C   UNL     1      -1.063   0.909  25.460  0.00  0.00    +0.051 C 
BRANCH   8   7
ATOM      5  C   UNL     1      -1.208   3.020  25.742  0.00  0.00    +0.154 A 
ATOM      6  C   UNL     1      -1.510   2.310  25.449  0.00  0.00    +0.054 A 
ATOM      7  C   UNL     1      -0.980   1.709  25.645  0.00  0.00    +0.100 A 
ATOM     24  N   UNL     1      -0.352   2.047  26.059  0.00  0.00    -0.082 NA
ATOM     25  O   UNL     1      -0.493   2.857  26.119  0.00  0.00    -0.358 OA
BRANCH   5   4
ATOM      4  C   UNL     1      -1.561   3.762  25.671  0.00  0.00    +0.067 C 
BRANCH   4   3
ATOM      3  C   UNL     1      -1.207   4.345  25.206  0.00  0.00    +0.008 C 
BRANCH   3   2
ATOM      1  C   UNL     1      -1.133   5.708  24.785  0.00  0.00    +0.000 C 
ATOM      2  C   UNL     1      -1.539   5.099  25.166  0.00  0.00    +0.000 C 
ENDBRANCH   3   2
ENDBRANCH   4   3
ENDBRANCH   5   4
ENDBRANCH   8   7
ENDBRANCH   9   8
BRANCH  14  15
ATOM     15  C   UNL     1      -1.609  -0.475  24.747  0.00  0.00    +0.085 C 
BRANCH  15  16
ATOM     16  C   UNL     1      -1.694  -1.291  24.664  0.00  0.00    +0.226 C 
ATOM     17  O   UNL     1      -1.026  -1.775  24.621  0.00  0.00    -0.275 OA
ATOM     18  N   UNL     1      -2.447  -1.625  24.622  0.00  0.00    -0.274 N 
ATOM     19  C   UNL     1      -2.533  -2.441  24.538  0.00  0.00    +0.125 C 
ATOM     20  C   UNL     1      -3.287  -2.775  24.496  0.00  0.00    +0.164 C 
ATOM     21  O   UNL     1      -3.954  -2.292  24.539  0.00  0.00    -0.350 OA
ATOM     22  C   UNL     1      -3.868  -1.475  24.622  0.00  0.00    +0.164 C 
ATOM     23  C   UNL     1      -3.115  -1.142  24.664  0.00  0.00    +0.125 C 
ENDBRANCH  15  16
ENDBRANCH  14  15
TORSDOF 7
ENDMDL
MODEL 5
REMARK VINA RESULT:      -9.1      2.097      3.108
REMARK  Name = 
REMARK  7 active torsions:
REMARK  status: ('A' for Active; 'I' for Inactive)
REMARK    1  A    between atoms: C_2  and  C_3
REMARK    2  A    between atoms: C_3  and  C_4
REMARK    3  A    between atoms: C_4  and  C_5
REMARK    4  A    between atoms: C_7  and  C_8
REMARK    5  A    between atoms: C_8  and  C_9
REMARK    6  A    between atoms: C_14  and  C_15
REMARK    7  A    between atoms: C_15  and  C_16
REMARK                            x       y       z     vdW  Elec       q    Type
REMARK                         _______ _______ _______ _____ _____    ______ ____
ROOT
ATOM      9  C   UNL     1      -0.782   0.748  24.910  0.00  0.00    +0.024 C 
ATOM     10  C   UNL     1      -0.433   0.108  24.525  0.00  0.00    +0.089 C 
ATOM     11  N   UNL     1       0.097   0.236  23.906  0.00  0.00    -0.218 NA
ATOM     12  C   UNL     1       0.278   1.007  23.672  0.00  0.00    +0.089 C 
ATOM     13  C   UNL     1      -0.072   1.648  24.057  0.00  0.00    +0.019 C 
ATOM     14  C   UNL     1      -0.601   1.519  24.676  0.00  0.00    +0.012 C 
ENDROOT
BRANCH   9   8
ATOM      8  C   UNL     1      -1.312   0.620  25.530  0.00  0.00    +0.051 C 
BRANCH   8   7
ATOM      5  C   UNL     1      -2.739  -0.962  25.391  0.00  0.00    +0.154 A 
ATOM      6  C   UNL     1      -2.508  -0.183  25.240  0.00  0.00    +0.054 A 
ATOM      7  C   UNL     1      -1.754  -0.076  25.555  0.00  0.00    +0.100 A 
ATOM     24  N   UNL     1      -1.517  -0.788  25.899  0.00  0.00    -0.082 NA
ATOM     25  O   UNL     1      -2.126  -1.335  25.797  0.00  0.00    -0.358 OA
BRANCH   5   4
ATOM      4  C   UNL     1      -3.456  -1.306  25.172  0.00  0.00    +0.067 C 
BRANCH   4   3
ATOM      3  C   UNL     1      -3.489  -1.814  24.523  0.00  0.00    +0.008 C 
BRANCH   3   2
ATOM      1  C   UNL     1      -4.295  -2.636  23.677  0.00  0.00    +0.000 C 
ATOM      2  C   UNL     1      -4.212  -1.970  24.158  0.00  0.00    +0.000 C 
ENDBRANCH   3   2
ENDBRANCH   4   3
ENDBRANCH   5   4
ENDBRANCH   8   7
ENDBRANCH   9   8
BRANCH  14  15
ATOM     15  C   UNL     1      -0.950   2.160  25.061  0.00  0.00    +0.085 C 
BRANCH  15  16
ATOM     16  C   UNL     1      -0.658   2.922  24.940  0.00  0.00    +0.226 C 
ATOM     17  O   UNL     1       0.104   3.030  24.641  0.00  0.00    -0.275 OA
ATOM     18  N   UNL     1      -1.127   3.577  25.118  0.00  0.00    -0.274 N 
ATOM     19  C   UNL     1      -0.836   4.338  24.997  0.00  0.00    +0.125 C 
ATOM     20  C   UNL     1      -1.306   4.993  25.176  0.00  0.00    +0.164 C 
ATOM     21  O   UNL     1      -2.067   4.885  25.475  0.00  0.00    -0.350 OA
ATOM     22  C   UNL     1      -2.358   4.122  25.595  0.00  0.00    +0.164 C 
ATOM     23  C   UNL     1      -1.889   3.469  25.417  0.00  0.00    +0.125 C 
ENDBRANCH  15  16
ENDBRANCH  14  15
TORSDOF 7
ENDMDL
MODEL 6
REMARK VINA RESULT:      -9.1      1.852      3.093
REMARK  Name = 
REMARK  7 active torsions:
REMARK  status: ('A' for Active; 'I' for Inactive)
REMARK    1  A    between atoms: C_2  and  C_3
REMARK    2  A    between atoms: C_3  and  C_4
REMARK    3  A    between atoms: C_4  and  C_5
REMARK    4  A    between atoms: C_7  and  C_8
REMARK    5  A    between atoms: C_8  and  C_9
REMARK    6  A    between atoms: C_14  and  C_15
REMARK    7  A    between atoms: C_15  and  C_16
REMARK                            x       y       z     vdW  Elec       q    Type
REMARK                         _______ _______ _______ _____ _____    ______ ____
ROOT
ATOM      9  C   UNL     1      -1.227   1.687  24.938  0.00  0.00    +0.024 C 
ATOM     10  C   UNL     1      -0.454   1.582  25.205  0.00  0.00    +0.089 C 
ATOM     11  N   UNL     1      -0.140   2.091  25.773  0.00  0.00    -0.218 NA
ATOM     12  C   UNL     1      -0.600   2.705  26.076  0.00  0.00    +0.089 C 
ATOM     13  C   UNL     1      -1.374   2.810  25.809  0.00  0.00    +0.019 C 
ATOM     14  C   UNL     1      -1.687   2.302  25.240  0.00  0.00    +0.012 C 
ENDROOT
BRANCH   9   8
ATOM      8  C   UNL     1      -1.541   1.179  24.369  0.00  0.00    +0.051 C 
BRANCH   8   7
ATOM      5  C   UNL     1      -1.589  -0.935  24.662  0.00  0.00    +0.154 A 
ATOM      6  C   UNL     1      -1.951  -0.194  24.698  0.00  0.00    +0.054 A 
ATOM      7  C   UNL     1      -1.410   0.366  24.427  0.00  0.00    +0.100 A 
ATOM     24  N   UNL     1      -0.714  -0.028  24.223  0.00  0.00    -0.082 NA
ATOM     25  O   UNL     1      -0.825  -0.832  24.368  0.00  0.00    -0.358 OA
BRANCH   5   4
ATOM      4  C   UNL     1      -1.931  -1.653  24.881  0.00  0.00    +0.067 C 
BRANCH   4   3
ATOM      3  C   UNL     1      -2.666  -1.871  24.575  0.00  0.00    +0.008 C 
BRANCH   3   2
ATOM      1  C   UNL     1      -3.671  -2.875  24.428  0.00  0.00    +0.000 C 
ATOM      2  C   UNL     1      -3.046  -2.547  24.855  0.00  0.00    +0.000 C 
ENDBRANCH   3   2
ENDBRANCH   4   3
ENDBRANCH   5   4
ENDBRANCH   8   7
ENDBRANCH   9   8
BRANCH  14  15
ATOM     15  C   UNL     1      -2.462   2.407  24.974  0.00  0.00    +0.085 C 
BRANCH  15  16
ATOM     16  C   UNL     1      -2.868   3.102  25.153  0.00  0.00    +0.226 C 
ATOM     17  O   UNL     1      -2.451   3.800  25.293  0.00  0.00    -0.275 OA
ATOM     18  N   UNL     1      -3.692   3.100  25.193  0.00  0.00    -0.274 N 
ATOM     19  C   UNL     1      -4.099   3.794  25.372  0.00  0.00    +0.125 C 
ATOM     20  C   UNL     1      -4.923   3.791  25.412  0.00  0.00    +0.164 C 
ATOM     21  O   UNL     1      -5.340   3.093  25.272  0.00  0.00    -0.350 OA
ATOM     22  C   UNL     1      -4.932   2.398  25.092  0.00  0.00    +0.164 C 
ATOM     23  C   UNL     1      -4.109   2.401  25.053  0.00  0.00    +0.125 C 
ENDBRANCH  15  16
ENDBRANCH  14  15
TORSDOF 7
ENDMDL
MODEL 7
REMARK VINA RESULT:      -9.0      2.663      4.217
REMARK  Name = 
REMARK  7 active torsions:
REMARK  status: ('A' for Active; 'I' for Inactive)
REMARK    1  A    between atoms: C_2  and  C_3
REMARK    2  A    between atoms: C_3  and  C_4
REMARK    3  A    between atoms: C_4  and  C_5
REMARK    4  A    between atoms: C_7  and  C_8
REMARK    5  A    between atoms: C_8  and  C_9
REMARK    6  A    between atoms: C_14  and  C_15
REMARK    7  A    between atoms: C_15  and  C_16
REMARK                            x       y       z     vdW  Elec       q    Type
REMARK                         _______ _______ _______ _____ _____    ______ ____
ROOT
ATOM      9  C   UNL     1      -2.873  -0.766  24.746  0.00  0.00    +0.024 C 
ATOM     10  C   UNL     1      -2.749  -1.561  24.565  0.00  0.00    +0.089 C 
ATOM     11  N   UNL     1      -3.355  -2.008  24.229  0.00  0.00    -0.218 NA
ATOM     12  C   UNL     1      -4.087  -1.659  24.073  0.00  0.00    +0.089 C 
ATOM     13  C   UNL     1      -4.211  -0.863  24.255  0.00  0.00    +0.019 C 
ATOM     14  C   UNL     1      -3.605  -0.417  24.591  0.00  0.00    +0.012 C 
ENDROOT
BRANCH   9   8
ATOM      8  C   UNL     1      -2.267  -0.319  25.083  0.00  0.00    +0.051 C 
BRANCH   8   7
ATOM      5  C   UNL     1      -0.309  -0.212  24.239  0.00  0.00    +0.154 A 
ATOM      6  C   UNL     1      -1.058   0.112  24.366  0.00  0.00    +0.054 A 
ATOM      7  C   UNL     1      -1.490  -0.420  24.825  0.00  0.00    +0.100 A 
ATOM     24  N   UNL     1      -1.009  -1.071  24.981  0.00  0.00    -0.082 NA
ATOM     25  O   UNL     1      -0.279  -0.943  24.619  0.00  0.00    -0.358 OA
BRANCH   5   4
ATOM      4  C   UNL     1       0.302   0.136  23.807  0.00  0.00    +0.067 C 
BRANCH   4   3
ATOM      3  C   UNL     1       0.636  -0.265  23.167  0.00  0.00    +0.008 C 
BRANCH   3   2
ATOM      1  C   UNL     1       1.590  -0.326  22.106  0.00  0.00    +0.000 C 
ATOM      2  C   UNL     1       1.270   0.067  22.758  0.00  0.00    +0.000 C 
ENDBRANCH   3   2
ENDBRANCH   4   3
ENDBRANCH   5   4
ENDBRANCH   8   7
ENDBRANCH   9   8
BRANCH  14  15
ATOM     15  C   UNL     1      -3.730   0.378  24.772  0.00  0.00    +0.085 C 
BRANCH  15  16
ATOM     16  C   UNL     1      -4.445   0.617  25.107  0.00  0.00    +0.226 C 
ATOM     17  O   UNL     1      -4.914   0.072  25.512  0.00  0.00    -0.275 OA
ATOM     18  N   UNL     1      -4.691   1.402  25.038  0.00  0.00    -0.274 N 
ATOM     19  C   UNL     1      -5.406   1.641  25.373  0.00  0.00    +0.125 C 
ATOM     20  C   UNL     1      -5.651   2.426  25.304  0.00  0.00    +0.164 C 
ATOM     21  O   UNL     1      -5.182   2.971  24.900  0.00  0.00    -0.350 OA
ATOM     22  C   UNL     1      -4.467   2.731  24.565  0.00  0.00    +0.164 C 
ATOM     23  C   UNL     1      -4.221   1.947  24.634  0.00  0.00    +0.125 C 
ENDBRANCH  15  16
ENDBRANCH  14  15
TORSDOF 7
ENDMDL
MODEL 8
REMARK VINA RESULT:      -8.6      1.985      4.622
REMARK  Name = 
REMARK  7 active torsions:
REMARK  status: ('A' for Active; 'I' for Inactive)
REMARK    1  A    between atoms: C_2  and  C_3
REMARK    2  A    between atoms: C_3  and  C_4
REMARK    3  A    between atoms: C_4  and  C_5
REMARK    4  A    between atoms: C_7  and  C_8
REMARK    5  A    between atoms: C_8  and  C_9
REMARK    6  A    between atoms: C_14  and  C_15
REMARK    7  A    between atoms: C_15  and  C_16
REMARK                            x       y       z     vdW  Elec       q    Type
REMARK                         _______ _______ _______ _____ _____    ______ ____
ROOT
ATOM      9  C   UNL     1      -1.447   2.444  25.018  0.00  0.00    +0.024 C 
ATOM     10  C   UNL     1      -1.176   3.163  25.317  0.00  0.00    +0.089 C 
ATOM     11  N   UNL     1      -0.546   3.178  25.849  0.00  0.00    -0.218 NA
ATOM     12  C   UNL     1      -0.187   2.473  26.082  0.00  0.00    +0.089 C 
ATOM     13  C   UNL     1      -0.458   1.753  25.783  0.00  0.00    +0.019 C 
ATOM     14  C   UNL     1      -1.088   1.738  25.251  0.00  0.00    +0.012 C 
ENDROOT
BRANCH   9   8
ATOM      8  C   UNL     1      -2.078   2.429  24.485  0.00  0.00    +0.051 C 
BRANCH   8   7
ATOM      5  C   UNL     1      -3.939   3.341  24.993  0.00  0.00    +0.154 A 
ATOM      6  C   UNL     1      -3.434   2.688  24.988  0.00  0.00    +0.054 A 
ATOM      7  C   UNL     1      -2.735   2.911  24.612  0.00  0.00    +0.100 A 
ATOM     24  N   UNL     1      -2.807   3.701  24.386  0.00  0.00    -0.082 NA
ATOM     25  O   UNL     1      -3.551   3.967  24.621  0.00  0.00    -0.358 OA
BRANCH   5   4
ATOM      4  C   UNL     1      -4.699   3.364  25.315  0.00  0.00    +0.067 C 
BRANCH   4   3
ATOM      3  C   UNL     1      -5.153   2.676  25.350  0.00  0.00    +0.008 C 
BRANCH   3   2
ATOM      1  C   UNL     1      -6.291   1.971  25.849  0.00  0.00    +0.000 C 
ATOM      2  C   UNL     1      -5.866   2.674  25.764  0.00  0.00    +0.000 C 
ENDBRANCH   3   2
ENDBRANCH   4   3
ENDBRANCH   5   4
ENDBRANCH   8   7
ENDBRANCH   9   8
BRANCH  14  15
ATOM     15  C   UNL     1      -1.359   1.019  24.951  0.00  0.00    +0.085 C 
BRANCH  15  16
ATOM     16  C   UNL     1      -0.829   0.399  24.825  0.00  0.00    +0.226 C 
ATOM     17  O   UNL     1      -0.036   0.561  24.663  0.00  0.00    -0.275 OA
ATOM     18  N   UNL     1      -1.091  -0.382  24.861  0.00  0.00    -0.274 N 
ATOM     19  C   UNL     1      -0.562  -1.001  24.734  0.00  0.00    +0.125 C 
ATOM     20  C   UNL     1      -0.825  -1.783  24.770  0.00  0.00    +0.164 C 
ATOM     21  O   UNL     1      -1.617  -1.944  24.932  0.00  0.00    -0.350 OA
ATOM     22  C   UNL     1      -2.147  -1.324  25.059  0.00  0.00    +0.164 C 
ATOM     23  C   UNL     1      -1.885  -0.543  25.023  0.00  0.00    +0.125 C 
ENDBRANCH  15  16
ENDBRANCH  14  15
TORSDOF 7
ENDMDL
