MODEL 1
REMARK VINA RESULT:     -11.3      0.000      0.000
REMARK  Name = 
REMARK  6 active torsions:
REMARK  status: ('A' for Active; 'I' for Inactive)
REMARK    1  A    between atoms: C_2  and  C_9
REMARK    2  A    between atoms: C_16  and  C_17
REMARK    3  A    between atoms: C_17  and  N_18
REMARK    4  A    between atoms: C_20  and  C_21
REMARK    5  A    between atoms: C_21  and  O_22
REMARK    6  A    between atoms: O_22  and  C_23
REMARK                            x       y       z     vdW  Elec       q    Type
REMARK                         _______ _______ _______ _____ _____    ______ ____
ROOT
ATOM      9  C   UNL     1      -3.709  -0.201  24.526  0.00  0.00    +0.095 C 
ATOM     10  C   UNL     1      -3.633   0.295  23.931  0.00  0.00    +0.081 C 
ATOM     11  N   UNL     1      -4.139   0.383  24.578  0.00  0.00    -0.272 NA
ATOM     12  C   UNL     1      -4.000  -0.453  25.195  0.00  0.00    +0.072 C 
ATOM     13  C   UNL     1      -4.145  -0.791  25.735  0.00  0.00    +0.018 C 
ATOM     14  C   UNL     1      -4.207  -0.108  25.157  0.00  0.00    +0.013 C 
ATOM     15  C   UNL     1      -4.778   0.524  25.367  0.00  0.00    +0.019 C 
ATOM     16  C   UNL     1      -4.734   1.037  24.803  0.00  0.00    +0.082 C 
ENDROOT
BRANCH   9   2
ATOM      1  O   UNL     1      -3.596  -1.626  24.473  0.00  0.00    -0.273 OA
ATOM      2  C   UNL     1      -3.241  -0.882  24.512  0.00  0.00    +0.248 C 
ATOM      3  N   UNL     1      -2.420  -0.817  24.537  0.00  0.00    -0.154 NA
ATOM      4  C   UNL     1      -1.952  -1.497  24.523  0.00  0.00    +0.186 A 
ATOM      5  N   UNL     1      -1.127  -1.520  24.545  0.00  0.00    -0.221 NA
ATOM      6  C   UNL     1      -0.893  -2.310  24.521  0.00  0.00    +0.108 A 
ATOM      7  C   UNL     1      -1.573  -2.776  24.484  0.00  0.00    +0.059 A 
ATOM      8  S   UNL     1      -2.227  -2.274  24.486  0.00  0.00    -0.049 S 
ENDBRANCH   9   2
BRANCH  16  17
ATOM     17  C   UNL     1      -5.043   1.757  24.547  0.00  0.00    +0.145 C 
BRANCH  17  18
ATOM     18  N   UNL     1      -4.786   2.462  24.889  0.00  0.00    -0.229 N 
ATOM     19  C   UNL     1      -4.093   2.868  24.700  0.00  0.00    +0.117 A 
ATOM     20  C   UNL     1      -4.055   3.542  25.175  0.00  0.00    +0.144 A 
ATOM     29  N   UNL     1      -4.724   3.551  25.658  0.00  0.00    -0.129 NA
ATOM     30  N   UNL     1      -5.175   2.884  25.481  0.00  0.00    -0.064 NA
BRANCH  20  21
ATOM     21  C   UNL     1      -3.454   4.106  25.168  0.00  0.00    +0.254 C 
BRANCH  21  22
ATOM     22  O   UNL     1      -2.761   3.976  25.598  0.00  0.00    -0.469 OA
BRANCH  22  23
ATOM     23  C   UNL     1      -2.054   4.325  25.355  0.00  0.00    +0.139 A 
ATOM     24  C   UNL     1      -1.392   3.855  25.209  0.00  0.00    +0.037 A 
ATOM     25  C   UNL     1      -0.685   4.204  24.966  0.00  0.00    +0.003 A 
ATOM     26  C   UNL     1      -0.639   5.022  24.870  0.00  0.00    +0.000 A 
ATOM     27  C   UNL     1      -1.302   5.491  25.017  0.00  0.00    +0.003 A 
ATOM     28  C   UNL     1      -2.009   5.143  25.260  0.00  0.00    +0.037 A 
ENDBRANCH  22  23
ENDBRANCH  21  22
ENDBRANCH  20  21
ENDBRANCH  17  18
ENDBRANCH  16  17
TORSDOF 6
ENDMDL
MODEL 2
REMARK VINA RESULT:     -10.1      2.023      3.325
REMARK  Name = 
REMARK  6 active torsions:
REMARK  status: ('A' for Active; 'I' for Inactive)
REMARK    1  A    between atoms: C_2  and  C_9
REMARK    2  A    between atoms: C_16  and  C_17
REMARK    3  A    between atoms: C_17  and  N_18
REMARK    4  A    between atoms: C_20  and  C_21
REMARK    5  A    between atoms: C_21  and  O_22
REMARK    6  A    between atoms: O_22  and  C_23
REMARK                            x       y       z     vdW  Elec       q    Type
REMARK                         _______ _______ _______ _____ _____    ______ ____
ROOT
ATOM      9  C   UNL     1      -0.789   0.329  25.088  0.00  0.00    +0.095 C 
ATOM     10  C   UNL     1      -1.055   0.594  25.769  0.00  0.00    +0.081 C 
ATOM     11  N   UNL     1      -0.620   1.025  25.216  0.00  0.00    -0.272 NA
ATOM     12  C   UNL     1      -0.418   0.382  24.413  0.00  0.00    +0.072 C 
ATOM     13  C   UNL     1      -0.150   0.271  23.827  0.00  0.00    +0.018 C 
ATOM     14  C   UNL     1      -0.362   0.758  24.550  0.00  0.00    +0.013 C 
ATOM     15  C   UNL     1      -0.081   1.590  24.551  0.00  0.00    +0.019 C 
ATOM     16  C   UNL     1      -0.324   1.888  25.210  0.00  0.00    +0.082 C 
ENDROOT
BRANCH   9   2
ATOM      1  O   UNL     1      -0.343  -0.968  24.684  0.00  0.00    -0.273 OA
ATOM      2  C   UNL     1      -0.955  -0.457  24.896  0.00  0.00    +0.248 C 
ATOM      3  N   UNL     1      -1.732  -0.731  24.918  0.00  0.00    -0.154 NA
ATOM      4  C   UNL     1      -1.898  -1.515  24.727  0.00  0.00    +0.186 A 
ATOM      5  N   UNL     1      -2.645  -1.867  24.724  0.00  0.00    -0.221 NA
ATOM      6  C   UNL     1      -2.555  -2.656  24.500  0.00  0.00    +0.108 A 
ATOM      7  C   UNL     1      -1.752  -2.792  24.365  0.00  0.00    +0.059 A 
ATOM      8  S   UNL     1      -1.347  -2.088  24.505  0.00  0.00    -0.049 S 
ENDBRANCH   9   2
BRANCH  16  17
ATOM     17  C   UNL     1      -0.321   2.582  25.655  0.00  0.00    +0.145 C 
BRANCH  17  18
ATOM     18  N   UNL     1      -0.883   3.168  25.509  0.00  0.00    -0.229 N 
ATOM     19  C   UNL     1      -1.693   3.110  25.655  0.00  0.00    +0.117 A 
ATOM     20  C   UNL     1      -2.044   3.822  25.428  0.00  0.00    +0.144 A 
ATOM     29  N   UNL     1      -1.451   4.319  25.141  0.00  0.00    -0.129 NA
ATOM     30  N   UNL     1      -0.734   3.915  25.191  0.00  0.00    -0.064 NA
BRANCH  20  21
ATOM     21  C   UNL     1      -2.847   4.005  25.479  0.00  0.00    +0.254 C 
BRANCH  21  22
ATOM     22  O   UNL     1      -3.356   3.801  24.862  0.00  0.00    -0.469 OA
BRANCH  22  23
ATOM     23  C   UNL     1      -4.118   3.531  25.028  0.00  0.00    +0.139 A 
ATOM     24  C   UNL     1      -4.372   2.805  24.729  0.00  0.00    +0.037 A 
ATOM     25  C   UNL     1      -5.134   2.535  24.895  0.00  0.00    +0.003 A 
ATOM     26  C   UNL     1      -5.641   2.991  25.360  0.00  0.00    +0.000 A 
ATOM     27  C   UNL     1      -5.386   3.717  25.658  0.00  0.00    +0.003 A 
ATOM     28  C   UNL     1      -4.625   3.987  25.492  0.00  0.00    +0.037 A 
ENDBRANCH  22  23
ENDBRANCH  21  22
ENDBRANCH  20  21
ENDBRANCH  17  18
ENDBRANCH  16  17
TORSDOF 6
ENDMDL
MODEL 3
REMARK VINA RESULT:      -9.9      2.012      5.609
REMARK  Name = 
REMARK  6 active torsions:
REMARK  status: ('A' for Active; 'I' for Inactive)
REMARK    1  A    between atoms: C_2  and  C_9
REMARK    2  A    between atoms: C_16  and  C_17
REMARK    3  A    between atoms: C_17  and  N_18
REMARK    4  A    between atoms: C_20  and  C_21
REMARK    5  A    between atoms: C_21  and  O_22
REMARK    6  A    between atoms: O_22  and  C_23
REMARK                            x       y       z     vdW  Elec       q    Type
REMARK                         _______ _______ _______ _____ _____    ______ ____
ROOT
ATOM      9  C   UNL     1      -2.603   2.785  24.578  0.00  0.00    +0.095 C 
ATOM     10  C   UNL     1      -2.661   2.321  23.956  0.00  0.00    +0.081 C 
ATOM     11  N   UNL     1      -1.973   2.480  24.383  0.00  0.00    -0.272 NA
ATOM     12  C   UNL     1      -2.232   3.139  25.156  0.00  0.00    +0.072 C 
ATOM     13  C   UNL     1      -2.067   3.498  25.676  0.00  0.00    +0.018 C 
ATOM     14  C   UNL     1      -1.923   2.936  24.991  0.00  0.00    +0.013 C 
ATOM     15  C   UNL     1      -1.098   2.654  24.890  0.00  0.00    +0.019 C 
ATOM     16  C   UNL     1      -1.113   2.191  24.283  0.00  0.00    +0.082 C 
ENDROOT
BRANCH   9   2
ATOM      1  O   UNL     1      -3.308   3.975  24.940  0.00  0.00    -0.273 OA
ATOM      2  C   UNL     1      -3.293   3.156  24.839  0.00  0.00    +0.248 C 
ATOM      3  N   UNL     1      -3.966   2.708  24.998  0.00  0.00    -0.154 NA
ATOM      4  C   UNL     1      -4.656   3.079  25.259  0.00  0.00    +0.186 A 
ATOM      5  N   UNL     1      -5.369   2.705  25.440  0.00  0.00    -0.221 NA
ATOM      6  C   UNL     1      -5.907   3.284  25.677  0.00  0.00    +0.108 A 
ATOM      7  C   UNL     1      -5.527   4.015  25.643  0.00  0.00    +0.059 A 
ATOM      8  S   UNL     1      -4.754   3.888  25.385  0.00  0.00    -0.049 S 
ENDBRANCH   9   2
BRANCH  16  17
ATOM     17  C   UNL     1      -0.633   1.712  23.814  0.00  0.00    +0.145 C 
BRANCH  17  18
ATOM     18  N   UNL     1      -0.495   0.928  24.030  0.00  0.00    -0.229 N 
ATOM     19  C   UNL     1      -1.044   0.313  23.997  0.00  0.00    +0.117 A 
ATOM     20  C   UNL     1      -0.672  -0.374  24.263  0.00  0.00    +0.144 A 
ATOM     29  N   UNL     1       0.106  -0.183  24.460  0.00  0.00    -0.129 NA
ATOM     30  N   UNL     1       0.215   0.621  24.315  0.00  0.00    -0.064 NA
BRANCH  20  21
ATOM     21  C   UNL     1      -1.018  -1.121  24.322  0.00  0.00    +0.254 C 
BRANCH  21  22
ATOM     22  O   UNL     1      -1.504  -1.301  24.965  0.00  0.00    -0.469 OA
BRANCH  22  23
ATOM     23  C   UNL     1      -2.144  -1.812  24.868  0.00  0.00    +0.139 A 
ATOM     24  C   UNL     1      -2.047  -2.520  24.456  0.00  0.00    +0.037 A 
ATOM     25  C   UNL     1      -2.687  -3.032  24.359  0.00  0.00    +0.003 A 
ATOM     26  C   UNL     1      -3.424  -2.835  24.673  0.00  0.00    +0.000 A 
ATOM     27  C   UNL     1      -3.521  -2.126  25.085  0.00  0.00    +0.003 A 
ATOM     28  C   UNL     1      -2.881  -1.615  25.182  0.00  0.00    +0.037 A 
ENDBRANCH  22  23
ENDBRANCH  21  22
ENDBRANCH  20  21
ENDBRANCH  17  18
ENDBRANCH  16  17
TORSDOF 6
ENDMDL
MODEL 4
REMARK VINA RESULT:      -9.8      3.793      5.775
REMARK  Name = 
REMARK  6 active torsions:
REMARK  status: ('A' for Active; 'I' for Inactive)
REMARK    1  A    between atoms: C_2  and  C_9
REMARK    2  A    between atoms: C_16  and  C_17
REMARK    3  A    between atoms: C_17  and  N_18
REMARK    4  A    between atoms: C_20  and  C_21
REMARK    5  A    between atoms: C_21  and  O_22
REMARK    6  A    between atoms: O_22  and  C_23
REMARK                            x       y       z     vdW  Elec       q    Type
REMARK                         _______ _______ _______ _____ _____    ______ ____
ROOT
ATOM      9  C   UNL     1      -2.204   1.165  24.391  0.00  0.00    +0.095 C 
ATOM     10  C   UNL     1      -2.090   0.495  24.771  0.00  0.00    +0.081 C 
ATOM     11  N   UNL     1      -1.586   0.829  24.209  0.00  0.00    -0.272 NA
ATOM     12  C   UNL     1      -2.026   1.726  23.892  0.00  0.00    +0.072 C 
ATOM     13  C   UNL     1      -2.017   2.263  23.520  0.00  0.00    +0.018 C 
ATOM     14  C   UNL     1      -1.705   1.486  23.841  0.00  0.00    +0.013 C 
ATOM     15  C   UNL     1      -0.936   1.215  23.515  0.00  0.00    +0.019 C 
ATOM     16  C   UNL     1      -0.787   0.553  23.865  0.00  0.00    +0.082 C 
ENDROOT
BRANCH   9   2
ATOM      1  O   UNL     1      -2.863   2.401  24.678  0.00  0.00    -0.273 OA
ATOM      2  C   UNL     1      -2.894   1.584  24.565  0.00  0.00    +0.248 C 
ATOM      3  N   UNL     1      -3.614   1.187  24.625  0.00  0.00    -0.154 NA
ATOM      4  C   UNL     1      -4.303   1.606  24.798  0.00  0.00    +0.186 A 
ATOM      5  N   UNL     1      -5.060   1.286  24.875  0.00  0.00    -0.221 NA
ATOM      6  C   UNL     1      -5.581   1.901  25.049  0.00  0.00    +0.108 A 
ATOM      7  C   UNL     1      -5.147   2.602  25.080  0.00  0.00    +0.059 A 
ATOM      8  S   UNL     1      -4.357   2.419  24.924  0.00  0.00    -0.049 S 
ENDBRANCH   9   2
BRANCH  16  17
ATOM     17  C   UNL     1      -0.230  -0.054  23.908  0.00  0.00    +0.145 C 
BRANCH  17  18
ATOM     18  N   UNL     1       0.441  -0.032  23.429  0.00  0.00    -0.229 N 
ATOM     19  C   UNL     1       1.188   0.235  23.654  0.00  0.00    +0.117 A 
ATOM     20  C   UNL     1       1.692   0.158  23.004  0.00  0.00    +0.144 A 
ATOM     29  N   UNL     1       1.256  -0.158  22.379  0.00  0.00    -0.129 NA
ATOM     30  N   UNL     1       0.483  -0.275  22.642  0.00  0.00    -0.064 NA
BRANCH  20  21
ATOM     21  C   UNL     1       2.492   0.360  22.984  0.00  0.00    +0.254 C 
BRANCH  21  22
ATOM     22  O   UNL     1       3.061  -0.220  22.844  0.00  0.00    -0.469 OA
BRANCH  22  23
ATOM     23  C   UNL     1       3.839  -0.104  23.092  0.00  0.00    +0.139 A 
ATOM     24  C   UNL     1       4.232  -0.696  23.509  0.00  0.00    +0.037 A 
ATOM     25  C   UNL     1       5.010  -0.580  23.758  0.00  0.00    +0.003 A 
ATOM     26  C   UNL     1       5.395   0.130  23.589  0.00  0.00    +0.000 A 
ATOM     27  C   UNL     1       5.001   0.723  23.171  0.00  0.00    +0.003 A 
ATOM     28  C   UNL     1       4.223   0.607  22.923  0.00  0.00    +0.037 A 
ENDBRANCH  22  23
ENDBRANCH  21  22
ENDBRANCH  20  21
ENDBRANCH  17  18
ENDBRANCH  16  17
TORSDOF 6
ENDMDL
MODEL 5
REMARK VINA RESULT:      -9.6      2.292      6.103
REMARK  Name = 
REMARK  6 active torsions:
REMARK  status: ('A' for Active; 'I' for Inactive)
REMARK    1  A    between atoms: C_2  and  C_9
REMARK    2  A    between atoms: C_16  and  C_17
REMARK    3  A    between atoms: C_17  and  N_18
REMARK    4  A    between atoms: C_20  and  C_21
REMARK    5  A    between atoms: C_21  and  O_22
REMARK    6  A    between atoms: O_22  and  C_23
REMARK                            x       y       z     vdW  Elec       q    Type
REMARK                         _______ _______ _______ _____ _____    ______ ____
ROOT
ATOM      9  C   UNL     1      -0.641   2.467  24.501  0.00  0.00    +0.095 C 
ATOM     10  C   UNL     1      -0.959   2.141  23.870  0.00  0.00    +0.081 C 
ATOM     11  N   UNL     1      -0.387   1.801  24.359  0.00  0.00    -0.272 NA
ATOM     12  C   UNL     1      -0.174   2.495  25.115  0.00  0.00    +0.072 C 
ATOM     13  C   UNL     1       0.155   2.666  25.653  0.00  0.00    +0.018 C 
ATOM     14  C   UNL     1      -0.081   2.127  24.976  0.00  0.00    +0.013 C 
ATOM     15  C   UNL     1       0.322   1.348  24.945  0.00  0.00    +0.019 C 
ATOM     16  C   UNL     1       0.036   0.993  24.333  0.00  0.00    +0.082 C 
ENDROOT
BRANCH   9   2
ATOM      1  O   UNL     1      -0.364   3.855  24.707  0.00  0.00    -0.273 OA
ATOM      2  C   UNL     1      -0.898   3.225  24.705  0.00  0.00    +0.248 C 
ATOM      3  N   UNL     1      -1.687   3.353  24.905  0.00  0.00    -0.154 NA
ATOM      4  C   UNL     1      -1.943   4.110  25.108  0.00  0.00    +0.186 A 
ATOM      5  N   UNL     1      -2.713   4.323  25.321  0.00  0.00    -0.221 NA
ATOM      6  C   UNL     1      -2.720   5.132  25.478  0.00  0.00    +0.108 A 
ATOM      7  C   UNL     1      -1.956   5.421  25.363  0.00  0.00    +0.059 A 
ATOM      8  S   UNL     1      -1.476   4.790  25.135  0.00  0.00    -0.049 S 
ENDBRANCH   9   2
BRANCH  16  17
ATOM     17  C   UNL     1       0.082   0.292  23.902  0.00  0.00    +0.145 C 
BRANCH  17  18
ATOM     18  N   UNL     1      -0.228  -0.406  24.214  0.00  0.00    -0.229 N 
ATOM     19  C   UNL     1      -0.971  -0.724  24.047  0.00  0.00    +0.117 A 
ATOM     20  C   UNL     1      -1.051  -1.423  24.478  0.00  0.00    +0.144 A 
ATOM     29  N   UNL     1      -0.358  -1.537  24.911  0.00  0.00    -0.129 NA
ATOM     30  N   UNL     1       0.151  -0.909  24.748  0.00  0.00    -0.064 NA
BRANCH  20  21
ATOM     21  C   UNL     1      -1.709  -1.921  24.476  0.00  0.00    +0.254 C 
BRANCH  21  22
ATOM     22  O   UNL     1      -2.422  -1.663  24.803  0.00  0.00    -0.469 OA
BRANCH  22  23
ATOM     23  C   UNL     1      -3.138  -1.943  24.504  0.00  0.00    +0.139 A 
ATOM     24  C   UNL     1      -3.695  -1.413  24.207  0.00  0.00    +0.037 A 
ATOM     25  C   UNL     1      -4.411  -1.693  23.907  0.00  0.00    +0.003 A 
ATOM     26  C   UNL     1      -4.569  -2.502  23.905  0.00  0.00    +0.000 A 
ATOM     27  C   UNL     1      -4.011  -3.032  24.202  0.00  0.00    +0.003 A 
ATOM     28  C   UNL     1      -3.295  -2.753  24.502  0.00  0.00    +0.037 A 
ENDBRANCH  22  23
ENDBRANCH  21  22
ENDBRANCH  20  21
ENDBRANCH  17  18
ENDBRANCH  16  17
TORSDOF 6
ENDMDL
MODEL 6
REMARK VINA RESULT:      -9.4      2.864      4.385
REMARK  Name = 
REMARK  6 active torsions:
REMARK  status: ('A' for Active; 'I' for Inactive)
REMARK    1  A    between atoms: C_2  and  C_9
REMARK    2  A    between atoms: C_16  and  C_17
REMARK    3  A    between atoms: C_17  and  N_18
REMARK    4  A    between atoms: C_20  and  C_21
REMARK    5  A    between atoms: C_21  and  O_22
REMARK    6  A    between atoms: O_22  and  C_23
REMARK                            x       y       z     vdW  Elec       q    Type
REMARK                         _______ _______ _______ _____ _____    ______ ____
ROOT
ATOM      9  C   UNL     1       0.137   0.041  23.873  0.00  0.00    +0.095 C 
ATOM     10  C   UNL     1      -0.013  -0.722  23.884  0.00  0.00    +0.081 C 
ATOM     11  N   UNL     1      -0.525  -0.121  24.124  0.00  0.00    -0.272 NA
ATOM     12  C   UNL     1      -0.023   0.789  23.983  0.00  0.00    +0.072 C 
ATOM     13  C   UNL     1      -0.008   1.441  24.018  0.00  0.00    +0.018 C 
ATOM     14  C   UNL     1      -0.371   0.626  24.110  0.00  0.00    +0.013 C 
ATOM     15  C   UNL     1      -1.187   0.600  24.431  0.00  0.00    +0.019 C 
ATOM     16  C   UNL     1      -1.374  -0.139  24.459  0.00  0.00    +0.082 C 
ENDROOT
BRANCH   9   2
ATOM      1  O   UNL     1       1.256   0.930  23.928  0.00  0.00    -0.273 OA
ATOM      2  C   UNL     1       0.878   0.277  23.594  0.00  0.00    +0.248 C 
ATOM      3  N   UNL     1       1.240  -0.141  22.983  0.00  0.00    -0.154 NA
ATOM      4  C   UNL     1       1.980   0.093  22.705  0.00  0.00    +0.186 A 
ATOM      5  N   UNL     1       2.409  -0.269  22.099  0.00  0.00    -0.221 NA
ATOM      6  C   UNL     1       3.116   0.146  22.004  0.00  0.00    +0.108 A 
ATOM      7  C   UNL     1       3.124   0.764  22.550  0.00  0.00    +0.059 A 
ATOM      8  S   UNL     1       2.423   0.731  22.983  0.00  0.00    -0.049 S 
ENDBRANCH   9   2
BRANCH  16  17
ATOM     17  C   UNL     1      -1.984  -0.652  24.668  0.00  0.00    +0.145 C 
BRANCH  17  18
ATOM     18  N   UNL     1      -2.770  -0.426  24.560  0.00  0.00    -0.229 N 
ATOM     19  C   UNL     1      -3.173   0.149  24.994  0.00  0.00    +0.117 A 
ATOM     20  C   UNL     1      -3.943   0.196  24.700  0.00  0.00    +0.144 A 
ATOM     29  N   UNL     1      -4.015  -0.350  24.085  0.00  0.00    -0.129 NA
ATOM     30  N   UNL     1      -3.291  -0.734  23.999  0.00  0.00    -0.064 NA
BRANCH  20  21
ATOM     21  C   UNL     1      -4.536   0.700  24.973  0.00  0.00    +0.254 C 
BRANCH  21  22
ATOM     22  O   UNL     1      -4.725   1.383  24.550  0.00  0.00    -0.469 OA
BRANCH  22  23
ATOM     23  C   UNL     1      -5.053   2.032  24.940  0.00  0.00    +0.139 A 
ATOM     24  C   UNL     1      -4.676   2.764  24.910  0.00  0.00    +0.037 A 
ATOM     25  C   UNL     1      -5.003   3.413  25.300  0.00  0.00    +0.003 A 
ATOM     26  C   UNL     1      -5.709   3.330  25.719  0.00  0.00    +0.000 A 
ATOM     27  C   UNL     1      -6.086   2.596  25.748  0.00  0.00    +0.003 A 
ATOM     28  C   UNL     1      -5.759   1.947  25.359  0.00  0.00    +0.037 A 
ENDBRANCH  22  23
ENDBRANCH  21  22
ENDBRANCH  20  21
ENDBRANCH  17  18
ENDBRANCH  16  17
TORSDOF 6
ENDMDL
MODEL 7
REMARK VINA RESULT:      -9.3      1.737      5.107
REMARK  Name = 
REMARK  6 active torsions:
REMARK  status: ('A' for Active; 'I' for Inactive)
REMARK    1  A    between atoms: C_2  and  C_9
REMARK    2  A    between atoms: C_16  and  C_17
REMARK    3  A    between atoms: C_17  and  N_18
REMARK    4  A    between atoms: C_20  and  C_21
REMARK    5  A    between atoms: C_21  and  O_22
REMARK    6  A    between atoms: O_22  and  C_23
REMARK                            x       y       z     vdW  Elec       q    Type
REMARK                         _______ _______ _______ _____ _____    ______ ____
ROOT
ATOM      9  C   UNL     1      -3.506   2.970  25.083  0.00  0.00    +0.095 C 
ATOM     10  C   UNL     1      -3.420   2.488  25.688  0.00  0.00    +0.081 C 
ATOM     11  N   UNL     1      -3.956   2.400  25.066  0.00  0.00    -0.272 NA
ATOM     12  C   UNL     1      -3.818   3.214  24.421  0.00  0.00    +0.072 C 
ATOM     13  C   UNL     1      -3.976   3.542  23.878  0.00  0.00    +0.018 C 
ATOM     14  C   UNL     1      -4.034   2.877  24.477  0.00  0.00    +0.013 C 
ATOM     15  C   UNL     1      -4.634   2.259  24.309  0.00  0.00    +0.019 C 
ATOM     16  C   UNL     1      -4.582   1.760  24.886  0.00  0.00    +0.082 C 
ENDROOT
BRANCH   9   2
ATOM      1  O   UNL     1      -3.347   4.390  25.023  0.00  0.00    -0.273 OA
ATOM      2  C   UNL     1      -3.016   3.635  25.058  0.00  0.00    +0.248 C 
ATOM      3  N   UNL     1      -2.197   3.543  25.067  0.00  0.00    -0.154 NA
ATOM      4  C   UNL     1      -1.708   4.207  25.042  0.00  0.00    +0.186 A 
ATOM      5  N   UNL     1      -0.882   4.203  25.047  0.00  0.00    -0.221 NA
ATOM      6  C   UNL     1      -0.623   4.985  25.015  0.00  0.00    +0.108 A 
ATOM      7  C   UNL     1      -1.287   5.473  24.990  0.00  0.00    +0.059 A 
ATOM      8  S   UNL     1      -1.957   4.992  25.006  0.00  0.00    -0.049 S 
ENDBRANCH   9   2
BRANCH  16  17
ATOM     17  C   UNL     1      -4.903   1.058  25.174  0.00  0.00    +0.145 C 
BRANCH  17  18
ATOM     18  N   UNL     1      -4.619   0.332  24.903  0.00  0.00    -0.229 N 
ATOM     19  C   UNL     1      -3.935  -0.048  25.165  0.00  0.00    +0.117 A 
ATOM     20  C   UNL     1      -3.863  -0.757  24.746  0.00  0.00    +0.144 A 
ATOM     29  N   UNL     1      -4.501  -0.812  24.227  0.00  0.00    -0.129 NA
ATOM     30  N   UNL     1      -4.968  -0.140  24.324  0.00  0.00    -0.064 NA
BRANCH  20  21
ATOM     21  C   UNL     1      -3.258  -1.311  24.833  0.00  0.00    +0.254 C 
BRANCH  21  22
ATOM     22  O   UNL     1      -2.576  -1.253  24.371  0.00  0.00    -0.469 OA
BRANCH  22  23
ATOM     23  C   UNL     1      -1.867  -1.577  24.640  0.00  0.00    +0.139 A 
ATOM     24  C   UNL     1      -1.279  -1.086  24.946  0.00  0.00    +0.037 A 
ATOM     25  C   UNL     1      -0.570  -1.410  25.215  0.00  0.00    +0.003 A 
ATOM     26  C   UNL     1      -0.448  -2.224  25.178  0.00  0.00    +0.000 A 
ATOM     27  C   UNL     1      -1.036  -2.716  24.871  0.00  0.00    +0.003 A 
ATOM     28  C   UNL     1      -1.746  -2.392  24.602  0.00  0.00    +0.037 A 
ENDBRANCH  22  23
ENDBRANCH  21  22
ENDBRANCH  20  21
ENDBRANCH  17  18
ENDBRANCH  16  17
TORSDOF 6
ENDMDL
MODEL 8
REMARK VINA RESULT:      -8.6     15.911     18.162
REMARK  Name = 
REMARK  6 active torsions:
REMARK  status: ('A' for Active; 'I' for Inactive)
REMARK    1  A    between atoms: C_2  and  C_9
REMARK    2  A    between atoms: C_16  and  C_17
REMARK    3  A    between atoms: C_17  and  N_18
REMARK    4  A    between atoms: C_20  and  C_21
REMARK    5  A    between atoms: C_21  and  O_22
REMARK    6  A    between atoms: O_22  and  C_23
REMARK                            x       y       z     vdW  Elec       q    Type
REMARK                         _______ _______ _______ _____ _____    ______ ____
ROOT
ATOM      9  C   UNL     1      -5.100  -9.403   9.609  0.00  0.00    +0.095 C 
ATOM     10  C   UNL     1      -4.934 -10.139   9.419  0.00  0.00    +0.081 C 
ATOM     11  N   UNL     1      -4.500  -9.658   9.930  0.00  0.00    -0.272 NA
ATOM     12  C   UNL     1      -4.986  -8.731   9.971  0.00  0.00    +0.072 C 
ATOM     13  C   UNL     1      -5.026  -8.119  10.198  0.00  0.00    +0.018 C 
ATOM     14  C   UNL     1      -4.668  -8.937  10.111  0.00  0.00    +0.013 C 
ATOM     15  C   UNL     1      -3.935  -9.088  10.570  0.00  0.00    +0.019 C 
ATOM     16  C   UNL     1      -3.738  -9.808  10.410  0.00  0.00    +0.082 C 
ENDROOT
BRANCH   9   2
ATOM      1  O   UNL     1      -5.725  -8.333   8.896  0.00  0.00    -0.273 OA
ATOM      2  C   UNL     1      -5.774  -9.068   9.269  0.00  0.00    +0.248 C 
ATOM      3  N   UNL     1      -6.494  -9.467   9.302  0.00  0.00    -0.154 NA
ATOM      4  C   UNL     1      -7.167  -9.132   8.963  0.00  0.00    +0.186 A 
ATOM      5  N   UNL     1      -7.923  -9.464   8.952  0.00  0.00    -0.221 NA
ATOM      6  C   UNL     1      -8.425  -8.943   8.557  0.00  0.00    +0.108 A 
ATOM      7  C   UNL     1      -7.981  -8.289   8.323  0.00  0.00    +0.059 A 
ATOM      8  S   UNL     1      -7.204  -8.406   8.573  0.00  0.00    -0.049 S 
ENDBRANCH   9   2
BRANCH  16  17
ATOM     17  C   UNL     1      -3.170 -10.383  10.575  0.00  0.00    +0.145 C 
BRANCH  17  18
ATOM     18  N   UNL     1      -2.686 -10.307  11.239  0.00  0.00    -0.229 N 
ATOM     19  C   UNL     1      -2.839 -10.620  11.987  0.00  0.00    +0.117 A 
ATOM     20  C   UNL     1      -2.211 -10.412  12.482  0.00  0.00    +0.144 A 
ATOM     29  N   UNL     1      -1.673  -9.971  12.038  0.00  0.00    -0.129 NA
ATOM     30  N   UNL     1      -1.966  -9.906  11.271  0.00  0.00    -0.064 NA
BRANCH  20  21
ATOM     21  C   UNL     1      -2.137 -10.610  13.279  0.00  0.00    +0.254 C 
BRANCH  21  22
ATOM     22  O   UNL     1      -1.820 -10.065  13.812  0.00  0.00    -0.469 OA
BRANCH  22  23
ATOM     23  C   UNL     1      -1.743 -10.264  14.608  0.00  0.00    +0.139 A 
ATOM     24  C   UNL     1      -2.384 -10.582  15.018  0.00  0.00    +0.037 A 
ATOM     25  C   UNL     1      -2.307 -10.781  15.815  0.00  0.00    +0.003 A 
ATOM     26  C   UNL     1      -1.589 -10.662  16.202  0.00  0.00    +0.000 A 
ATOM     27  C   UNL     1      -0.947 -10.344  15.792  0.00  0.00    +0.003 A 
ATOM     28  C   UNL     1      -1.024 -10.145  14.995  0.00  0.00    +0.037 A 
ENDBRANCH  22  23
ENDBRANCH  21  22
ENDBRANCH  20  21
ENDBRANCH  17  18
ENDBRANCH  16  17
TORSDOF 6
ENDMDL
MODEL 9
REMARK VINA RESULT:      -7.8     17.975     19.209
REMARK  Name = 
REMARK  6 active torsions:
REMARK  status: ('A' for Active; 'I' for Inactive)
REMARK    1  A    between atoms: C_2  and  C_9
REMARK    2  A    between atoms: C_16  and  C_17
REMARK    3  A    between atoms: C_17  and  N_18
REMARK    4  A    between atoms: C_20  and  C_21
REMARK    5  A    between atoms: C_21  and  O_22
REMARK    6  A    between atoms: O_22  and  C_23
REMARK                            x       y       z     vdW  Elec       q    Type
REMARK                         _______ _______ _______ _____ _____    ______ ____
ROOT
ATOM      9  C   UNL     1      -8.189  -7.563   8.614  0.00  0.00    +0.095 C 
ATOM     10  C   UNL     1      -7.595  -7.374   8.148  0.00  0.00    +0.081 C 
ATOM     11  N   UNL     1      -7.634  -8.031   8.645  0.00  0.00    -0.272 NA
ATOM     12  C   UNL     1      -8.561  -7.996   9.133  0.00  0.00    +0.072 C 
ATOM     13  C   UNL     1      -8.992  -8.249   9.555  0.00  0.00    +0.018 C 
ATOM     14  C   UNL     1      -8.220  -8.210   9.099  0.00  0.00    +0.013 C 
ATOM     15  C   UNL     1      -7.649  -8.859   9.252  0.00  0.00    +0.019 C 
ATOM     16  C   UNL     1      -7.045  -8.709   8.809  0.00  0.00    +0.082 C 
ENDROOT
BRANCH   9   2
ATOM      1  O   UNL     1      -9.607  -7.376   8.615  0.00  0.00    -0.273 OA
ATOM      2  C   UNL     1      -8.844  -7.060   8.613  0.00  0.00    +0.248 C 
ATOM      3  N   UNL     1      -8.737  -6.243   8.611  0.00  0.00    -0.154 NA
ATOM      4  C   UNL     1      -9.391  -5.741   8.611  0.00  0.00    +0.186 A 
ATOM      5  N   UNL     1      -9.371  -4.916   8.609  0.00  0.00    -0.221 NA
ATOM      6  C   UNL     1     -10.148  -4.641   8.609  0.00  0.00    +0.108 A 
ATOM      7  C   UNL     1     -10.650  -5.296   8.611  0.00  0.00    +0.059 A 
ATOM      8  S   UNL     1     -10.182  -5.975   8.613  0.00  0.00    -0.049 S 
ENDBRANCH   9   2
BRANCH  16  17
ATOM     17  C   UNL     1      -6.300  -8.993   8.601  0.00  0.00    +0.145 C 
BRANCH  17  18
ATOM     18  N   UNL     1      -5.867  -9.447   9.137  0.00  0.00    -0.229 N 
ATOM     19  C   UNL     1      -5.202  -9.198   9.557  0.00  0.00    +0.117 A 
ATOM     20  C   UNL     1      -4.947  -9.828  10.026  0.00  0.00    +0.144 A 
ATOM     29  N   UNL     1      -5.455 -10.465   9.894  0.00  0.00    -0.129 NA
ATOM     30  N   UNL     1      -6.022 -10.230   9.345  0.00  0.00    -0.064 NA
BRANCH  20  21
ATOM     21  C   UNL     1      -4.299  -9.821  10.537  0.00  0.00    +0.254 C 
BRANCH  21  22
ATOM     22  O   UNL     1      -3.541  -9.964  10.243  0.00  0.00    -0.469 OA
BRANCH  22  23
ATOM     23  C   UNL     1      -2.896  -9.976  10.757  0.00  0.00    +0.139 A 
ATOM     24  C   UNL     1      -2.815 -10.586  11.304  0.00  0.00    +0.037 A 
ATOM     25  C   UNL     1      -2.169 -10.598  11.818  0.00  0.00    +0.003 A 
ATOM     26  C   UNL     1      -1.604  -9.998  11.783  0.00  0.00    +0.000 A 
ATOM     27  C   UNL     1      -1.685  -9.387  11.235  0.00  0.00    +0.003 A 
ATOM     28  C   UNL     1      -2.331  -9.375  10.721  0.00  0.00    +0.037 A 
ENDBRANCH  22  23
ENDBRANCH  21  22
ENDBRANCH  20  21
ENDBRANCH  17  18
ENDBRANCH  16  17
TORSDOF 6
ENDMDL
