MODEL 1
REMARK VINA RESULT:     -11.4      0.000      0.000
REMARK  Name = 
REMARK  4 active torsions:
REMARK  status: ('A' for Active; 'I' for Inactive)
REMARK    1  A    between atoms: C_2  and  C_5
REMARK    2  A    between atoms: C_8  and  C_10
REMARK    3  A    between atoms: N_15  and  C_16
REMARK    4  A    between atoms: C_16  and  C_17
REMARK                            x       y       z     vdW  Elec       q    Type
REMARK                         _______ _______ _______ _____ _____    ______ ____
ROOT
ATOM     10  C   UNL     1      -2.614   1.291  24.554  0.00  0.00    +0.147 C 
ATOM     11  C   UNL     1      -1.872   1.649  24.524  0.00  0.00    +0.166 C 
ATOM     12  O   UNL     1      -1.189   1.191  24.583  0.00  0.00    -0.350 OA
ATOM     13  C   UNL     1      -1.248   0.372  24.671  0.00  0.00    +0.160 C 
ATOM     14  C   UNL     1      -1.990   0.014  24.701  0.00  0.00    +0.105 C 
ATOM     15  N   UNL     1      -2.674   0.472  24.643  0.00  0.00    -0.260 NA
ENDROOT
BRANCH  10   8
ATOM      5  C   UNL     1      -4.352   2.502  24.815  0.00  0.00    +0.079 A 
ATOM      6  C   UNL     1      -4.344   2.410  23.995  0.00  0.00    +0.115 A 
ATOM      7  N   UNL     1      -3.692   1.945  23.798  0.00  0.00    -0.227 NA
ATOM      8  C   UNL     1      -3.297   1.750  24.496  0.00  0.00    +0.156 A 
ATOM      9  N   UNL     1      -3.705   2.095  25.124  0.00  0.00    -0.232 NA
BRANCH   5   2
ATOM      1  C   UNL     1      -5.466   3.354  25.684  0.00  0.00    +0.006 C 
ATOM      2  C   UNL     1      -4.909   2.928  25.250  0.00  0.00    +0.037 C 
ATOM      3  C   UNL     1      -4.335   3.492  25.434  0.00  0.00    +0.006 C 
ATOM      4  C   UNL     1      -5.483   2.365  25.066  0.00  0.00    +0.006 C 
ENDBRANCH   5   2
ENDBRANCH  10   8
BRANCH  15  16
ATOM     16  C   UNL     1      -3.415   0.114  24.673  0.00  0.00    +0.100 C 
BRANCH  16  17
ATOM     17  C   UNL     1      -3.476  -0.704  24.768  0.00  0.00    -0.006 A 
ATOM     18  C   UNL     1      -3.420  -1.037  25.520  0.00  0.00    -0.001 A 
ATOM     19  C   UNL     1      -3.481  -1.855  25.615  0.00  0.00    +0.029 A 
ATOM     20  C   UNL     1      -3.596  -2.339  24.957  0.00  0.00    +0.140 A 
ATOM     21  F   UNL     1      -3.656  -3.155  25.051  0.00  0.00    -0.204 F 
ATOM     22  C   UNL     1      -3.651  -2.005  24.204  0.00  0.00    +0.029 A 
ATOM     23  C   UNL     1      -3.591  -1.188  24.110  0.00  0.00    -0.001 A 
ENDBRANCH  16  17
ENDBRANCH  15  16
TORSDOF 4
ENDMDL
MODEL 2
REMARK VINA RESULT:     -11.2      1.518      2.579
REMARK  Name = 
REMARK  4 active torsions:
REMARK  status: ('A' for Active; 'I' for Inactive)
REMARK    1  A    between atoms: C_2  and  C_5
REMARK    2  A    between atoms: C_8  and  C_10
REMARK    3  A    between atoms: N_15  and  C_16
REMARK    4  A    between atoms: C_16  and  C_17
REMARK                            x       y       z     vdW  Elec       q    Type
REMARK                         _______ _______ _______ _____ _____    ______ ____
ROOT
ATOM     10  C   UNL     1      -4.170   2.195  24.831  0.00  0.00    +0.147 C 
ATOM     11  C   UNL     1      -4.811   2.683  25.007  0.00  0.00    +0.166 C 
ATOM     12  O   UNL     1      -5.546   2.352  25.184  0.00  0.00    -0.350 OA
ATOM     13  C   UNL     1      -5.639   1.531  25.186  0.00  0.00    +0.160 C 
ATOM     14  C   UNL     1      -4.997   1.044  25.010  0.00  0.00    +0.105 C 
ATOM     15  N   UNL     1      -4.262   1.375  24.832  0.00  0.00    -0.260 NA
ENDROOT
BRANCH  10   8
ATOM      5  C   UNL     1      -2.230   3.085  24.784  0.00  0.00    +0.079 A 
ATOM      6  C   UNL     1      -2.382   2.989  23.978  0.00  0.00    +0.115 A 
ATOM      7  N   UNL     1      -3.126   2.645  23.898  0.00  0.00    -0.227 NA
ATOM      8  C   UNL     1      -3.435   2.527  24.654  0.00  0.00    +0.156 A 
ATOM      9  N   UNL     1      -2.882   2.799  25.201  0.00  0.00    -0.232 NA
BRANCH   5   2
ATOM      1  C   UNL     1      -0.864   3.734  25.443  0.00  0.00    +0.006 C 
ATOM      2  C   UNL     1      -1.547   3.410  25.113  0.00  0.00    +0.037 C 
ATOM      3  C   UNL     1      -1.104   2.783  24.812  0.00  0.00    +0.006 C 
ATOM      4  C   UNL     1      -1.991   4.037  25.415  0.00  0.00    +0.006 C 
ENDBRANCH   5   2
ENDBRANCH  10   8
BRANCH  15  16
ATOM     16  C   UNL     1      -3.621   0.888  24.657  0.00  0.00    +0.100 C 
BRANCH  16  17
ATOM     17  C   UNL     1      -3.706   0.067  24.685  0.00  0.00    -0.006 A 
ATOM     18  C   UNL     1      -3.950  -0.346  24.015  0.00  0.00    -0.001 A 
ATOM     19  C   UNL     1      -4.034  -1.166  24.044  0.00  0.00    +0.029 A 
ATOM     20  C   UNL     1      -3.875  -1.573  24.743  0.00  0.00    +0.140 A 
ATOM     21  F   UNL     1      -3.959  -2.393  24.772  0.00  0.00    -0.204 F 
ATOM     22  C   UNL     1      -3.630  -1.159  25.414  0.00  0.00    +0.029 A 
ATOM     23  C   UNL     1      -3.546  -0.340  25.385  0.00  0.00    -0.001 A 
ENDBRANCH  16  17
ENDBRANCH  15  16
TORSDOF 4
ENDMDL
MODEL 3
REMARK VINA RESULT:     -11.1      1.848      4.040
REMARK  Name = 
REMARK  4 active torsions:
REMARK  status: ('A' for Active; 'I' for Inactive)
REMARK    1  A    between atoms: C_2  and  C_5
REMARK    2  A    between atoms: C_8  and  C_10
REMARK    3  A    between atoms: N_15  and  C_16
REMARK    4  A    between atoms: C_16  and  C_17
REMARK                            x       y       z     vdW  Elec       q    Type
REMARK                         _______ _______ _______ _____ _____    ______ ____
ROOT
ATOM     10  C   UNL     1      -2.118   0.169  25.152  0.00  0.00    +0.147 C 
ATOM     11  C   UNL     1      -1.333   0.011  25.347  0.00  0.00    +0.166 C 
ATOM     12  O   UNL     1      -0.775   0.619  25.340  0.00  0.00    -0.350 OA
ATOM     13  C   UNL     1      -1.003   1.386  25.136  0.00  0.00    +0.160 C 
ATOM     14  C   UNL     1      -1.789   1.543  24.941  0.00  0.00    +0.105 C 
ATOM     15  N   UNL     1      -2.347   0.935  24.948  0.00  0.00    -0.260 NA
ENDROOT
BRANCH  10   8
ATOM      5  C   UNL     1      -3.411  -1.491  24.795  0.00  0.00    +0.079 A 
ATOM      6  C   UNL     1      -3.654  -1.260  25.549  0.00  0.00    +0.115 A 
ATOM      7  N   UNL     1      -3.199  -0.610  25.774  0.00  0.00    -0.227 NA
ATOM      8  C   UNL     1      -2.675  -0.440  25.159  0.00  0.00    +0.156 A 
ATOM      9  N   UNL     1      -2.807  -0.984  24.554  0.00  0.00    -0.232 NA
BRANCH   5   2
ATOM      1  C   UNL     1      -4.029  -2.747  23.921  0.00  0.00    +0.006 C 
ATOM      2  C   UNL     1      -3.720  -2.119  24.358  0.00  0.00    +0.037 C 
ATOM      3  C   UNL     1      -4.237  -1.601  23.978  0.00  0.00    +0.006 C 
ATOM      4  C   UNL     1      -3.203  -2.638  24.738  0.00  0.00    +0.006 C 
ENDBRANCH   5   2
ENDBRANCH  10   8
BRANCH  15  16
ATOM     16  C   UNL     1      -3.132   1.093  24.753  0.00  0.00    +0.100 C 
BRANCH  16  17
ATOM     17  C   UNL     1      -3.357   1.854  24.528  0.00  0.00    -0.006 A 
ATOM     18  C   UNL     1      -3.332   2.075  23.734  0.00  0.00    -0.001 A 
ATOM     19  C   UNL     1      -3.557   2.836  23.510  0.00  0.00    +0.029 A 
ATOM     20  C   UNL     1      -3.808   3.377  24.080  0.00  0.00    +0.140 A 
ATOM     21  F   UNL     1      -4.033   4.138  23.856  0.00  0.00    -0.204 F 
ATOM     22  C   UNL     1      -3.834   3.156  24.875  0.00  0.00    +0.029 A 
ATOM     23  C   UNL     1      -3.609   2.395  25.099  0.00  0.00    -0.001 A 
ENDBRANCH  16  17
ENDBRANCH  15  16
TORSDOF 4
ENDMDL
MODEL 4
REMARK VINA RESULT:     -11.0      2.392      4.481
REMARK  Name = 
REMARK  4 active torsions:
REMARK  status: ('A' for Active; 'I' for Inactive)
REMARK    1  A    between atoms: C_2  and  C_5
REMARK    2  A    between atoms: C_8  and  C_10
REMARK    3  A    between atoms: N_15  and  C_16
REMARK    4  A    between atoms: C_16  and  C_17
REMARK                            x       y       z     vdW  Elec       q    Type
REMARK                         _______ _______ _______ _____ _____    ______ ____
ROOT
ATOM     10  C   UNL     1      -4.663   1.750  25.002  0.00  0.00    +0.147 C 
ATOM     11  C   UNL     1      -5.476   1.778  25.136  0.00  0.00    +0.166 C 
ATOM     12  O   UNL     1      -5.827   2.474  25.404  0.00  0.00    -0.350 OA
ATOM     13  C   UNL     1      -5.364   3.144  25.538  0.00  0.00    +0.160 C 
ATOM     14  C   UNL     1      -4.551   3.116  25.404  0.00  0.00    +0.105 C 
ATOM     15  N   UNL     1      -4.199   2.420  25.136  0.00  0.00    -0.260 NA
ENDROOT
BRANCH  10   8
ATOM      5  C   UNL     1      -3.868  -0.204  24.678  0.00  0.00    +0.079 A 
ATOM      6  C   UNL     1      -3.676   0.166  23.966  0.00  0.00    +0.115 A 
ATOM      7  N   UNL     1      -3.950   0.943  24.001  0.00  0.00    -0.227 NA
ATOM      8  C   UNL     1      -4.312   1.053  24.734  0.00  0.00    +0.156 A 
ATOM      9  N   UNL     1      -4.261   0.344  25.152  0.00  0.00    -0.232 NA
BRANCH   5   2
ATOM      1  C   UNL     1      -3.526  -1.767  25.081  0.00  0.00    +0.006 C 
ATOM      2  C   UNL     1      -3.697  -0.986  24.879  0.00  0.00    +0.037 C 
ATOM      3  C   UNL     1      -4.188  -1.250  24.271  0.00  0.00    +0.006 C 
ATOM      4  C   UNL     1      -3.206  -0.722  25.487  0.00  0.00    +0.006 C 
ENDBRANCH   5   2
ENDBRANCH  10   8
BRANCH  15  16
ATOM     16  C   UNL     1      -3.386   2.392  25.002  0.00  0.00    +0.100 C 
BRANCH  16  17
ATOM     17  C   UNL     1      -2.922   3.062  25.136  0.00  0.00    -0.006 A 
ATOM     18  C   UNL     1      -2.828   3.624  24.541  0.00  0.00    -0.001 A 
ATOM     19  C   UNL     1      -2.364   4.293  24.675  0.00  0.00    +0.029 A 
ATOM     20  C   UNL     1      -1.995   4.400  25.405  0.00  0.00    +0.140 A 
ATOM     21  F   UNL     1      -1.532   5.068  25.540  0.00  0.00    -0.204 F 
ATOM     22  C   UNL     1      -2.090   3.836  26.001  0.00  0.00    +0.029 A 
ATOM     23  C   UNL     1      -2.553   3.168  25.867  0.00  0.00    -0.001 A 
ENDBRANCH  16  17
ENDBRANCH  15  16
TORSDOF 4
ENDMDL
MODEL 5
REMARK VINA RESULT:     -10.7      1.094      1.452
REMARK  Name = 
REMARK  4 active torsions:
REMARK  status: ('A' for Active; 'I' for Inactive)
REMARK    1  A    between atoms: C_2  and  C_5
REMARK    2  A    between atoms: C_8  and  C_10
REMARK    3  A    between atoms: N_15  and  C_16
REMARK    4  A    between atoms: C_16  and  C_17
REMARK                            x       y       z     vdW  Elec       q    Type
REMARK                         _______ _______ _______ _____ _____    ______ ____
ROOT
ATOM     10  C   UNL     1      -1.490   1.194  24.449  0.00  0.00    +0.147 C 
ATOM     11  C   UNL     1      -0.691   1.266  24.259  0.00  0.00    +0.166 C 
ATOM     12  O   UNL     1      -0.222   0.592  24.185  0.00  0.00    -0.350 OA
ATOM     13  C   UNL     1      -0.553  -0.156  24.301  0.00  0.00    +0.160 C 
ATOM     14  C   UNL     1      -1.352  -0.227  24.492  0.00  0.00    +0.105 C 
ATOM     15  N   UNL     1      -1.822   0.447  24.566  0.00  0.00    -0.260 NA
ENDROOT
BRANCH  10   8
ATOM      5  C   UNL     1      -2.554   2.952  25.027  0.00  0.00    +0.079 A 
ATOM      6  C   UNL     1      -2.806   2.863  24.246  0.00  0.00    +0.115 A 
ATOM      7  N   UNL     1      -2.438   2.194  23.935  0.00  0.00    -0.227 NA
ATOM      8  C   UNL     1      -1.959   1.870  24.523  0.00  0.00    +0.156 A 
ATOM      9  N   UNL     1      -2.031   2.338  25.198  0.00  0.00    -0.232 NA
BRANCH   5   2
ATOM      1  C   UNL     1      -3.018   4.149  26.064  0.00  0.00    +0.006 C 
ATOM      2  C   UNL     1      -2.786   3.551  25.545  0.00  0.00    +0.037 C 
ATOM      3  C   UNL     1      -3.577   3.350  25.423  0.00  0.00    +0.006 C 
ATOM      4  C   UNL     1      -1.995   3.751  25.668  0.00  0.00    +0.006 C 
ENDBRANCH   5   2
ENDBRANCH  10   8
BRANCH  15  16
ATOM     16  C   UNL     1      -2.620   0.376  24.756  0.00  0.00    +0.100 C 
BRANCH  16  17
ATOM     17  C   UNL     1      -2.956  -0.372  24.856  0.00  0.00    -0.006 A 
ATOM     18  C   UNL     1      -2.944  -0.733  25.597  0.00  0.00    -0.001 A 
ATOM     19  C   UNL     1      -3.280  -1.480  25.697  0.00  0.00    +0.029 A 
ATOM     20  C   UNL     1      -3.627  -1.866  25.056  0.00  0.00    +0.140 A 
ATOM     21  F   UNL     1      -3.962  -2.612  25.155  0.00  0.00    -0.204 F 
ATOM     22  C   UNL     1      -3.639  -1.504  24.314  0.00  0.00    +0.029 A 
ATOM     23  C   UNL     1      -3.303  -0.757  24.214  0.00  0.00    -0.001 A 
ENDBRANCH  16  17
ENDBRANCH  15  16
TORSDOF 4
ENDMDL
