REMARK  Name = 
REMARK  7 active torsions:
REMARK  status: ('A' for Active; 'I' for Inactive)
REMARK    1  A    between atoms: O_2  and  C_3
REMARK    2  A    between atoms: C_6  and  N_7
REMARK    3  A    between atoms: N_10  and  C_11
REMARK    4  A    between atoms: C_11  and  C_12
REMARK    5  A    between atoms: C_14  and  C_15
REMARK    6  A    between atoms: C_15  and  C_16
REMARK    7  A    between atoms: C_19  and  C_21
REMARK                            x       y       z     vdW  Elec       q    Type
REMARK                         _______ _______ _______ _____ _____    ______ ____
ROOT
ATOM     12  C   UNL     1      -0.715   1.238   0.000  0.00  0.00    +0.167 C 
ATOM     13  O   UNL     1       0.000   0.825   0.000  0.00  0.00    -0.354 OA
ATOM     14  C   UNL     1       0.000   0.000   0.000  0.00  0.00    +0.121 C 
ATOM     28  C   UNL     1      -0.715  -0.412   0.000  0.00  0.00    +0.033 C 
ATOM     29  C   UNL     1      -1.429   0.000   0.000  0.00  0.00    +0.038 C 
ATOM     30  C   UNL     1      -1.429   0.825   0.000  0.00  0.00    +0.181 C 
ATOM     31  O   UNL     1      -2.143   1.238   0.000  0.00  0.00    -0.220 OA
ENDROOT
BRANCH  12  11
ATOM     11  C   UNL     1      -0.715   2.062   0.000  0.00  0.00    +0.149 C 
BRANCH  11  10
ATOM      7  N   UNL     1      -2.143   3.712   0.000  0.00  0.00    -0.161 NA
ATOM      8  C   UNL     1      -1.429   3.300   0.000  0.00  0.00    +0.344 C 
ATOM      9  O   UNL     1      -0.715   3.712   0.000  0.00  0.00    -0.249 OA
ATOM     10  N   UNL     1      -1.429   2.475   0.000  0.00  0.00    -0.184 NA
BRANCH   7   6
ATOM      3  C   UNL     1      -2.143   6.188   0.000  0.00  0.00    +0.139 A 
ATOM      4  C   UNL     1      -1.429   5.775   0.000  0.00  0.00    +0.038 A 
ATOM      5  C   UNL     1      -1.429   4.950   0.000  0.00  0.00    +0.020 A 
ATOM      6  C   UNL     1      -2.143   4.537   0.000  0.00  0.00    +0.075 A 
ATOM     32  C   UNL     1      -2.858   4.950   0.000  0.00  0.00    +0.020 A 
ATOM     33  C   UNL     1      -2.858   5.775   0.000  0.00  0.00    +0.038 A 
BRANCH   3   2
ATOM      1  C   UNL     1      -2.858   7.425   0.000  0.00  0.00    +0.252 C 
ATOM      2  O   UNL     1      -2.143   7.013   0.000  0.00  0.00    -0.471 OA
ENDBRANCH   3   2
ENDBRANCH   7   6
ENDBRANCH  11  10
ENDBRANCH  12  11
BRANCH  14  15
ATOM     15  C   UNL     1       0.715  -0.412   0.000  0.00  0.00    +0.079 C 
BRANCH  15  16
ATOM     16  C   UNL     1       0.715  -1.238   0.000  0.00  0.00    +0.103 A 
ATOM     17  N   UNL     1       1.382  -1.722   0.000  0.00  0.00    -0.081 NA
ATOM     18  O   UNL     1       1.127  -2.507   0.000  0.00  0.00    -0.354 OA
ATOM     19  C   UNL     1       0.302  -2.507   0.000  0.00  0.00    +0.177 A 
ATOM     20  C   UNL     1       0.047  -1.722   0.000  0.00  0.00    +0.058 A 
BRANCH  19  21
ATOM     21  C   UNL     1      -0.183  -3.175   0.000  0.00  0.00    +0.040 A 
ATOM     22  C   UNL     1       0.153  -3.928   0.000  0.00  0.00    +0.045 A 
ATOM     23  C   UNL     1      -0.332  -4.596   0.000  0.00  0.00    +0.196 A 
ATOM     24  O   UNL     1       0.003  -5.349   0.000  0.00  0.00    -0.287 OA
ATOM     25  C   UNL     1      -1.153  -4.509   0.000  0.00  0.00    +0.042 A 
ATOM     26  C   UNL     1      -1.488  -3.756   0.000  0.00  0.00    +0.003 A 
ATOM     27  C   UNL     1      -1.003  -3.088   0.000  0.00  0.00    +0.003 A 
ENDBRANCH  19  21
ENDBRANCH  15  16
ENDBRANCH  14  15
TORSDOF 7
