MODEL 1
REMARK VINA RESULT:     -10.6      0.000      0.000
REMARK  Name = 
REMARK  5 active torsions:
REMARK  status: ('A' for Active; 'I' for Inactive)
REMARK    1  A    between atoms: O_2  and  C_3
REMARK    2  A    between atoms: C_6  and  C_7
REMARK    3  A    between atoms: C_7  and  N_8
REMARK    4  A    between atoms: C_9  and  C_11
REMARK    5  A    between atoms: N_19  and  C_20
REMARK                            x       y       z     vdW  Elec       q    Type
REMARK                         _______ _______ _______ _____ _____    ______ ____
ROOT
ATOM     11  C   UNL     1      -3.829   2.318  24.717  0.00  0.00    +0.161 C 
ATOM     12  C   UNL     1      -4.652   2.363  24.736  0.00  0.00    +0.076 C 
ATOM     13  C   UNL     1      -5.023   2.969  25.155  0.00  0.00    +0.078 A 
ATOM     14  C   UNL     1      -4.570   3.531  25.555  0.00  0.00    +0.094 A 
ATOM     15  C   UNL     1      -3.746   3.486  25.536  0.00  0.00    +0.143 C 
ATOM     16  N   UNL     1      -3.376   2.880  25.117  0.00  0.00    -0.250 N 
ATOM     17  C   UNL     1      -2.552   2.836  25.099  0.00  0.00    +0.324 C 
ATOM     18  O   UNL     1      -2.181   2.229  24.679  0.00  0.00    -0.251 OA
ATOM     19  N   UNL     1      -2.099   3.397  25.499  0.00  0.00    -0.190 NA
ATOM     23  N   UNL     1      -5.085   4.061  25.919  0.00  0.00    -0.225 NA
ATOM     24  C   UNL     1      -5.857   3.828  25.744  0.00  0.00    +0.198 A 
ATOM     25  N   UNL     1      -5.818   3.153  25.272  0.00  0.00    -0.227 NA
ENDROOT
BRANCH  11   9
ATOM      8  N   UNL     1      -3.510   0.934  24.566  0.00  0.00    -0.199 NA
ATOM      9  C   UNL     1      -3.458   1.712  24.298  0.00  0.00    +0.260 C 
ATOM     10  O   UNL     1      -3.035   1.884  23.611  0.00  0.00    -0.272 OA
BRANCH   8   7
ATOM      7  C   UNL     1      -3.139   0.327  24.147  0.00  0.00    +0.142 C 
BRANCH   7   6
ATOM      3  C   UNL     1      -3.549  -2.034  24.765  0.00  0.00    +0.139 A 
ATOM      4  C   UNL     1      -2.978  -1.595  25.168  0.00  0.00    +0.037 A 
ATOM      5  C   UNL     1      -2.841  -0.808  24.962  0.00  0.00    +0.001 A 
ATOM      6  C   UNL     1      -3.276  -0.460  24.353  0.00  0.00    -0.000 A 
ATOM     26  C   UNL     1      -3.847  -0.898  23.951  0.00  0.00    +0.001 A 
ATOM     27  C   UNL     1      -3.983  -1.685  24.156  0.00  0.00    +0.037 A 
BRANCH   3   2
ATOM      1  C   UNL     1      -3.305  -3.427  24.561  0.00  0.00    +0.252 C 
ATOM      2  O   UNL     1      -3.686  -2.821  24.971  0.00  0.00    -0.471 OA
ENDBRANCH   3   2
ENDBRANCH   7   6
ENDBRANCH   8   7
ENDBRANCH  11   9
BRANCH  19  20
ATOM     20  C   UNL     1      -1.276   3.352  25.479  0.00  0.00    +0.097 C 
ATOM     21  C   UNL     1      -0.852   3.790  24.923  0.00  0.00    +0.023 C 
ATOM     22  C   UNL     1      -0.876   2.869  26.015  0.00  0.00    +0.023 C 
ENDBRANCH  19  20
TORSDOF 5
ENDMDL
MODEL 2
REMARK VINA RESULT:     -10.3      0.802      2.572
REMARK  Name = 
REMARK  5 active torsions:
REMARK  status: ('A' for Active; 'I' for Inactive)
REMARK    1  A    between atoms: O_2  and  C_3
REMARK    2  A    between atoms: C_6  and  C_7
REMARK    3  A    between atoms: C_7  and  N_8
REMARK    4  A    between atoms: C_9  and  C_11
REMARK    5  A    between atoms: N_19  and  C_20
REMARK                            x       y       z     vdW  Elec       q    Type
REMARK                         _______ _______ _______ _____ _____    ______ ____
ROOT
ATOM     11  C   UNL     1      -2.912   2.296  24.493  0.00  0.00    +0.161 C 
ATOM     12  C   UNL     1      -2.099   2.283  24.357  0.00  0.00    +0.076 C 
ATOM     13  C   UNL     1      -1.615   2.863  24.689  0.00  0.00    +0.078 A 
ATOM     14  C   UNL     1      -1.946   3.458  25.156  0.00  0.00    +0.094 A 
ATOM     15  C   UNL     1      -2.760   3.471  25.291  0.00  0.00    +0.143 C 
ATOM     16  N   UNL     1      -3.243   2.890  24.960  0.00  0.00    -0.250 N 
ATOM     17  C   UNL     1      -4.056   2.904  25.096  0.00  0.00    +0.324 C 
ATOM     18  O   UNL     1      -4.540   2.323  24.764  0.00  0.00    -0.251 OA
ATOM     19  N   UNL     1      -4.387   3.499  25.563  0.00  0.00    -0.190 NA
ATOM     23  N   UNL     1      -1.337   3.953  25.407  0.00  0.00    -0.225 NA
ATOM     24  C   UNL     1      -0.629   3.665  25.096  0.00  0.00    +0.198 A 
ATOM     25  N   UNL     1      -0.802   2.992  24.652  0.00  0.00    -0.227 NA
ENDROOT
BRANCH  11   9
ATOM      8  N   UNL     1      -3.404   0.955  24.482  0.00  0.00    -0.199 NA
ATOM      9  C   UNL     1      -3.395   1.716  24.162  0.00  0.00    +0.260 C 
ATOM     10  O   UNL     1      -3.869   1.894  23.511  0.00  0.00    -0.272 OA
BRANCH   8   7
ATOM      7  C   UNL     1      -3.888   0.374  24.150  0.00  0.00    +0.142 C 
BRANCH   7   6
ATOM      3  C   UNL     1      -3.663  -1.983  24.873  0.00  0.00    +0.139 A 
ATOM      4  C   UNL     1      -3.821  -1.807  24.082  0.00  0.00    +0.037 A 
ATOM      5  C   UNL     1      -3.896  -1.021  23.841  0.00  0.00    +0.001 A 
ATOM      6  C   UNL     1      -3.813  -0.412  24.391  0.00  0.00    -0.000 A 
ATOM     26  C   UNL     1      -3.655  -0.587  25.181  0.00  0.00    +0.001 A 
ATOM     27  C   UNL     1      -3.580  -1.373  25.422  0.00  0.00    +0.037 A 
BRANCH   3   2
ATOM      1  C   UNL     1      -3.206  -3.314  24.627  0.00  0.00    +0.252 C 
ATOM      2  O   UNL     1      -3.588  -2.768  25.114  0.00  0.00    -0.471 OA
ENDBRANCH   3   2
ENDBRANCH   7   6
ENDBRANCH   8   7
ENDBRANCH  11   9
BRANCH  19  20
ATOM     20  C   UNL     1      -5.201   3.512  25.698  0.00  0.00    +0.097 C 
ATOM     21  C   UNL     1      -5.667   4.094  25.347  0.00  0.00    +0.023 C 
ATOM     22  C   UNL     1      -5.548   2.943  26.184  0.00  0.00    +0.023 C 
ENDBRANCH  19  20
TORSDOF 5
ENDMDL
MODEL 3
REMARK VINA RESULT:      -9.8      1.718      4.463
REMARK  Name = 
REMARK  5 active torsions:
REMARK  status: ('A' for Active; 'I' for Inactive)
REMARK    1  A    between atoms: O_2  and  C_3
REMARK    2  A    between atoms: C_6  and  C_7
REMARK    3  A    between atoms: C_7  and  N_8
REMARK    4  A    between atoms: C_9  and  C_11
REMARK    5  A    between atoms: N_19  and  C_20
REMARK                            x       y       z     vdW  Elec       q    Type
REMARK                         _______ _______ _______ _____ _____    ______ ____
ROOT
ATOM     11  C   UNL     1      -3.189  -0.125  24.085  0.00  0.00    +0.161 C 
ATOM     12  C   UNL     1      -3.760  -0.718  24.068  0.00  0.00    +0.076 C 
ATOM     13  C   UNL     1      -3.574  -1.480  24.326  0.00  0.00    +0.078 A 
ATOM     14  C   UNL     1      -2.814  -1.647  24.601  0.00  0.00    +0.094 A 
ATOM     15  C   UNL     1      -2.241  -1.052  24.619  0.00  0.00    +0.143 C 
ATOM     16  N   UNL     1      -2.429  -0.292  24.361  0.00  0.00    -0.250 N 
ATOM     17  C   UNL     1      -1.857   0.302  24.378  0.00  0.00    +0.324 C 
ATOM     18  O   UNL     1      -2.044   1.063  24.120  0.00  0.00    -0.251 OA
ATOM     19  N   UNL     1      -1.097   0.135  24.654  0.00  0.00    -0.190 NA
ATOM     23  N   UNL     1      -2.791  -2.442  24.819  0.00  0.00    -0.225 NA
ATOM     24  C   UNL     1      -3.535  -2.767  24.678  0.00  0.00    +0.198 A 
ATOM     25  N   UNL     1      -4.019  -2.172  24.373  0.00  0.00    -0.227 NA
ENDROOT
BRANCH  11   9
ATOM      8  N   UNL     1      -3.839   1.129  24.299  0.00  0.00    -0.199 NA
ATOM      9  C   UNL     1      -3.376   0.636  23.827  0.00  0.00    +0.260 C 
ATOM     10  O   UNL     1      -3.100   0.904  23.098  0.00  0.00    -0.272 OA
BRANCH   8   7
ATOM      7  C   UNL     1      -4.027   1.890  24.041  0.00  0.00    +0.142 C 
BRANCH   7   6
ATOM      3  C   UNL     1      -5.354   3.396  25.489  0.00  0.00    +0.139 A 
ATOM      4  C   UNL     1      -4.597   3.618  25.246  0.00  0.00    +0.037 A 
ATOM      5  C   UNL     1      -4.155   3.116  24.764  0.00  0.00    +0.001 A 
ATOM      6  C   UNL     1      -4.469   2.392  24.524  0.00  0.00    -0.000 A 
ATOM     26  C   UNL     1      -5.225   2.170  24.766  0.00  0.00    +0.001 A 
ATOM     27  C   UNL     1      -5.668   2.672  25.249  0.00  0.00    +0.037 A 
BRANCH   3   2
ATOM      1  C   UNL     1      -6.063   4.621  25.680  0.00  0.00    +0.252 C 
ATOM      2  O   UNL     1      -5.797   3.898  25.972  0.00  0.00    -0.471 OA
ENDBRANCH   3   2
ENDBRANCH   7   6
ENDBRANCH   8   7
ENDBRANCH  11   9
BRANCH  19  20
ATOM     20  C   UNL     1      -0.525   0.730  24.671  0.00  0.00    +0.097 C 
ATOM     21  C   UNL     1      -0.471   1.230  25.324  0.00  0.00    +0.023 C 
ATOM     22  C   UNL     1      -0.008   0.823  24.036  0.00  0.00    +0.023 C 
ENDBRANCH  19  20
TORSDOF 5
ENDMDL
MODEL 4
REMARK VINA RESULT:      -9.7      1.834      4.870
REMARK  Name = 
REMARK  5 active torsions:
REMARK  status: ('A' for Active; 'I' for Inactive)
REMARK    1  A    between atoms: O_2  and  C_3
REMARK    2  A    between atoms: C_6  and  C_7
REMARK    3  A    between atoms: C_7  and  N_8
REMARK    4  A    between atoms: C_9  and  C_11
REMARK    5  A    between atoms: N_19  and  C_20
REMARK                            x       y       z     vdW  Elec       q    Type
REMARK                         _______ _______ _______ _____ _____    ______ ____
ROOT
ATOM     11  C   UNL     1      -2.360   0.509  24.091  0.00  0.00    +0.161 C 
ATOM     12  C   UNL     1      -1.786   1.077  23.925  0.00  0.00    +0.076 C 
ATOM     13  C   UNL     1      -0.987   0.903  24.038  0.00  0.00    +0.078 A 
ATOM     14  C   UNL     1      -0.763   0.160  24.317  0.00  0.00    +0.094 A 
ATOM     15  C   UNL     1      -1.338  -0.409  24.484  0.00  0.00    +0.143 C 
ATOM     16  N   UNL     1      -2.136  -0.234  24.371  0.00  0.00    -0.250 N 
ATOM     17  C   UNL     1      -2.709  -0.803  24.537  0.00  0.00    +0.324 C 
ATOM     18  O   UNL     1      -3.508  -0.628  24.424  0.00  0.00    -0.251 OA
ATOM     19  N   UNL     1      -2.485  -1.546  24.817  0.00  0.00    -0.190 NA
ATOM     23  N   UNL     1       0.059   0.147  24.375  0.00  0.00    -0.225 NA
ATOM     24  C   UNL     1       0.344   0.881  24.131  0.00  0.00    +0.198 A 
ATOM     25  N   UNL     1      -0.303   1.348  23.923  0.00  0.00    -0.227 NA
ENDROOT
BRANCH  11   9
ATOM      8  N   UNL     1      -3.535   1.228  24.471  0.00  0.00    -0.199 NA
ATOM      9  C   UNL     1      -3.158   0.684  23.979  0.00  0.00    +0.260 C 
ATOM     10  O   UNL     1      -3.580   0.315  23.373  0.00  0.00    -0.272 OA
BRANCH   8   7
ATOM      7  C   UNL     1      -4.334   1.403  24.358  0.00  0.00    +0.142 C 
BRANCH   7   6
ATOM      3  C   UNL     1      -5.379   3.272  25.599  0.00  0.00    +0.139 A 
ATOM      4  C   UNL     1      -4.803   3.426  25.028  0.00  0.00    +0.037 A 
ATOM      5  C   UNL     1      -4.454   2.803  24.614  0.00  0.00    +0.001 A 
ATOM      6  C   UNL     1      -4.682   2.026  24.772  0.00  0.00    -0.000 A 
ATOM     26  C   UNL     1      -5.257   1.872  25.342  0.00  0.00    +0.001 A 
ATOM     27  C   UNL     1      -5.605   2.495  25.755  0.00  0.00    +0.037 A 
BRANCH   3   2
ATOM      1  C   UNL     1      -5.992   4.562  25.606  0.00  0.00    +0.252 C 
ATOM      2  O   UNL     1      -5.727   3.895  26.012  0.00  0.00    -0.471 OA
ENDBRANCH   3   2
ENDBRANCH   7   6
ENDBRANCH   8   7
ENDBRANCH  11   9
BRANCH  19  20
ATOM     20  C   UNL     1      -3.060  -2.114  24.983  0.00  0.00    +0.097 C 
ATOM     21  C   UNL     1      -3.419  -2.132  25.726  0.00  0.00    +0.023 C 
ATOM     22  C   UNL     1      -3.276  -2.663  24.407  0.00  0.00    +0.023 C 
ENDBRANCH  19  20
TORSDOF 5
ENDMDL
MODEL 5
REMARK VINA RESULT:      -9.6      1.309      3.944
REMARK  Name = 
REMARK  5 active torsions:
REMARK  status: ('A' for Active; 'I' for Inactive)
REMARK    1  A    between atoms: O_2  and  C_3
REMARK    2  A    between atoms: C_6  and  C_7
REMARK    3  A    between atoms: C_7  and  N_8
REMARK    4  A    between atoms: C_9  and  C_11
REMARK    5  A    between atoms: N_19  and  C_20
REMARK                            x       y       z     vdW  Elec       q    Type
REMARK                         _______ _______ _______ _____ _____    ______ ____
ROOT
ATOM     11  C   UNL     1      -3.976   1.572  24.590  0.00  0.00    +0.161 C 
ATOM     12  C   UNL     1      -4.351   2.286  24.763  0.00  0.00    +0.076 C 
ATOM     13  C   UNL     1      -5.119   2.286  25.064  0.00  0.00    +0.078 A 
ATOM     14  C   UNL     1      -5.512   1.572  25.191  0.00  0.00    +0.094 A 
ATOM     15  C   UNL     1      -5.137   0.857  25.017  0.00  0.00    +0.143 C 
ATOM     16  N   UNL     1      -4.369   0.858  24.717  0.00  0.00    -0.250 N 
ATOM     17  C   UNL     1      -3.995   0.144  24.544  0.00  0.00    +0.324 C 
ATOM     18  O   UNL     1      -3.226   0.144  24.243  0.00  0.00    -0.251 OA
ATOM     19  N   UNL     1      -4.388  -0.570  24.671  0.00  0.00    -0.190 NA
ATOM     23  N   UNL     1      -6.261   1.743  25.491  0.00  0.00    -0.225 NA
ATOM     24  C   UNL     1      -6.331   2.563  25.549  0.00  0.00    +0.198 A 
ATOM     25  N   UNL     1      -5.625   2.898  25.285  0.00  0.00    -0.227 NA
ENDROOT
BRANCH  11   9
ATOM      8  N   UNL     1      -2.574   1.768  24.779  0.00  0.00    -0.199 NA
ATOM      9  C   UNL     1      -3.208   1.572  24.289  0.00  0.00    +0.260 C 
ATOM     10  O   UNL     1      -3.074   1.376  23.499  0.00  0.00    -0.272 OA
BRANCH   8   7
ATOM      7  C   UNL     1      -1.805   1.768  24.478  0.00  0.00    +0.142 C 
BRANCH   7   6
ATOM      3  C   UNL     1       0.086   2.467  25.915  0.00  0.00    +0.139 A 
ATOM      4  C   UNL     1      -0.289   3.018  25.428  0.00  0.00    +0.037 A 
ATOM      5  C   UNL     1      -0.919   2.786  24.949  0.00  0.00    +0.001 A 
ATOM      6  C   UNL     1      -1.174   2.001  24.957  0.00  0.00    -0.000 A 
ATOM     26  C   UNL     1      -0.801   1.450  25.443  0.00  0.00    +0.001 A 
ATOM     27  C   UNL     1      -0.170   1.683  25.922  0.00  0.00    +0.037 A 
BRANCH   3   2
ATOM      1  C   UNL     1       0.660   2.626  27.213  0.00  0.00    +0.252 C 
ATOM      2  O   UNL     1       0.716   2.699  26.393  0.00  0.00    -0.471 OA
ENDBRANCH   3   2
ENDBRANCH   7   6
ENDBRANCH   8   7
ENDBRANCH  11   9
BRANCH  19  20
ATOM     20  C   UNL     1      -4.012  -1.284  24.497  0.00  0.00    +0.097 C 
ATOM     21  C   UNL     1      -4.146  -1.654  23.772  0.00  0.00    +0.023 C 
ATOM     22  C   UNL     1      -3.503  -1.627  25.047  0.00  0.00    +0.023 C 
ENDBRANCH  19  20
TORSDOF 5
ENDMDL
MODEL 6
REMARK VINA RESULT:      -9.4      1.767      4.363
REMARK  Name = 
REMARK  5 active torsions:
REMARK  status: ('A' for Active; 'I' for Inactive)
REMARK    1  A    between atoms: O_2  and  C_3
REMARK    2  A    between atoms: C_6  and  C_7
REMARK    3  A    between atoms: C_7  and  N_8
REMARK    4  A    between atoms: C_9  and  C_11
REMARK    5  A    between atoms: N_19  and  C_20
REMARK                            x       y       z     vdW  Elec       q    Type
REMARK                         _______ _______ _______ _____ _____    ______ ____
ROOT
ATOM     11  C   UNL     1      -2.174   0.311  24.299  0.00  0.00    +0.161 C 
ATOM     12  C   UNL     1      -2.537  -0.428  24.258  0.00  0.00    +0.076 C 
ATOM     13  C   UNL     1      -2.156  -1.094  24.563  0.00  0.00    +0.078 A 
ATOM     14  C   UNL     1      -1.411  -1.019  24.910  0.00  0.00    +0.094 A 
ATOM     15  C   UNL     1      -1.047  -0.279  24.951  0.00  0.00    +0.143 C 
ATOM     16  N   UNL     1      -1.429   0.385  24.646  0.00  0.00    -0.250 N 
ATOM     17  C   UNL     1      -1.066   1.124  24.688  0.00  0.00    +0.324 C 
ATOM     18  O   UNL     1      -1.448   1.790  24.383  0.00  0.00    -0.251 OA
ATOM     19  N   UNL     1      -0.321   1.199  25.035  0.00  0.00    -0.190 NA
ATOM     23  N   UNL     1      -1.171  -1.766  25.161  0.00  0.00    -0.225 NA
ATOM     24  C   UNL     1      -1.767  -2.304  24.970  0.00  0.00    +0.198 A 
ATOM     25  N   UNL     1      -2.375  -1.887  24.600  0.00  0.00    -0.227 NA
ENDROOT
BRANCH  11   9
ATOM      8  N   UNL     1      -3.182   1.317  24.408  0.00  0.00    -0.199 NA
ATOM      9  C   UNL     1      -2.555   0.975  23.995  0.00  0.00    +0.260 C 
ATOM     10  O   UNL     1      -2.311   1.299  23.276  0.00  0.00    -0.272 OA
BRANCH   8   7
ATOM      7  C   UNL     1      -3.564   1.982  24.103  0.00  0.00    +0.142 C 
BRANCH   7   6
ATOM      3  C   UNL     1      -5.331   3.108  25.421  0.00  0.00    +0.139 A 
ATOM      4  C   UNL     1      -5.469   2.359  25.100  0.00  0.00    +0.037 A 
ATOM      5  C   UNL     1      -4.880   1.984  24.661  0.00  0.00    +0.001 A 
ATOM      6  C   UNL     1      -4.153   2.357  24.542  0.00  0.00    -0.000 A 
ATOM     26  C   UNL     1      -4.016   3.105  24.863  0.00  0.00    +0.001 A 
ATOM     27  C   UNL     1      -4.605   3.480  25.302  0.00  0.00    +0.037 A 
BRANCH   3   2
ATOM      1  C   UNL     1      -6.083   4.281  25.734  0.00  0.00    +0.252 C 
ATOM      2  O   UNL     1      -5.921   3.483  25.860  0.00  0.00    -0.471 OA
ENDBRANCH   3   2
ENDBRANCH   7   6
ENDBRANCH   8   7
ENDBRANCH  11   9
BRANCH  19  20
ATOM     20  C   UNL     1       0.042   1.939  25.076  0.00  0.00    +0.097 C 
ATOM     21  C   UNL     1      -0.054   2.408  25.749  0.00  0.00    +0.023 C 
ATOM     22  C   UNL     1       0.500   2.211  24.447  0.00  0.00    +0.023 C 
ENDBRANCH  19  20
TORSDOF 5
ENDMDL
MODEL 7
REMARK VINA RESULT:      -8.1     16.288     18.968
REMARK  Name = 
REMARK  5 active torsions:
REMARK  status: ('A' for Active; 'I' for Inactive)
REMARK    1  A    between atoms: O_2  and  C_3
REMARK    2  A    between atoms: C_6  and  C_7
REMARK    3  A    between atoms: C_7  and  N_8
REMARK    4  A    between atoms: C_9  and  C_11
REMARK    5  A    between atoms: N_19  and  C_20
REMARK                            x       y       z     vdW  Elec       q    Type
REMARK                         _______ _______ _______ _____ _____    ______ ____
ROOT
ATOM     11  C   UNL     1      12.697   8.362  19.406  0.00  0.00    +0.161 C 
ATOM     12  C   UNL     1      12.825   8.652  18.645  0.00  0.00    +0.076 C 
ATOM     13  C   UNL     1      12.207   8.665  18.098  0.00  0.00    +0.078 A 
ATOM     14  C   UNL     1      11.461   8.388  18.314  0.00  0.00    +0.094 A 
ATOM     15  C   UNL     1      11.332   8.098  19.076  0.00  0.00    +0.143 C 
ATOM     16  N   UNL     1      11.951   8.085  19.621  0.00  0.00    -0.250 N 
ATOM     17  C   UNL     1      11.822   7.794  20.382  0.00  0.00    +0.324 C 
ATOM     18  O   UNL     1      12.441   7.781  20.929  0.00  0.00    -0.251 OA
ATOM     19  N   UNL     1      11.075   7.517  20.598  0.00  0.00    -0.190 NA
ATOM     23  N   UNL     1      10.961   8.469  17.663  0.00  0.00    -0.225 NA
ATOM     24  C   UNL     1      11.399   8.796  17.045  0.00  0.00    +0.198 A 
ATOM     25  N   UNL     1      12.169   8.917  17.314  0.00  0.00    -0.227 NA
ENDROOT
BRANCH  11   9
ATOM      8  N   UNL     1      13.938   7.816  19.856  0.00  0.00    -0.199 NA
ATOM      9  C   UNL     1      13.315   8.348  19.952  0.00  0.00    +0.260 C 
ATOM     10  O   UNL     1      13.311   8.867  20.593  0.00  0.00    -0.272 OA
BRANCH   8   7
ATOM      7  C   UNL     1      14.557   7.802  20.402  0.00  0.00    +0.142 C 
BRANCH   7   6
ATOM      3  C   UNL     1      16.622   6.533  19.903  0.00  0.00    +0.139 A 
ATOM      4  C   UNL     1      16.590   7.345  19.755  0.00  0.00    +0.037 A 
ATOM      5  C   UNL     1      15.902   7.768  19.922  0.00  0.00    +0.001 A 
ATOM      6  C   UNL     1      15.245   7.379  20.236  0.00  0.00    -0.000 A 
ATOM     26  C   UNL     1      15.276   6.568  20.383  0.00  0.00    +0.001 A 
ATOM     27  C   UNL     1      15.965   6.145  20.216  0.00  0.00    +0.037 A 
BRANCH   3   2
ATOM      1  C   UNL     1      17.405   5.751  19.000  0.00  0.00    +0.252 C 
ATOM      2  O   UNL     1      17.310   6.110  19.736  0.00  0.00    -0.471 OA
ENDBRANCH   3   2
ENDBRANCH   7   6
ENDBRANCH   8   7
ENDBRANCH  11   9
BRANCH  19  20
ATOM     20  C   UNL     1      10.947   7.227  21.360  0.00  0.00    +0.097 C 
ATOM     21  C   UNL     1      10.648   7.725  21.945  0.00  0.00    +0.023 C 
ATOM     22  C   UNL     1      11.118   6.440  21.536  0.00  0.00    +0.023 C 
ENDBRANCH  19  20
TORSDOF 5
ENDMDL
MODEL 8
REMARK VINA RESULT:      -7.3     16.298     18.872
REMARK  Name = 
REMARK  5 active torsions:
REMARK  status: ('A' for Active; 'I' for Inactive)
REMARK    1  A    between atoms: O_2  and  C_3
REMARK    2  A    between atoms: C_6  and  C_7
REMARK    3  A    between atoms: C_7  and  N_8
REMARK    4  A    between atoms: C_9  and  C_11
REMARK    5  A    between atoms: N_19  and  C_20
REMARK                            x       y       z     vdW  Elec       q    Type
REMARK                         _______ _______ _______ _____ _____    ______ ____
ROOT
ATOM     11  C   UNL     1      12.746   7.840  20.173  0.00  0.00    +0.161 C 
ATOM     12  C   UNL     1      11.947   7.783  20.365  0.00  0.00    +0.076 C 
ATOM     13  C   UNL     1      11.687   7.193  20.879  0.00  0.00    +0.078 A 
ATOM     14  C   UNL     1      12.227   6.659  21.201  0.00  0.00    +0.094 A 
ATOM     15  C   UNL     1      13.028   6.716  21.009  0.00  0.00    +0.143 C 
ATOM     16  N   UNL     1      13.287   7.306  20.494  0.00  0.00    -0.250 N 
ATOM     17  C   UNL     1      14.087   7.363  20.302  0.00  0.00    +0.324 C 
ATOM     18  O   UNL     1      14.347   7.954  19.788  0.00  0.00    -0.251 OA
ATOM     19  N   UNL     1      14.628   6.829  20.624  0.00  0.00    -0.190 NA
ATOM     23  N   UNL     1      11.813   6.139  21.688  0.00  0.00    -0.225 NA
ATOM     24  C   UNL     1      11.016   6.351  21.668  0.00  0.00    +0.198 A 
ATOM     25  N   UNL     1      10.939   7.002  21.168  0.00  0.00    -0.227 NA
ENDROOT
BRANCH  11   9
ATOM      8  N   UNL     1      12.817   8.391  18.857  0.00  0.00    -0.199 NA
ATOM      9  C   UNL     1      13.006   8.430  19.659  0.00  0.00    +0.260 C 
ATOM     10  O   UNL     1      13.455   9.060  19.946  0.00  0.00    -0.272 OA
BRANCH   8   7
ATOM      7  C   UNL     1      13.077   8.982  18.342  0.00  0.00    +0.142 C 
BRANCH   7   6
ATOM      3  C   UNL     1      12.220   9.066  16.021  0.00  0.00    +0.139 A 
ATOM      4  C   UNL     1      11.693   9.078  16.657  0.00  0.00    +0.037 A 
ATOM      5  C   UNL     1      11.979   9.050  17.430  0.00  0.00    +0.001 A 
ATOM      6  C   UNL     1      12.791   9.010  17.568  0.00  0.00    -0.000 A 
ATOM     26  C   UNL     1      13.318   8.997  16.934  0.00  0.00    +0.001 A 
ATOM     27  C   UNL     1      13.032   9.025  16.160  0.00  0.00    +0.037 A 
BRANCH   3   2
ATOM      1  C   UNL     1      11.125   9.034  15.105  0.00  0.00    +0.252 C 
ATOM      2  O   UNL     1      11.935   9.094  15.248  0.00  0.00    -0.471 OA
ENDBRANCH   3   2
ENDBRANCH   7   6
ENDBRANCH   8   7
ENDBRANCH  11   9
BRANCH  19  20
ATOM     20  C   UNL     1      15.428   6.886  20.431  0.00  0.00    +0.097 C 
ATOM     21  C   UNL     1      15.724   6.481  19.777  0.00  0.00    +0.023 C 
ATOM     22  C   UNL     1      15.932   7.349  20.892  0.00  0.00    +0.023 C 
ENDBRANCH  19  20
TORSDOF 5
ENDMDL
MODEL 9
REMARK VINA RESULT:      -7.0     16.376     19.034
REMARK  Name = 
REMARK  5 active torsions:
REMARK  status: ('A' for Active; 'I' for Inactive)
REMARK    1  A    between atoms: O_2  and  C_3
REMARK    2  A    between atoms: C_6  and  C_7
REMARK    3  A    between atoms: C_7  and  N_8
REMARK    4  A    between atoms: C_9  and  C_11
REMARK    5  A    between atoms: N_19  and  C_20
REMARK                            x       y       z     vdW  Elec       q    Type
REMARK                         _______ _______ _______ _____ _____    ______ ____
ROOT
ATOM     11  C   UNL     1      12.742   8.053  20.307  0.00  0.00    +0.161 C 
ATOM     12  C   UNL     1      12.612   7.900  21.107  0.00  0.00    +0.076 C 
ATOM     13  C   UNL     1      11.871   7.643  21.363  0.00  0.00    +0.078 A 
ATOM     14  C   UNL     1      11.260   7.539  20.818  0.00  0.00    +0.094 A 
ATOM     15  C   UNL     1      11.390   7.692  20.017  0.00  0.00    +0.143 C 
ATOM     16  N   UNL     1      12.131   7.950  19.763  0.00  0.00    -0.250 N 
ATOM     17  C   UNL     1      12.261   8.103  18.963  0.00  0.00    +0.324 C 
ATOM     18  O   UNL     1      13.003   8.360  18.707  0.00  0.00    -0.251 OA
ATOM     19  N   UNL     1      11.650   7.999  18.418  0.00  0.00    -0.190 NA
ATOM     23  N   UNL     1      10.593   7.281  21.229  0.00  0.00    -0.225 NA
ATOM     24  C   UNL     1      10.792   7.226  22.028  0.00  0.00    +0.198 A 
ATOM     25  N   UNL     1      11.581   7.449  22.110  0.00  0.00    -0.227 NA
ENDROOT
BRANCH  11   9
ATOM      8  N   UNL     1      14.118   7.785  20.034  0.00  0.00    -0.199 NA
ATOM      9  C   UNL     1      13.483   8.310  20.052  0.00  0.00    +0.260 C 
ATOM     10  O   UNL     1      13.589   9.093  19.814  0.00  0.00    -0.272 OA
BRANCH   8   7
ATOM      7  C   UNL     1      14.860   8.042  19.778  0.00  0.00    +0.142 C 
BRANCH   7   6
ATOM      3  C   UNL     1      16.747   6.445  19.649  0.00  0.00    +0.139 A 
ATOM      4  C   UNL     1      16.289   6.598  18.979  0.00  0.00    +0.037 A 
ATOM      5  C   UNL     1      15.660   7.130  19.022  0.00  0.00    +0.001 A 
ATOM      6  C   UNL     1      15.489   7.509  19.735  0.00  0.00    -0.000 A 
ATOM     26  C   UNL     1      15.946   7.357  20.404  0.00  0.00    +0.001 A 
ATOM     27  C   UNL     1      16.575   6.824  20.361  0.00  0.00    +0.037 A 
BRANCH   3   2
ATOM      1  C   UNL     1      17.405   5.358  18.996  0.00  0.00    +0.252 C 
ATOM      2  O   UNL     1      17.376   5.913  19.605  0.00  0.00    -0.471 OA
ENDBRANCH   3   2
ENDBRANCH   7   6
ENDBRANCH   8   7
ENDBRANCH  11   9
BRANCH  19  20
ATOM     20  C   UNL     1      11.781   8.153  17.618  0.00  0.00    +0.097 C 
ATOM     21  C   UNL     1      12.310   7.687  17.190  0.00  0.00    +0.023 C 
ATOM     22  C   UNL     1      11.383   8.772  17.246  0.00  0.00    +0.023 C 
ENDBRANCH  19  20
TORSDOF 5
ENDMDL
MODEL 10
REMARK VINA RESULT:      -7.0     16.063     18.903
REMARK  Name = 
REMARK  5 active torsions:
REMARK  status: ('A' for Active; 'I' for Inactive)
REMARK    1  A    between atoms: O_2  and  C_3
REMARK    2  A    between atoms: C_6  and  C_7
REMARK    3  A    between atoms: C_7  and  N_8
REMARK    4  A    between atoms: C_9  and  C_11
REMARK    5  A    between atoms: N_19  and  C_20
REMARK                            x       y       z     vdW  Elec       q    Type
REMARK                         _______ _______ _______ _____ _____    ______ ____
ROOT
ATOM     11  C   UNL     1      13.415   7.392  20.448  0.00  0.00    +0.161 C 
ATOM     12  C   UNL     1      14.239   7.364  20.432  0.00  0.00    +0.076 C 
ATOM     13  C   UNL     1      14.672   7.556  21.108  0.00  0.00    +0.078 A 
ATOM     14  C   UNL     1      14.279   7.776  21.800  0.00  0.00    +0.094 A 
ATOM     15  C   UNL     1      13.454   7.803  21.816  0.00  0.00    +0.143 C 
ATOM     16  N   UNL     1      13.023   7.611  21.140  0.00  0.00    -0.250 N 
ATOM     17  C   UNL     1      12.199   7.638  21.156  0.00  0.00    +0.324 C 
ATOM     18  O   UNL     1      11.766   7.446  20.479  0.00  0.00    -0.251 OA
ATOM     19  N   UNL     1      11.806   7.858  21.848  0.00  0.00    -0.190 NA
ATOM     23  N   UNL     1      14.847   7.934  22.376  0.00  0.00    -0.225 NA
ATOM     24  C   UNL     1      15.591   7.813  22.041  0.00  0.00    +0.198 A 
ATOM     25  N   UNL     1      15.482   7.579  21.258  0.00  0.00    -0.227 NA
ENDROOT
BRANCH  11   9
ATOM      8  N   UNL     1      12.990   7.706  19.121  0.00  0.00    -0.199 NA
ATOM      9  C   UNL     1      12.983   7.200  19.772  0.00  0.00    +0.260 C 
ATOM     10  O   UNL     1      12.544   6.501  19.747  0.00  0.00    -0.272 OA
BRANCH   8   7
ATOM      7  C   UNL     1      12.557   7.514  18.445  0.00  0.00    +0.142 C 
BRANCH   7   6
ATOM      3  C   UNL     1      12.998   8.699  16.317  0.00  0.00    +0.139 A 
ATOM      4  C   UNL     1      12.269   8.787  16.695  0.00  0.00    +0.037 A 
ATOM      5  C   UNL     1      12.122   8.392  17.404  0.00  0.00    +0.001 A 
ATOM      6  C   UNL     1      12.704   7.909  17.735  0.00  0.00    -0.000 A 
ATOM     26  C   UNL     1      13.432   7.821  17.358  0.00  0.00    +0.001 A 
ATOM     27  C   UNL     1      13.579   8.216  16.648  0.00  0.00    +0.037 A 
BRANCH   3   2
ATOM      1  C   UNL     1      13.904   9.094  15.285  0.00  0.00    +0.252 C 
ATOM      2  O   UNL     1      13.145   9.093  15.607  0.00  0.00    -0.471 OA
ENDBRANCH   3   2
ENDBRANCH   7   6
ENDBRANCH   8   7
ENDBRANCH  11   9
BRANCH  19  20
ATOM     20  C   UNL     1      10.982   7.885  21.863  0.00  0.00    +0.097 C 
ATOM     21  C   UNL     1      10.592   8.610  21.809  0.00  0.00    +0.023 C 
ATOM     22  C   UNL     1      10.547   7.188  21.932  0.00  0.00    +0.023 C 
ENDBRANCH  19  20
TORSDOF 5
ENDMDL
