MODEL 1
REMARK VINA RESULT:     -16.1      0.000      0.000
REMARK  Name = 
REMARK  5 active torsions:
REMARK  status: ('A' for Active; 'I' for Inactive)
REMARK    1  A    between atoms: C_2  and  O_5
REMARK    2  A    between atoms: O_5  and  C_6
REMARK    3  A    between atoms: C_9  and  C_12
REMARK    4  A    between atoms: N_18  and  S_20
REMARK    5  A    between atoms: S_20  and  C_23
REMARK                            x       y       z     vdW  Elec       q    Type
REMARK                         _______ _______ _______ _____ _____    ______ ____
ROOT
ATOM     12  C   UNL     1      -3.496   0.982  24.809  0.00  0.00    +0.012 A 
ATOM     13  C   UNL     1      -4.091   1.540  24.931  0.00  0.00    +0.041 A 
ATOM     14  C   UNL     1      -5.005   1.604  25.001  0.00  0.00    +0.056 C 
ATOM     15  C   UNL     1      -5.587   1.213  24.982  0.00  0.00    +0.011 C 
ATOM     16  C   UNL     1      -5.392   1.997  25.084  0.00  0.00    +0.041 C 
ATOM     17  C   UNL     1      -5.358   2.975  25.225  0.00  0.00    +0.098 C 
ATOM     18  N   UNL     1      -4.532   3.093  25.187  0.00  0.00    -0.155 NA
ATOM     19  C   UNL     1      -4.989   2.549  25.138  0.00  0.00    +0.102 C 
ATOM     29  C   UNL     1      -4.436   1.940  25.012  0.00  0.00    +0.110 C 
ATOM     30  N   UNL     1      -3.896   2.335  25.034  0.00  0.00    -0.299 N 
ATOM     31  C   UNL     1      -3.106   2.572  25.016  0.00  0.00    +0.261 A 
ATOM     32  O   UNL     1      -2.912   3.367  25.120  0.00  0.00    -0.267 OA
ATOM     33  C   UNL     1      -2.511   2.014  24.895  0.00  0.00    +0.061 A 
ATOM     34  C   UNL     1      -2.706   1.219  24.792  0.00  0.00    +0.006 A 
ENDROOT
BRANCH  12   9
ATOM      6  C   UNL     1      -4.079  -1.404  24.499  0.00  0.00    +0.147 A 
ATOM      7  C   UNL     1      -4.048  -0.899  23.847  0.00  0.00    +0.037 A 
ATOM      8  C   UNL     1      -3.853  -0.104  23.951  0.00  0.00    +0.003 A 
ATOM      9  C   UNL     1      -3.690   0.187  24.706  0.00  0.00    +0.001 A 
ATOM     10  C   UNL     1      -3.722  -0.318  25.357  0.00  0.00    +0.003 A 
ATOM     11  C   UNL     1      -3.916  -1.114  25.254  0.00  0.00    +0.037 A 
BRANCH   6   5
ATOM      5  O   UNL     1      -4.274  -2.198  24.395  0.00  0.00    -0.404 OA
BRANCH   5   2
ATOM      1  F   UNL     1      -3.082  -3.319  24.183  0.00  0.00    -0.133 F 
ATOM      2  C   UNL     1      -3.678  -2.759  24.289  0.00  0.00    +0.575 C 
ATOM      3  F   UNL     1      -3.724  -2.652  23.472  0.00  0.00    -0.133 F 
ATOM      4  F   UNL     1      -3.632  -2.866  25.106  0.00  0.00    -0.133 F 
ENDBRANCH   5   2
ENDBRANCH   6   5
ENDBRANCH  12   9
BRANCH  18  20
ATOM     20  S   UNL     1      -3.811   3.494  25.198  0.00  0.00    +0.063 S 
ATOM     21  O   UNL     1      -3.763   3.386  26.015  0.00  0.00    -0.153 OA
ATOM     22  O   UNL     1      -3.859   3.602  24.381  0.00  0.00    -0.153 OA
BRANCH  20  23
ATOM     23  C   UNL     1      -3.089   3.895  25.209  0.00  0.00    +0.122 A 
ATOM     24  C   UNL     1      -2.770   4.187  24.507  0.00  0.00    +0.020 A 
ATOM     25  C   UNL     1      -2.048   4.589  24.518  0.00  0.00    +0.001 A 
ATOM     26  C   UNL     1      -1.648   4.697  25.231  0.00  0.00    +0.000 A 
ATOM     27  C   UNL     1      -1.968   4.404  25.932  0.00  0.00    +0.001 A 
ATOM     28  C   UNL     1      -2.689   4.003  25.922  0.00  0.00    +0.020 A 
ENDBRANCH  20  23
ENDBRANCH  18  20
TORSDOF 5
ENDMDL
MODEL 2
REMARK VINA RESULT:     -16.0      2.906      4.913
REMARK  Name = 
REMARK  5 active torsions:
REMARK  status: ('A' for Active; 'I' for Inactive)
REMARK    1  A    between atoms: C_2  and  O_5
REMARK    2  A    between atoms: O_5  and  C_6
REMARK    3  A    between atoms: C_9  and  C_12
REMARK    4  A    between atoms: N_18  and  S_20
REMARK    5  A    between atoms: S_20  and  C_23
REMARK                            x       y       z     vdW  Elec       q    Type
REMARK                         _______ _______ _______ _____ _____    ______ ____
ROOT
ATOM     12  C   UNL     1      -2.227   1.496  24.934  0.00  0.00    +0.012 A 
ATOM     13  C   UNL     1      -3.050   1.488  24.889  0.00  0.00    +0.041 A 
ATOM     14  C   UNL     1      -3.770   2.060  24.877  0.00  0.00    +0.056 C 
ATOM     15  C   UNL     1      -3.931   2.742  24.902  0.00  0.00    +0.011 C 
ATOM     16  C   UNL     1      -4.326   2.032  24.845  0.00  0.00    +0.041 C 
ATOM     17  C   UNL     1      -4.973   1.289  24.773  0.00  0.00    +0.098 C 
ATOM     18  N   UNL     1      -4.445   0.642  24.771  0.00  0.00    -0.155 NA
ATOM     19  C   UNL     1      -4.408   1.353  24.807  0.00  0.00    +0.102 C 
ATOM     29  C   UNL     1      -3.580   1.427  24.857  0.00  0.00    +0.110 C 
ATOM     30  N   UNL     1      -3.453   0.770  24.831  0.00  0.00    -0.299 N 
ATOM     31  C   UNL     1      -3.033   0.061  24.820  0.00  0.00    +0.261 A 
ATOM     32  O   UNL     1      -3.436  -0.657  24.763  0.00  0.00    -0.267 OA
ATOM     33  C   UNL     1      -2.210   0.068  24.866  0.00  0.00    +0.061 A 
ATOM     34  C   UNL     1      -1.806   0.786  24.923  0.00  0.00    +0.006 A 
ENDROOT
BRANCH  12   9
ATOM      6  C   UNL     1      -1.017   3.649  25.106  0.00  0.00    +0.147 A 
ATOM      7  C   UNL     1      -1.265   3.259  25.790  0.00  0.00    +0.037 A 
ATOM      8  C   UNL     1      -1.668   2.542  25.732  0.00  0.00    +0.003 A 
ATOM      9  C   UNL     1      -1.823   2.213  24.992  0.00  0.00    +0.001 A 
ATOM     10  C   UNL     1      -1.575   2.603  24.308  0.00  0.00    +0.003 A 
ATOM     11  C   UNL     1      -1.172   3.320  24.365  0.00  0.00    +0.037 A 
BRANCH   6   5
ATOM      5  O   UNL     1      -0.614   4.365  25.164  0.00  0.00    -0.404 OA
BRANCH   5   2
ATOM      1  F   UNL     1      -1.385   5.778  24.798  0.00  0.00    -0.133 F 
ATOM      2  C   UNL     1      -1.000   5.072  24.981  0.00  0.00    +0.575 C 
ATOM      3  F   UNL     1      -0.559   5.131  24.285  0.00  0.00    -0.133 F 
ATOM      4  F   UNL     1      -1.440   5.012  25.676  0.00  0.00    -0.133 F 
ENDBRANCH   5   2
ENDBRANCH   6   5
ENDBRANCH  12   9
BRANCH  18  20
ATOM     20  S   UNL     1      -4.188  -0.142  24.746  0.00  0.00    +0.063 S 
ATOM     21  O   UNL     1      -4.130  -0.098  23.924  0.00  0.00    -0.153 OA
ATOM     22  O   UNL     1      -4.245  -0.186  25.569  0.00  0.00    -0.153 OA
BRANCH  20  23
ATOM     23  C   UNL     1      -3.931  -0.926  24.722  0.00  0.00    +0.122 A 
ATOM     24  C   UNL     1      -3.737  -1.318  25.421  0.00  0.00    +0.020 A 
ATOM     25  C   UNL     1      -3.480  -2.102  25.397  0.00  0.00    +0.001 A 
ATOM     26  C   UNL     1      -3.417  -2.492  24.674  0.00  0.00    +0.000 A 
ATOM     27  C   UNL     1      -3.611  -2.100  23.975  0.00  0.00    +0.001 A 
ATOM     28  C   UNL     1      -3.868  -1.316  23.999  0.00  0.00    +0.020 A 
ENDBRANCH  20  23
ENDBRANCH  18  20
TORSDOF 5
ENDMDL
MODEL 3
REMARK VINA RESULT:     -14.9      1.470      2.383
REMARK  Name = 
REMARK  5 active torsions:
REMARK  status: ('A' for Active; 'I' for Inactive)
REMARK    1  A    between atoms: C_2  and  O_5
REMARK    2  A    between atoms: O_5  and  C_6
REMARK    3  A    between atoms: C_9  and  C_12
REMARK    4  A    between atoms: N_18  and  S_20
REMARK    5  A    between atoms: S_20  and  C_23
REMARK                            x       y       z     vdW  Elec       q    Type
REMARK                         _______ _______ _______ _____ _____    ______ ____
ROOT
ATOM     12  C   UNL     1      -2.890   1.300  24.661  0.00  0.00    +0.012 A 
ATOM     13  C   UNL     1      -2.133   1.265  24.988  0.00  0.00    +0.041 A 
ATOM     14  C   UNL     1      -1.514   0.657  25.290  0.00  0.00    +0.056 C 
ATOM     15  C   UNL     1      -1.415  -0.033  25.373  0.00  0.00    +0.011 C 
ATOM     16  C   UNL     1      -1.002   0.655  25.510  0.00  0.00    +0.041 C 
ATOM     17  C   UNL     1      -0.354   1.363  25.746  0.00  0.00    +0.098 C 
ATOM     18  N   UNL     1      -0.792   2.036  25.518  0.00  0.00    -0.155 NA
ATOM     19  C   UNL     1      -0.877   1.329  25.524  0.00  0.00    +0.102 C 
ATOM     29  C   UNL     1      -1.642   1.298  25.197  0.00  0.00    +0.110 C 
ATOM     30  N   UNL     1      -1.711   1.960  25.128  0.00  0.00    -0.299 N 
ATOM     31  C   UNL     1      -2.046   2.691  24.941  0.00  0.00    +0.261 A 
ATOM     32  O   UNL     1      -1.624   3.386  25.081  0.00  0.00    -0.267 OA
ATOM     33  C   UNL     1      -2.802   2.726  24.614  0.00  0.00    +0.061 A 
ATOM     34  C   UNL     1      -3.224   2.031  24.474  0.00  0.00    +0.006 A 
ENDROOT
BRANCH  12   9
ATOM      6  C   UNL     1      -4.155  -0.785  24.240  0.00  0.00    +0.147 A 
ATOM      7  C   UNL     1      -4.198  -0.418  24.978  0.00  0.00    +0.037 A 
ATOM      8  C   UNL     1      -3.777   0.277  25.118  0.00  0.00    +0.003 A 
ATOM      9  C   UNL     1      -3.311   0.605  24.521  0.00  0.00    +0.001 A 
ATOM     10  C   UNL     1      -3.268   0.238  23.783  0.00  0.00    +0.003 A 
ATOM     11  C   UNL     1      -3.690  -0.457  23.643  0.00  0.00    +0.037 A 
BRANCH   6   5
ATOM      5  O   UNL     1      -4.576  -1.480  24.101  0.00  0.00    -0.404 OA
BRANCH   5   2
ATOM      1  F   UNL     1      -3.779  -2.919  23.978  0.00  0.00    -0.133 F 
ATOM      2  C   UNL     1      -4.178  -2.200  24.039  0.00  0.00    +0.575 C 
ATOM      3  F   UNL     1      -4.259  -2.174  23.218  0.00  0.00    -0.133 F 
ATOM      4  F   UNL     1      -4.096  -2.225  24.860  0.00  0.00    -0.133 F 
ENDBRANCH   5   2
ENDBRANCH   6   5
ENDBRANCH  12   9
BRANCH  18  20
ATOM     20  S   UNL     1      -0.972   2.832  25.394  0.00  0.00    +0.063 S 
ATOM     21  O   UNL     1      -1.283   2.881  26.157  0.00  0.00    -0.153 OA
ATOM     22  O   UNL     1      -0.661   2.783  24.631  0.00  0.00    -0.153 OA
BRANCH  20  23
ATOM     23  C   UNL     1      -1.151   3.628  25.270  0.00  0.00    +0.122 A 
ATOM     24  C   UNL     1      -1.665   4.020  25.782  0.00  0.00    +0.020 A 
ATOM     25  C   UNL     1      -1.844   4.816  25.658  0.00  0.00    +0.001 A 
ATOM     26  C   UNL     1      -1.509   5.219  25.022  0.00  0.00    +0.000 A 
ATOM     27  C   UNL     1      -0.995   4.828  24.510  0.00  0.00    +0.001 A 
ATOM     28  C   UNL     1      -0.815   4.032  24.634  0.00  0.00    +0.020 A 
ENDBRANCH  20  23
ENDBRANCH  18  20
TORSDOF 5
ENDMDL
MODEL 4
REMARK VINA RESULT:     -13.7      3.125      5.387
REMARK  Name = 
REMARK  5 active torsions:
REMARK  status: ('A' for Active; 'I' for Inactive)
REMARK    1  A    between atoms: C_2  and  O_5
REMARK    2  A    between atoms: O_5  and  C_6
REMARK    3  A    between atoms: C_9  and  C_12
REMARK    4  A    between atoms: N_18  and  S_20
REMARK    5  A    between atoms: S_20  and  C_23
REMARK                            x       y       z     vdW  Elec       q    Type
REMARK                         _______ _______ _______ _____ _____    ______ ____
ROOT
ATOM     12  C   UNL     1      -2.425   1.684  25.029  0.00  0.00    +0.012 A 
ATOM     13  C   UNL     1      -1.797   1.154  24.956  0.00  0.00    +0.041 A 
ATOM     14  C   UNL     1      -0.878   1.136  24.931  0.00  0.00    +0.056 C 
ATOM     15  C   UNL     1      -0.318   1.558  24.962  0.00  0.00    +0.011 C 
ATOM     16  C   UNL     1      -0.468   0.761  24.880  0.00  0.00    +0.041 C 
ATOM     17  C   UNL     1      -0.445  -0.221  24.773  0.00  0.00    +0.098 C 
ATOM     18  N   UNL     1      -1.265  -0.381  24.776  0.00  0.00    -0.155 NA
ATOM     19  C   UNL     1      -0.839   0.187  24.827  0.00  0.00    +0.102 C 
ATOM     29  C   UNL     1      -1.428   0.771  24.905  0.00  0.00    +0.110 C 
ATOM     30  N   UNL     1      -1.945   0.347  24.872  0.00  0.00    -0.299 N 
ATOM     31  C   UNL     1      -2.722   0.069  24.862  0.00  0.00    +0.261 A 
ATOM     32  O   UNL     1      -2.871  -0.738  24.778  0.00  0.00    -0.267 OA
ATOM     33  C   UNL     1      -3.350   0.599  24.935  0.00  0.00    +0.061 A 
ATOM     34  C   UNL     1      -3.201   1.406  25.019  0.00  0.00    +0.006 A 
ENDROOT
BRANCH  12   9
ATOM      6  C   UNL     1      -1.979   4.106  25.280  0.00  0.00    +0.147 A 
ATOM      7  C   UNL     1      -1.985   3.617  25.944  0.00  0.00    +0.037 A 
ATOM      8  C   UNL     1      -2.134   2.809  25.861  0.00  0.00    +0.003 A 
ATOM      9  C   UNL     1      -2.276   2.491  25.113  0.00  0.00    +0.001 A 
ATOM     10  C   UNL     1      -2.270   2.981  24.449  0.00  0.00    +0.003 A 
ATOM     11  C   UNL     1      -2.121   3.788  24.533  0.00  0.00    +0.037 A 
BRANCH   6   5
ATOM      5  O   UNL     1      -1.830   4.912  25.364  0.00  0.00    -0.404 OA
BRANCH   5   2
ATOM      1  F   UNL     1      -0.503   5.586  24.653  0.00  0.00    -0.133 F 
ATOM      2  C   UNL     1      -1.166   5.249  25.009  0.00  0.00    +0.575 C 
ATOM      3  F   UNL     1      -1.655   5.655  24.482  0.00  0.00    -0.133 F 
ATOM      4  F   UNL     1      -0.678   4.844  25.536  0.00  0.00    -0.133 F 
ENDBRANCH   5   2
ENDBRANCH   6   5
ENDBRANCH  12   9
BRANCH  18  20
ATOM     20  S   UNL     1      -1.964  -0.820  24.746  0.00  0.00    +0.063 S 
ATOM     21  O   UNL     1      -1.937  -0.918  25.565  0.00  0.00    -0.153 OA
ATOM     22  O   UNL     1      -1.990  -0.722  23.927  0.00  0.00    -0.153 OA
BRANCH  20  23
ATOM     23  C   UNL     1      -2.662  -1.259  24.716  0.00  0.00    +0.122 A 
ATOM     24  C   UNL     1      -3.052  -1.365  23.997  0.00  0.00    +0.020 A 
ATOM     25  C   UNL     1      -3.750  -1.804  23.967  0.00  0.00    +0.001 A 
ATOM     26  C   UNL     1      -4.058  -2.135  24.657  0.00  0.00    +0.000 A 
ATOM     27  C   UNL     1      -3.669  -2.028  25.376  0.00  0.00    +0.001 A 
ATOM     28  C   UNL     1      -2.970  -1.590  25.406  0.00  0.00    +0.020 A 
ENDBRANCH  20  23
ENDBRANCH  18  20
TORSDOF 5
ENDMDL
