MODEL 1
REMARK VINA RESULT:      -9.0      0.000      0.000
REMARK  Name = 
REMARK  1 active torsions:
REMARK  status: ('A' for Active; 'I' for Inactive)
REMARK    1  A    between atoms: C_5  and  N_8
REMARK                            x       y       z     vdW  Elec       q    Type
REMARK                         _______ _______ _______ _____ _____    ______ ____
ROOT
ATOM      8  N   UNL     1      -4.138   0.450  24.777  0.00  0.00    -0.271 NA
ATOM      9  C   UNL     1      -3.589   0.980  24.465  0.00  0.00    +0.094 C 
ATOM     10  C   UNL     1      -3.741   1.790  24.486  0.00  0.00    +0.112 C 
ATOM     11  N   UNL     1      -4.441   2.071  24.819  0.00  0.00    -0.260 N 
ATOM     12  C   UNL     1      -4.991   1.541  25.132  0.00  0.00    +0.115 C 
ATOM     13  C   UNL     1      -5.628   1.975  25.423  0.00  0.00    +0.138 C 
ATOM     14  N   UNL     1      -5.473   2.774  25.291  0.00  0.00    -0.187 NA
ATOM     15  C   UNL     1      -4.740   2.833  24.918  0.00  0.00    +0.323 C 
ATOM     16  O   UNL     1      -4.369   3.533  24.684  0.00  0.00    -0.251 OA
ATOM     17  C   UNL     1      -4.839   0.729  25.110  0.00  0.00    +0.094 C 
ENDROOT
BRANCH   8   5
ATOM      1  C   UNL     1      -3.534  -2.793  24.691  0.00  0.00    +0.090 C 
ATOM      2  N   UNL     1      -3.685  -1.983  24.713  0.00  0.00    -0.271 NA
ATOM      3  C   UNL     1      -4.046  -1.614  24.069  0.00  0.00    +0.074 C 
ATOM      4  C   UNL     1      -4.197  -0.802  24.091  0.00  0.00    +0.033 C 
ATOM      5  C   UNL     1      -3.987  -0.362  24.756  0.00  0.00    +0.060 C 
ATOM      6  C   UNL     1      -3.626  -0.731  25.399  0.00  0.00    +0.033 C 
ATOM      7  C   UNL     1      -3.475  -1.541  25.377  0.00  0.00    +0.074 C 
ENDBRANCH   8   5
TORSDOF 1
ENDMDL
MODEL 2
REMARK VINA RESULT:      -8.5      1.689      3.938
REMARK  Name = 
REMARK  1 active torsions:
REMARK  status: ('A' for Active; 'I' for Inactive)
REMARK    1  A    between atoms: C_5  and  N_8
REMARK                            x       y       z     vdW  Elec       q    Type
REMARK                         _______ _______ _______ _____ _____    ______ ____
ROOT
ATOM      8  N   UNL     1      -4.004  -0.033  24.867  0.00  0.00    -0.271 NA
ATOM      9  C   UNL     1      -3.642  -0.366  25.530  0.00  0.00    +0.094 C 
ATOM     10  C   UNL     1      -3.496  -1.176  25.556  0.00  0.00    +0.112 C 
ATOM     11  N   UNL     1      -3.710  -1.656  24.920  0.00  0.00    -0.260 N 
ATOM     12  C   UNL     1      -4.072  -1.324  24.258  0.00  0.00    +0.115 C 
ATOM     13  C   UNL     1      -4.222  -1.929  23.718  0.00  0.00    +0.138 C 
ATOM     14  N   UNL     1      -3.952  -2.636  24.047  0.00  0.00    -0.187 NA
ATOM     15  C   UNL     1      -3.637  -2.467  24.790  0.00  0.00    +0.323 C 
ATOM     16  O   UNL     1      -3.304  -3.013  25.312  0.00  0.00    -0.251 OA
ATOM     17  C   UNL     1      -4.219  -0.512  24.231  0.00  0.00    +0.094 C 
ENDROOT
BRANCH   8   5
ATOM      1  C   UNL     1      -4.591   3.212  24.760  0.00  0.00    +0.090 C 
ATOM      2  N   UNL     1      -4.444   2.402  24.787  0.00  0.00    -0.271 NA
ATOM      3  C   UNL     1      -3.726   2.103  24.513  0.00  0.00    +0.074 C 
ATOM      4  C   UNL     1      -3.579   1.291  24.540  0.00  0.00    +0.033 C 
ATOM      5  C   UNL     1      -4.151   0.779  24.841  0.00  0.00    +0.060 C 
ATOM      6  C   UNL     1      -4.870   1.077  25.114  0.00  0.00    +0.033 C 
ATOM      7  C   UNL     1      -5.016   1.888  25.088  0.00  0.00    +0.074 C 
ENDBRANCH   8   5
TORSDOF 1
ENDMDL
MODEL 3
REMARK VINA RESULT:      -7.7      2.264      2.643
REMARK  Name = 
REMARK  1 active torsions:
REMARK  status: ('A' for Active; 'I' for Inactive)
REMARK    1  A    between atoms: C_5  and  N_8
REMARK                            x       y       z     vdW  Elec       q    Type
REMARK                         _______ _______ _______ _____ _____    ______ ____
ROOT
ATOM      8  N   UNL     1      -3.222   2.139  24.775  0.00  0.00    -0.271 NA
ATOM      9  C   UNL     1      -3.236   2.921  25.038  0.00  0.00    +0.094 C 
ATOM     10  C   UNL     1      -3.946   3.260  25.284  0.00  0.00    +0.112 C 
ATOM     11  N   UNL     1      -4.643   2.819  25.266  0.00  0.00    -0.260 N 
ATOM     12  C   UNL     1      -4.629   2.038  25.002  0.00  0.00    +0.115 C 
ATOM     13  C   UNL     1      -5.397   1.740  25.046  0.00  0.00    +0.138 C 
ATOM     14  N   UNL     1      -5.886   2.338  25.336  0.00  0.00    -0.187 NA
ATOM     15  C   UNL     1      -5.419   3.004  25.472  0.00  0.00    +0.323 C 
ATOM     16  O   UNL     1      -5.683   3.730  25.764  0.00  0.00    -0.251 OA
ATOM     17  C   UNL     1      -3.918   1.697  24.756  0.00  0.00    +0.094 C 
ENDROOT
BRANCH   8   5
ATOM      1  C   UNL     1      -0.381   0.778  23.792  0.00  0.00    +0.090 C 
ATOM      2  N   UNL     1      -1.090   1.118  24.038  0.00  0.00    -0.271 NA
ATOM      3  C   UNL     1      -1.330   1.051  24.824  0.00  0.00    +0.074 C 
ATOM      4  C   UNL     1      -2.041   1.392  25.070  0.00  0.00    +0.033 C 
ATOM      5  C   UNL     1      -2.511   1.799  24.529  0.00  0.00    +0.060 C 
ATOM      6  C   UNL     1      -2.272   1.866  23.742  0.00  0.00    +0.033 C 
ATOM      7  C   UNL     1      -1.562   1.526  23.497  0.00  0.00    +0.074 C 
ENDBRANCH   8   5
TORSDOF 1
ENDMDL
MODEL 4
REMARK VINA RESULT:      -7.5      2.496      3.794
REMARK  Name = 
REMARK  1 active torsions:
REMARK  status: ('A' for Active; 'I' for Inactive)
REMARK    1  A    between atoms: C_5  and  N_8
REMARK                            x       y       z     vdW  Elec       q    Type
REMARK                         _______ _______ _______ _____ _____    ______ ____
ROOT
ATOM      8  N   UNL     1      -2.594   1.732  24.598  0.00  0.00    -0.271 NA
ATOM      9  C   UNL     1      -2.253   1.391  23.928  0.00  0.00    +0.094 C 
ATOM     10  C   UNL     1      -1.432   1.356  23.856  0.00  0.00    +0.112 C 
ATOM     11  N   UNL     1      -0.951   1.662  24.453  0.00  0.00    -0.260 N 
ATOM     12  C   UNL     1      -1.292   2.003  25.123  0.00  0.00    +0.115 C 
ATOM     13  C   UNL     1      -0.684   2.257  25.617  0.00  0.00    +0.138 C 
ATOM     14  N   UNL     1       0.034   2.074  25.254  0.00  0.00    -0.187 NA
ATOM     15  C   UNL     1      -0.132   1.706  24.535  0.00  0.00    +0.323 C 
ATOM     16  O   UNL     1       0.424   1.431  23.991  0.00  0.00    -0.251 OA
ATOM     17  C   UNL     1      -2.114   2.038  25.195  0.00  0.00    +0.094 C 
ENDROOT
BRANCH   8   5
ATOM      1  C   UNL     1      -5.878   1.870  24.889  0.00  0.00    +0.090 C 
ATOM      2  N   UNL     1      -5.057   1.835  24.816  0.00  0.00    -0.271 NA
ATOM      3  C   UNL     1      -4.660   1.128  24.966  0.00  0.00    +0.074 C 
ATOM      4  C   UNL     1      -3.838   1.094  24.893  0.00  0.00    +0.033 C 
ATOM      5  C   UNL     1      -3.415   1.766  24.671  0.00  0.00    +0.060 C 
ATOM      6  C   UNL     1      -3.813   2.473  24.521  0.00  0.00    +0.033 C 
ATOM      7  C   UNL     1      -4.634   2.508  24.594  0.00  0.00    +0.074 C 
ENDBRANCH   8   5
TORSDOF 1
ENDMDL
MODEL 5
REMARK VINA RESULT:      -7.5      2.602      4.399
REMARK  Name = 
REMARK  1 active torsions:
REMARK  status: ('A' for Active; 'I' for Inactive)
REMARK    1  A    between atoms: C_5  and  N_8
REMARK                            x       y       z     vdW  Elec       q    Type
REMARK                         _______ _______ _______ _____ _____    ______ ____
ROOT
ATOM      8  N   UNL     1      -2.072   1.375  24.569  0.00  0.00    -0.271 NA
ATOM      9  C   UNL     1      -1.577   1.455  23.914  0.00  0.00    +0.094 C 
ATOM     10  C   UNL     1      -0.989   0.895  23.771  0.00  0.00    +0.112 C 
ATOM     11  N   UNL     1      -0.895   0.255  24.284  0.00  0.00    -0.260 N 
ATOM     12  C   UNL     1      -1.390   0.175  24.939  0.00  0.00    +0.115 C 
ATOM     13  C   UNL     1      -1.169  -0.508  25.344  0.00  0.00    +0.138 C 
ATOM     14  N   UNL     1      -0.537  -0.851  24.940  0.00  0.00    -0.187 NA
ATOM     15  C   UNL     1      -0.369  -0.379  24.285  0.00  0.00    +0.323 C 
ATOM     16  O   UNL     1       0.224  -0.518  23.727  0.00  0.00    -0.251 OA
ATOM     17  C   UNL     1      -1.979   0.736  25.082  0.00  0.00    +0.094 C 
ENDROOT
BRANCH   8   5
ATOM      1  C   UNL     1      -4.426   3.617  25.140  0.00  0.00    +0.090 C 
ATOM      2  N   UNL     1      -3.838   3.057  24.998  0.00  0.00    -0.271 NA
ATOM      3  C   UNL     1      -3.061   3.205  25.232  0.00  0.00    +0.074 C 
ATOM      4  C   UNL     1      -2.472   2.645  25.089  0.00  0.00    +0.033 C 
ATOM      5  C   UNL     1      -2.661   1.936  24.712  0.00  0.00    +0.060 C 
ATOM      6  C   UNL     1      -3.438   1.787  24.477  0.00  0.00    +0.033 C 
ATOM      7  C   UNL     1      -4.026   2.347  24.620  0.00  0.00    +0.074 C 
ENDBRANCH   8   5
TORSDOF 1
ENDMDL
MODEL 6
REMARK VINA RESULT:      -7.4      1.568      1.966
REMARK  Name = 
REMARK  1 active torsions:
REMARK  status: ('A' for Active; 'I' for Inactive)
REMARK    1  A    between atoms: C_5  and  N_8
REMARK                            x       y       z     vdW  Elec       q    Type
REMARK                         _______ _______ _______ _____ _____    ______ ____
ROOT
ATOM      8  N   UNL     1      -3.335   0.593  24.915  0.00  0.00    -0.271 NA
ATOM      9  C   UNL     1      -4.061   0.201  24.914  0.00  0.00    +0.094 C 
ATOM     10  C   UNL     1      -4.763   0.634  24.899  0.00  0.00    +0.112 C 
ATOM     11  N   UNL     1      -4.740   1.458  24.884  0.00  0.00    -0.260 N 
ATOM     12  C   UNL     1      -4.014   1.850  24.885  0.00  0.00    +0.115 C 
ATOM     13  C   UNL     1      -4.162   2.661  24.868  0.00  0.00    +0.138 C 
ATOM     14  N   UNL     1      -4.979   2.771  24.857  0.00  0.00    -0.187 NA
ATOM     15  C   UNL     1      -5.336   2.027  24.867  0.00  0.00    +0.323 C 
ATOM     16  O   UNL     1      -6.147   1.879  24.861  0.00  0.00    -0.251 OA
ATOM     17  C   UNL     1      -3.311   1.417  24.900  0.00  0.00    +0.094 C 
ENDROOT
BRANCH   8   5
ATOM      1  C   UNL     1      -0.526  -1.137  24.977  0.00  0.00    +0.090 C 
ATOM      2  N   UNL     1      -1.227  -0.705  24.961  0.00  0.00    -0.271 NA
ATOM      3  C   UNL     1      -1.798  -0.824  25.545  0.00  0.00    +0.074 C 
ATOM      4  C   UNL     1      -2.501  -0.391  25.529  0.00  0.00    +0.033 C 
ATOM      5  C   UNL     1      -2.632   0.160  24.930  0.00  0.00    +0.060 C 
ATOM      6  C   UNL     1      -2.061   0.280  24.347  0.00  0.00    +0.033 C 
ATOM      7  C   UNL     1      -1.359  -0.153  24.362  0.00  0.00    +0.074 C 
ENDBRANCH   8   5
TORSDOF 1
ENDMDL
MODEL 7
REMARK VINA RESULT:      -7.4      2.934      3.497
REMARK  Name = 
REMARK  1 active torsions:
REMARK  status: ('A' for Active; 'I' for Inactive)
REMARK    1  A    between atoms: C_5  and  N_8
REMARK                            x       y       z     vdW  Elec       q    Type
REMARK                         _______ _______ _______ _____ _____    ______ ____
ROOT
ATOM      8  N   UNL     1      -1.324  -0.082  24.691  0.00  0.00    -0.271 NA
ATOM      9  C   UNL     1      -0.787  -0.005  24.070  0.00  0.00    +0.094 C 
ATOM     10  C   UNL     1      -0.255   0.625  24.061  0.00  0.00    +0.112 C 
ATOM     11  N   UNL     1      -0.259   1.178  24.674  0.00  0.00    -0.260 N 
ATOM     12  C   UNL     1      -0.796   1.100  25.295  0.00  0.00    +0.115 C 
ATOM     13  C   UNL     1      -0.672   1.724  25.819  0.00  0.00    +0.138 C 
ATOM     14  N   UNL     1      -0.059   2.189  25.522  0.00  0.00    -0.187 NA
ATOM     15  C   UNL     1       0.196   1.850  24.814  0.00  0.00    +0.323 C 
ATOM     16  O   UNL     1       0.802   2.135  24.331  0.00  0.00    -0.251 OA
ATOM     17  C   UNL     1      -1.329   0.469  25.304  0.00  0.00    +0.094 C 
ENDROOT
BRANCH   8   5
ATOM      1  C   UNL     1      -3.454  -2.603  24.725  0.00  0.00    +0.090 C 
ATOM      2  N   UNL     1      -2.922  -1.973  24.717  0.00  0.00    -0.271 NA
ATOM      3  C   UNL     1      -2.113  -2.117  24.781  0.00  0.00    +0.074 C 
ATOM      4  C   UNL     1      -1.579  -1.486  24.772  0.00  0.00    +0.033 C 
ATOM      5  C   UNL     1      -1.857  -0.713  24.699  0.00  0.00    +0.060 C 
ATOM      6  C   UNL     1      -2.667  -0.569  24.635  0.00  0.00    +0.033 C 
ATOM      7  C   UNL     1      -3.199  -1.199  24.644  0.00  0.00    +0.074 C 
ENDBRANCH   8   5
TORSDOF 1
ENDMDL
MODEL 8
REMARK VINA RESULT:      -7.3      2.831      3.160
REMARK  Name = 
REMARK  1 active torsions:
REMARK  status: ('A' for Active; 'I' for Inactive)
REMARK    1  A    between atoms: C_5  and  N_8
REMARK                            x       y       z     vdW  Elec       q    Type
REMARK                         _______ _______ _______ _____ _____    ______ ____
ROOT
ATOM      8  N   UNL     1      -1.290   1.678  25.185  0.00  0.00    -0.271 NA
ATOM      9  C   UNL     1      -0.731   2.201  25.493  0.00  0.00    +0.094 C 
ATOM     10  C   UNL     1      -0.901   3.006  25.538  0.00  0.00    +0.112 C 
ATOM     11  N   UNL     1      -1.630   3.290  25.275  0.00  0.00    -0.260 N 
ATOM     12  C   UNL     1      -2.189   2.767  24.967  0.00  0.00    +0.115 C 
ATOM     13  C   UNL     1      -2.855   3.203  24.752  0.00  0.00    +0.138 C 
ATOM     14  N   UNL     1      -2.708   3.995  24.927  0.00  0.00    -0.187 NA
ATOM     15  C   UNL     1      -1.952   4.049  25.250  0.00  0.00    +0.323 C 
ATOM     16  O   UNL     1      -1.580   4.741  25.504  0.00  0.00    -0.251 OA
ATOM     17  C   UNL     1      -2.019   1.960  24.922  0.00  0.00    +0.094 C 
ENDROOT
BRANCH   8   5
ATOM      1  C   UNL     1      -0.610  -1.546  25.005  0.00  0.00    +0.090 C 
ATOM      2  N   UNL     1      -0.780  -0.741  25.050  0.00  0.00    -0.271 NA
ATOM      3  C   UNL     1      -0.492  -0.226  24.473  0.00  0.00    +0.074 C 
ATOM      4  C   UNL     1      -0.663   0.581  24.518  0.00  0.00    +0.033 C 
ATOM      5  C   UNL     1      -1.120   0.871  25.140  0.00  0.00    +0.060 C 
ATOM      6  C   UNL     1      -1.407   0.356  25.717  0.00  0.00    +0.033 C 
ATOM      7  C   UNL     1      -1.237  -0.449  25.672  0.00  0.00    +0.074 C 
ENDBRANCH   8   5
TORSDOF 1
ENDMDL
MODEL 9
REMARK VINA RESULT:      -7.1      2.161      4.026
REMARK  Name = 
REMARK  1 active torsions:
REMARK  status: ('A' for Active; 'I' for Inactive)
REMARK    1  A    between atoms: C_5  and  N_8
REMARK                            x       y       z     vdW  Elec       q    Type
REMARK                         _______ _______ _______ _____ _____    ______ ____
ROOT
ATOM      8  N   UNL     1      -2.844   1.943  24.645  0.00  0.00    -0.271 NA
ATOM      9  C   UNL     1      -2.439   1.419  24.153  0.00  0.00    +0.094 C 
ATOM     10  C   UNL     1      -2.759   0.677  23.991  0.00  0.00    +0.112 C 
ATOM     11  N   UNL     1      -3.483   0.457  24.320  0.00  0.00    -0.260 N 
ATOM     12  C   UNL     1      -3.888   0.981  24.812  0.00  0.00    +0.115 C 
ATOM     13  C   UNL     1      -4.585   0.616  25.055  0.00  0.00    +0.138 C 
ATOM     14  N   UNL     1      -4.612  -0.135  24.714  0.00  0.00    -0.187 NA
ATOM     15  C   UNL     1      -3.931  -0.232  24.259  0.00  0.00    +0.323 C 
ATOM     16  O   UNL     1      -3.732  -0.902  23.821  0.00  0.00    -0.251 OA
ATOM     17  C   UNL     1      -3.568   1.725  24.975  0.00  0.00    +0.094 C 
ENDROOT
BRANCH   8   5
ATOM      1  C   UNL     1      -1.568   4.916  25.296  0.00  0.00    +0.090 C 
ATOM      2  N   UNL     1      -1.887   4.173  25.134  0.00  0.00    -0.271 NA
ATOM      3  C   UNL     1      -2.598   4.112  24.721  0.00  0.00    +0.074 C 
ATOM      4  C   UNL     1      -2.918   3.368  24.558  0.00  0.00    +0.033 C 
ATOM      5  C   UNL     1      -2.525   2.687  24.808  0.00  0.00    +0.060 C 
ATOM      6  C   UNL     1      -1.813   2.749  25.221  0.00  0.00    +0.033 C 
ATOM      7  C   UNL     1      -1.494   3.492  25.383  0.00  0.00    +0.074 C 
ENDBRANCH   8   5
TORSDOF 1
ENDMDL
MODEL 10
REMARK VINA RESULT:      -7.1      2.482      4.020
REMARK  Name = 
REMARK  1 active torsions:
REMARK  status: ('A' for Active; 'I' for Inactive)
REMARK    1  A    between atoms: C_5  and  N_8
REMARK                            x       y       z     vdW  Elec       q    Type
REMARK                         _______ _______ _______ _____ _____    ______ ____
ROOT
ATOM      8  N   UNL     1      -2.334   0.233  24.721  0.00  0.00    -0.271 NA
ATOM      9  C   UNL     1      -2.050  -0.330  25.253  0.00  0.00    +0.094 C 
ATOM     10  C   UNL     1      -2.436  -1.055  25.330  0.00  0.00    +0.112 C 
ATOM     11  N   UNL     1      -3.105  -1.218  24.875  0.00  0.00    -0.260 N 
ATOM     12  C   UNL     1      -3.388  -0.654  24.343  0.00  0.00    +0.115 C 
ATOM     13  C   UNL     1      -4.054  -0.967  23.971  0.00  0.00    +0.138 C 
ATOM     14  N   UNL     1      -4.182  -1.724  24.273  0.00  0.00    -0.187 NA
ATOM     15  C   UNL     1      -3.596  -1.878  24.831  0.00  0.00    +0.323 C 
ATOM     16  O   UNL     1      -3.514  -2.572  25.270  0.00  0.00    -0.251 OA
ATOM     17  C   UNL     1      -3.002   0.072  24.265  0.00  0.00    +0.094 C 
ENDROOT
BRANCH   8   5
ATOM      1  C   UNL     1      -0.792   3.135  24.412  0.00  0.00    +0.090 C 
ATOM      2  N   UNL     1      -1.178   2.410  24.489  0.00  0.00    -0.271 NA
ATOM      3  C   UNL     1      -0.881   1.743  24.106  0.00  0.00    +0.074 C 
ATOM      4  C   UNL     1      -1.266   1.016  24.183  0.00  0.00    +0.033 C 
ATOM      5  C   UNL     1      -1.948   0.959  24.643  0.00  0.00    +0.060 C 
ATOM      6  C   UNL     1      -2.245   1.627  25.027  0.00  0.00    +0.033 C 
ATOM      7  C   UNL     1      -1.860   2.352  24.949  0.00  0.00    +0.074 C 
ENDBRANCH   8   5
TORSDOF 1
ENDMDL
