MODEL 1
REMARK VINA RESULT:      -8.6      0.000      0.000
REMARK  Name = 
REMARK  6 active torsions:
REMARK  status: ('A' for Active; 'I' for Inactive)
REMARK    1  A    between atoms: O_2  and  C_3
REMARK    2  A    between atoms: C_6  and  C_7
REMARK    3  A    between atoms: C_7  and  N_8
REMARK    4  A    between atoms: C_12  and  C_13
REMARK    5  A    between atoms: C_15  and  C_18
REMARK    6  A    between atoms: C_21  and  N_24
REMARK                            x       y       z     vdW  Elec       q    Type
REMARK                         _______ _______ _______ _____ _____    ______ ____
ROOT
ATOM     13  C   UNL     1      -2.484  -0.443  24.643  0.00  0.00    +0.251 A 
ATOM     14  N   UNL     1      -1.900  -0.259  24.089  0.00  0.00    -0.190 NA
ATOM     15  C   UNL     1      -1.168  -0.305  24.466  0.00  0.00    +0.205 A 
ATOM     16  N   UNL     1      -1.299  -0.517  25.252  0.00  0.00    -0.056 NA
ATOM     17  O   UNL     1      -2.111  -0.602  25.361  0.00  0.00    -0.336 OA
ENDROOT
BRANCH  15  18
ATOM     18  C   UNL     1      -0.433  -0.164  24.117  0.00  0.00    +0.058 A 
ATOM     19  C   UNL     1      -0.174   0.610  24.001  0.00  0.00    +0.008 A 
ATOM     20  C   UNL     1       0.561   0.751  23.652  0.00  0.00    +0.034 A 
ATOM     21  C   UNL     1       1.035   0.118  23.420  0.00  0.00    +0.132 A 
ATOM     22  N   UNL     1       0.776  -0.657  23.536  0.00  0.00    -0.229 NA
ATOM     23  C   UNL     1       0.042  -0.798  23.885  0.00  0.00    +0.103 A 
BRANCH  21  24
ATOM     24  N   UNL     1       1.770   0.259  23.071  0.00  0.00    -0.290 N 
ATOM     25  C   UNL     1       2.285   0.811  23.404  0.00  0.00    +0.109 C 
ATOM     26  C   UNL     1       3.020   0.952  23.055  0.00  0.00    +0.094 C 
ATOM     27  N   UNL     1       3.239   0.541  22.374  0.00  0.00    -0.269 NA
ATOM     28  C   UNL     1       3.973   0.682  22.026  0.00  0.00    +0.090 C 
ATOM     29  C   UNL     1       2.724  -0.011  22.041  0.00  0.00    +0.094 C 
ATOM     30  C   UNL     1       1.989  -0.152  22.390  0.00  0.00    +0.109 C 
ENDBRANCH  21  24
ENDBRANCH  15  18
BRANCH  13  12
ATOM      8  N   UNL     1      -3.825   0.156  24.629  0.00  0.00    -0.263 NA
ATOM      9  C   UNL     1      -4.579  -0.103  24.416  0.00  0.00    +0.073 C 
ATOM     10  C   UNL     1      -4.515  -0.884  24.156  0.00  0.00    +0.019 C 
ATOM     11  C   UNL     1      -3.722  -1.106  24.209  0.00  0.00    +0.027 C 
ATOM     12  C   UNL     1      -3.296  -0.463  24.502  0.00  0.00    +0.138 C 
BRANCH   8   7
ATOM      7  C   UNL     1      -3.635   0.904  24.920  0.00  0.00    +0.099 C 
BRANCH   7   6
ATOM      3  C   UNL     1      -5.393   2.635  25.131  0.00  0.00    +0.139 A 
ATOM      4  C   UNL     1      -4.824   2.695  24.537  0.00  0.00    +0.037 A 
ATOM      5  C   UNL     1      -4.238   2.119  24.466  0.00  0.00    +0.000 A 
ATOM      6  C   UNL     1      -4.221   1.481  24.990  0.00  0.00    -0.006 A 
ATOM     31  C   UNL     1      -4.790   1.421  25.585  0.00  0.00    +0.000 A 
ATOM     32  C   UNL     1      -5.376   1.998  25.655  0.00  0.00    +0.037 A 
BRANCH   3   2
ATOM      1  C   UNL     1      -5.803   3.936  25.554  0.00  0.00    +0.252 C 
ATOM      2  O   UNL     1      -5.979   3.211  25.202  0.00  0.00    -0.471 OA
ENDBRANCH   3   2
ENDBRANCH   7   6
ENDBRANCH   8   7
ENDBRANCH  13  12
TORSDOF 6
ENDMDL
MODEL 2
REMARK VINA RESULT:      -7.2      3.336      4.837
REMARK  Name = 
REMARK  6 active torsions:
REMARK  status: ('A' for Active; 'I' for Inactive)
REMARK    1  A    between atoms: O_2  and  C_3
REMARK    2  A    between atoms: C_6  and  C_7
REMARK    3  A    between atoms: C_7  and  N_8
REMARK    4  A    between atoms: C_12  and  C_13
REMARK    5  A    between atoms: C_15  and  C_18
REMARK    6  A    between atoms: C_21  and  N_24
REMARK                            x       y       z     vdW  Elec       q    Type
REMARK                         _______ _______ _______ _____ _____    ______ ____
ROOT
ATOM     13  C   UNL     1      -5.253   2.282  25.491  0.00  0.00    +0.251 A 
ATOM     14  N   UNL     1      -4.657   1.783  25.214  0.00  0.00    -0.190 NA
ATOM     15  C   UNL     1      -4.908   1.004  25.319  0.00  0.00    +0.205 A 
ATOM     16  N   UNL     1      -5.658   1.022  25.661  0.00  0.00    -0.056 NA
ATOM     17  O   UNL     1      -5.871   1.811  25.767  0.00  0.00    -0.336 OA
ENDROOT
BRANCH  15  18
ATOM     18  C   UNL     1      -4.483   0.326  25.117  0.00  0.00    +0.058 A 
ATOM     19  C   UNL     1      -4.389   0.120  24.323  0.00  0.00    +0.008 A 
ATOM     20  C   UNL     1      -3.963  -0.558  24.121  0.00  0.00    +0.034 A 
ATOM     21  C   UNL     1      -3.633  -1.029  24.712  0.00  0.00    +0.132 A 
ATOM     22  N   UNL     1      -3.727  -0.823  25.506  0.00  0.00    -0.229 NA
ATOM     23  C   UNL     1      -4.152  -0.145  25.708  0.00  0.00    +0.103 A 
BRANCH  21  24
ATOM     24  N   UNL     1      -3.208  -1.707  24.510  0.00  0.00    -0.290 N 
ATOM     25  C   UNL     1      -2.383  -1.693  24.518  0.00  0.00    +0.109 C 
ATOM     26  C   UNL     1      -1.957  -2.371  24.316  0.00  0.00    +0.094 C 
ATOM     27  N   UNL     1      -2.357  -3.061  24.107  0.00  0.00    -0.269 NA
ATOM     28  C   UNL     1      -1.932  -3.739  23.905  0.00  0.00    +0.090 C 
ATOM     29  C   UNL     1      -3.182  -3.075  24.099  0.00  0.00    +0.094 C 
ATOM     30  C   UNL     1      -3.607  -2.397  24.301  0.00  0.00    +0.109 C 
ENDBRANCH  21  24
ENDBRANCH  15  18
BRANCH  13  12
ATOM      8  N   UNL     1      -4.563   3.575  25.592  0.00  0.00    -0.263 NA
ATOM      9  C   UNL     1      -4.794   4.366  25.555  0.00  0.00    +0.073 C 
ATOM     10  C   UNL     1      -5.610   4.386  25.432  0.00  0.00    +0.019 C 
ATOM     11  C   UNL     1      -5.881   3.608  25.393  0.00  0.00    +0.027 C 
ATOM     12  C   UNL     1      -5.233   3.106  25.492  0.00  0.00    +0.138 C 
BRANCH   8   7
ATOM      7  C   UNL     1      -3.793   3.301  25.709  0.00  0.00    +0.099 C 
BRANCH   7   6
ATOM      3  C   UNL     1      -1.867   4.793  25.269  0.00  0.00    +0.139 A 
ATOM      4  C   UNL     1      -2.194   4.349  24.655  0.00  0.00    +0.037 A 
ATOM      5  C   UNL     1      -2.835   3.852  24.801  0.00  0.00    +0.000 A 
ATOM      6  C   UNL     1      -3.151   3.799  25.562  0.00  0.00    -0.006 A 
ATOM     31  C   UNL     1      -2.825   4.243  26.176  0.00  0.00    +0.000 A 
ATOM     32  C   UNL     1      -2.183   4.740  26.029  0.00  0.00    +0.037 A 
BRANCH   3   2
ATOM      1  C   UNL     1      -0.573   5.008  24.705  0.00  0.00    +0.252 C 
ATOM      2  O   UNL     1      -1.226   5.290  25.123  0.00  0.00    -0.471 OA
ENDBRANCH   3   2
ENDBRANCH   7   6
ENDBRANCH   8   7
ENDBRANCH  13  12
TORSDOF 6
ENDMDL
MODEL 3
REMARK VINA RESULT:      -7.1      1.636      6.364
REMARK  Name = 
REMARK  6 active torsions:
REMARK  status: ('A' for Active; 'I' for Inactive)
REMARK    1  A    between atoms: O_2  and  C_3
REMARK    2  A    between atoms: C_6  and  C_7
REMARK    3  A    between atoms: C_7  and  N_8
REMARK    4  A    between atoms: C_12  and  C_13
REMARK    5  A    between atoms: C_15  and  C_18
REMARK    6  A    between atoms: C_21  and  N_24
REMARK                            x       y       z     vdW  Elec       q    Type
REMARK                         _______ _______ _______ _____ _____    ______ ____
ROOT
ATOM     13  C   UNL     1      -1.836  -0.736  24.561  0.00  0.00    +0.251 A 
ATOM     14  N   UNL     1      -2.096  -0.008  24.851  0.00  0.00    -0.190 NA
ATOM     15  C   UNL     1      -2.873   0.104  24.597  0.00  0.00    +0.205 A 
ATOM     16  N   UNL     1      -3.092  -0.553  24.150  0.00  0.00    -0.056 NA
ATOM     17  O   UNL     1      -2.452  -1.071  24.128  0.00  0.00    -0.336 OA
ENDROOT
BRANCH  15  18
ATOM     18  C   UNL     1      -3.347   0.760  24.761  0.00  0.00    +0.058 A 
ATOM     19  C   UNL     1      -4.165   0.671  24.825  0.00  0.00    +0.008 A 
ATOM     20  C   UNL     1      -4.639   1.327  24.989  0.00  0.00    +0.034 A 
ATOM     21  C   UNL     1      -4.295   2.070  25.089  0.00  0.00    +0.132 A 
ATOM     22  N   UNL     1      -3.477   2.158  25.025  0.00  0.00    -0.229 NA
ATOM     23  C   UNL     1      -3.003   1.503  24.861  0.00  0.00    +0.103 A 
BRANCH  21  24
ATOM     24  N   UNL     1      -4.769   2.725  25.253  0.00  0.00    -0.290 N 
ATOM     25  C   UNL     1      -5.517   2.620  25.583  0.00  0.00    +0.109 C 
ATOM     26  C   UNL     1      -5.991   3.276  25.747  0.00  0.00    +0.094 C 
ATOM     27  N   UNL     1      -5.716   4.035  25.581  0.00  0.00    -0.269 NA
ATOM     28  C   UNL     1      -6.190   4.691  25.745  0.00  0.00    +0.090 C 
ATOM     29  C   UNL     1      -4.968   4.141  25.250  0.00  0.00    +0.094 C 
ATOM     30  C   UNL     1      -4.494   3.485  25.086  0.00  0.00    +0.109 C 
ENDBRANCH  21  24
ENDBRANCH  15  18
BRANCH  13  12
ATOM      8  N   UNL     1      -0.393  -0.843  24.307  0.00  0.00    -0.263 NA
ATOM      9  C   UNL     1       0.217  -1.318  24.594  0.00  0.00    +0.073 C 
ATOM     10  C   UNL     1      -0.105  -1.837  25.149  0.00  0.00    +0.019 C 
ATOM     11  C   UNL     1      -0.913  -1.682  25.205  0.00  0.00    +0.027 C 
ATOM     12  C   UNL     1      -1.091  -1.067  24.684  0.00  0.00    +0.138 C 
BRANCH   8   7
ATOM      7  C   UNL     1      -0.317  -0.247  23.741  0.00  0.00    +0.099 C 
BRANCH   7   6
ATOM      3  C   UNL     1       1.881   0.191  22.691  0.00  0.00    +0.139 A 
ATOM      4  C   UNL     1       1.382  -0.386  22.377  0.00  0.00    +0.037 A 
ATOM      5  C   UNL     1       0.649  -0.532  22.727  0.00  0.00    +0.000 A 
ATOM      6  C   UNL     1       0.416  -0.101  23.391  0.00  0.00    -0.006 A 
ATOM     31  C   UNL     1       0.915   0.476  23.705  0.00  0.00    +0.000 A 
ATOM     32  C   UNL     1       1.648   0.621  23.354  0.00  0.00    +0.037 A 
BRANCH   3   2
ATOM      1  C   UNL     1       3.255   0.563  22.807  0.00  0.00    +0.252 C 
ATOM      2  O   UNL     1       2.613   0.337  22.341  0.00  0.00    -0.471 OA
ENDBRANCH   3   2
ENDBRANCH   7   6
ENDBRANCH   8   7
ENDBRANCH  13  12
TORSDOF 6
ENDMDL
MODEL 4
REMARK VINA RESULT:      -7.0      1.416      2.774
REMARK  Name = 
REMARK  6 active torsions:
REMARK  status: ('A' for Active; 'I' for Inactive)
REMARK    1  A    between atoms: O_2  and  C_3
REMARK    2  A    between atoms: C_6  and  C_7
REMARK    3  A    between atoms: C_7  and  N_8
REMARK    4  A    between atoms: C_12  and  C_13
REMARK    5  A    between atoms: C_15  and  C_18
REMARK    6  A    between atoms: C_21  and  N_24
REMARK                            x       y       z     vdW  Elec       q    Type
REMARK                         _______ _______ _______ _____ _____    ______ ____
ROOT
ATOM     13  C   UNL     1      -2.204   1.709  24.809  0.00  0.00    +0.251 A 
ATOM     14  N   UNL     1      -1.642   1.425  24.276  0.00  0.00    -0.190 NA
ATOM     15  C   UNL     1      -0.894   1.586  24.585  0.00  0.00    +0.205 A 
ATOM     16  N   UNL     1      -0.994   1.968  25.308  0.00  0.00    -0.056 NA
ATOM     17  O   UNL     1      -1.803   2.044  25.447  0.00  0.00    -0.336 OA
ENDROOT
BRANCH  15  18
ATOM     18  C   UNL     1      -0.173   1.397  24.232  0.00  0.00    +0.058 A 
ATOM     19  C   UNL     1      -0.091   0.690  23.813  0.00  0.00    +0.008 A 
ATOM     20  C   UNL     1       0.630   0.501  23.460  0.00  0.00    +0.034 A 
ATOM     21  C   UNL     1       1.270   1.018  23.525  0.00  0.00    +0.132 A 
ATOM     22  N   UNL     1       1.188   1.724  23.944  0.00  0.00    -0.229 NA
ATOM     23  C   UNL     1       0.467   1.914  24.297  0.00  0.00    +0.103 A 
BRANCH  21  24
ATOM     24  N   UNL     1       1.991   0.829  23.172  0.00  0.00    -0.290 N 
ATOM     25  C   UNL     1       2.059   0.146  22.715  0.00  0.00    +0.109 C 
ATOM     26  C   UNL     1       2.781  -0.043  22.361  0.00  0.00    +0.094 C 
ATOM     27  N   UNL     1       3.433   0.451  22.466  0.00  0.00    -0.269 NA
ATOM     28  C   UNL     1       4.155   0.262  22.113  0.00  0.00    +0.090 C 
ATOM     29  C   UNL     1       3.365   1.134  22.924  0.00  0.00    +0.094 C 
ATOM     30  C   UNL     1       2.644   1.323  23.277  0.00  0.00    +0.109 C 
ENDBRANCH  21  24
ENDBRANCH  15  18
BRANCH  13  12
ATOM      8  N   UNL     1      -3.492   1.003  24.869  0.00  0.00    -0.263 NA
ATOM      9  C   UNL     1      -4.275   1.203  24.707  0.00  0.00    +0.073 C 
ATOM     10  C   UNL     1      -4.291   1.989  24.456  0.00  0.00    +0.019 C 
ATOM     11  C   UNL     1      -3.517   2.274  24.464  0.00  0.00    +0.027 C 
ATOM     12  C   UNL     1      -3.023   1.665  24.719  0.00  0.00    +0.138 C 
BRANCH   8   7
ATOM      7  C   UNL     1      -3.224   0.270  25.135  0.00  0.00    +0.099 C 
BRANCH   7   6
ATOM      3  C   UNL     1      -4.168  -1.812  24.183  0.00  0.00    +0.139 A 
ATOM      4  C   UNL     1      -3.972  -1.183  23.686  0.00  0.00    +0.037 A 
ATOM      5  C   UNL     1      -3.658  -0.489  24.003  0.00  0.00    +0.000 A 
ATOM      6  C   UNL     1      -3.539  -0.425  24.818  0.00  0.00    -0.006 A 
ATOM     31  C   UNL     1      -3.734  -1.054  25.314  0.00  0.00    +0.000 A 
ATOM     32  C   UNL     1      -4.049  -1.747  24.996  0.00  0.00    +0.037 A 
BRANCH   3   2
ATOM      1  C   UNL     1      -4.025  -3.191  23.842  0.00  0.00    +0.252 C 
ATOM      2  O   UNL     1      -4.482  -2.505  23.866  0.00  0.00    -0.471 OA
ENDBRANCH   3   2
ENDBRANCH   7   6
ENDBRANCH   8   7
ENDBRANCH  13  12
TORSDOF 6
ENDMDL
MODEL 5
REMARK VINA RESULT:      -6.9      2.090      6.889
REMARK  Name = 
REMARK  6 active torsions:
REMARK  status: ('A' for Active; 'I' for Inactive)
REMARK    1  A    between atoms: O_2  and  C_3
REMARK    2  A    between atoms: C_6  and  C_7
REMARK    3  A    between atoms: C_7  and  N_8
REMARK    4  A    between atoms: C_12  and  C_13
REMARK    5  A    between atoms: C_15  and  C_18
REMARK    6  A    between atoms: C_21  and  N_24
REMARK                            x       y       z     vdW  Elec       q    Type
REMARK                         _______ _______ _______ _____ _____    ______ ____
ROOT
ATOM     13  C   UNL     1       0.504  -0.039  23.148  0.00  0.00    +0.251 A 
ATOM     14  N   UNL     1      -0.088   0.537  23.161  0.00  0.00    -0.190 NA
ATOM     15  C   UNL     1      -0.482   0.481  23.883  0.00  0.00    +0.205 A 
ATOM     16  N   UNL     1      -0.134  -0.128  24.317  0.00  0.00    -0.056 NA
ATOM     17  O   UNL     1       0.474  -0.449  23.863  0.00  0.00    -0.336 OA
ENDROOT
BRANCH  15  18
ATOM     18  C   UNL     1      -1.113   0.953  24.129  0.00  0.00    +0.058 A 
ATOM     19  C   UNL     1      -1.645   1.251  23.574  0.00  0.00    +0.008 A 
ATOM     20  C   UNL     1      -2.276   1.723  23.819  0.00  0.00    +0.034 A 
ATOM     21  C   UNL     1      -2.374   1.897  24.620  0.00  0.00    +0.132 A 
ATOM     22  N   UNL     1      -1.841   1.599  25.175  0.00  0.00    -0.229 NA
ATOM     23  C   UNL     1      -1.210   1.127  24.929  0.00  0.00    +0.103 A 
BRANCH  21  24
ATOM     24  N   UNL     1      -3.005   2.369  24.865  0.00  0.00    -0.290 N 
ATOM     25  C   UNL     1      -3.768   2.057  24.887  0.00  0.00    +0.109 C 
ATOM     26  C   UNL     1      -4.399   2.529  25.133  0.00  0.00    +0.094 C 
ATOM     27  N   UNL     1      -4.266   3.312  25.356  0.00  0.00    -0.269 NA
ATOM     28  C   UNL     1      -4.897   3.784  25.602  0.00  0.00    +0.090 C 
ATOM     29  C   UNL     1      -3.503   3.624  25.334  0.00  0.00    +0.094 C 
ATOM     30  C   UNL     1      -2.872   3.152  25.089  0.00  0.00    +0.109 C 
ENDBRANCH  21  24
ENDBRANCH  15  18
BRANCH  13  12
ATOM      8  N   UNL     1       1.831   0.016  22.521  0.00  0.00    -0.263 NA
ATOM      9  C   UNL     1       2.146  -0.223  21.797  0.00  0.00    +0.073 C 
ATOM     10  C   UNL     1       1.538  -0.567  21.357  0.00  0.00    +0.019 C 
ATOM     11  C   UNL     1       0.849  -0.540  21.810  0.00  0.00    +0.027 C 
ATOM     12  C   UNL     1       1.030  -0.179  22.530  0.00  0.00    +0.138 C 
BRANCH   8   7
ATOM      7  C   UNL     1       2.246   0.387  23.131  0.00  0.00    +0.099 C 
BRANCH   7   6
ATOM      3  C   UNL     1       4.721   0.394  23.118  0.00  0.00    +0.139 A 
ATOM      4  C   UNL     1       4.305   1.033  22.802  0.00  0.00    +0.037 A 
ATOM      5  C   UNL     1       3.480   1.031  22.806  0.00  0.00    +0.000 A 
ATOM      6  C   UNL     1       3.071   0.389  23.126  0.00  0.00    -0.006 A 
ATOM     31  C   UNL     1       3.487  -0.250  23.442  0.00  0.00    +0.000 A 
ATOM     32  C   UNL     1       4.313  -0.247  23.437  0.00  0.00    +0.037 A 
BRANCH   3   2
ATOM      1  C   UNL     1       5.962  -0.236  23.440  0.00  0.00    +0.252 C 
ATOM      2  O   UNL     1       5.546   0.397  23.114  0.00  0.00    -0.471 OA
ENDBRANCH   3   2
ENDBRANCH   7   6
ENDBRANCH   8   7
ENDBRANCH  13  12
TORSDOF 6
ENDMDL
MODEL 6
REMARK VINA RESULT:      -6.9      2.621      4.362
REMARK  Name = 
REMARK  6 active torsions:
REMARK  status: ('A' for Active; 'I' for Inactive)
REMARK    1  A    between atoms: O_2  and  C_3
REMARK    2  A    between atoms: C_6  and  C_7
REMARK    3  A    between atoms: C_7  and  N_8
REMARK    4  A    between atoms: C_12  and  C_13
REMARK    5  A    between atoms: C_15  and  C_18
REMARK    6  A    between atoms: C_21  and  N_24
REMARK                            x       y       z     vdW  Elec       q    Type
REMARK                         _______ _______ _______ _____ _____    ______ ____
ROOT
ATOM     13  C   UNL     1      -0.695   2.832  25.066  0.00  0.00    +0.251 A 
ATOM     14  N   UNL     1      -1.245   2.229  24.942  0.00  0.00    -0.190 NA
ATOM     15  C   UNL     1      -0.853   1.508  25.015  0.00  0.00    +0.205 A 
ATOM     16  N   UNL     1      -0.062   1.664  25.185  0.00  0.00    -0.056 NA
ATOM     17  O   UNL     1       0.036   2.481  25.216  0.00  0.00    -0.336 OA
ENDROOT
BRANCH  15  18
ATOM     18  C   UNL     1      -1.194   0.760  24.933  0.00  0.00    +0.058 A 
ATOM     19  C   UNL     1      -1.277   0.271  25.592  0.00  0.00    +0.008 A 
ATOM     20  C   UNL     1      -1.617  -0.477  25.510  0.00  0.00    +0.034 A 
ATOM     21  C   UNL     1      -1.875  -0.734  24.770  0.00  0.00    +0.132 A 
ATOM     22  N   UNL     1      -1.792  -0.244  24.111  0.00  0.00    -0.229 NA
ATOM     23  C   UNL     1      -1.452   0.503  24.193  0.00  0.00    +0.103 A 
BRANCH  21  24
ATOM     24  N   UNL     1      -2.216  -1.481  24.688  0.00  0.00    -0.290 N 
ATOM     25  C   UNL     1      -1.742  -2.132  24.511  0.00  0.00    +0.109 C 
ATOM     26  C   UNL     1      -2.082  -2.880  24.429  0.00  0.00    +0.094 C 
ATOM     27  N   UNL     1      -2.896  -2.975  24.523  0.00  0.00    -0.269 NA
ATOM     28  C   UNL     1      -3.237  -3.722  24.441  0.00  0.00    +0.090 C 
ATOM     29  C   UNL     1      -3.370  -2.323  24.700  0.00  0.00    +0.094 C 
ATOM     30  C   UNL     1      -3.030  -1.576  24.782  0.00  0.00    +0.109 C 
ENDBRANCH  21  24
ENDBRANCH  15  18
BRANCH  13  12
ATOM      8  N   UNL     1      -1.468   4.027  25.430  0.00  0.00    -0.263 NA
ATOM      9  C   UNL     1      -1.415   4.832  25.257  0.00  0.00    +0.073 C 
ATOM     10  C   UNL     1      -0.762   4.944  24.765  0.00  0.00    +0.019 C 
ATOM     11  C   UNL     1      -0.413   4.208  24.633  0.00  0.00    +0.027 C 
ATOM     12  C   UNL     1      -0.850   3.642  25.045  0.00  0.00    +0.138 C 
BRANCH   8   7
ATOM      7  C   UNL     1      -2.041   3.671  25.905  0.00  0.00    +0.099 C 
BRANCH   7   6
ATOM      3  C   UNL     1      -4.435   4.203  25.568  0.00  0.00    +0.139 A 
ATOM      4  C   UNL     1      -4.060   4.417  26.271  0.00  0.00    +0.037 A 
ATOM      5  C   UNL     1      -3.262   4.240  26.384  0.00  0.00    +0.000 A 
ATOM      6  C   UNL     1      -2.839   3.848  25.792  0.00  0.00    -0.006 A 
ATOM     31  C   UNL     1      -3.215   3.634  25.090  0.00  0.00    +0.000 A 
ATOM     32  C   UNL     1      -4.013   3.811  24.978  0.00  0.00    +0.037 A 
BRANCH   3   2
ATOM      1  C   UNL     1      -5.799   3.782  25.508  0.00  0.00    +0.252 C 
ATOM      2  O   UNL     1      -5.232   4.380  25.457  0.00  0.00    -0.471 OA
ENDBRANCH   3   2
ENDBRANCH   7   6
ENDBRANCH   8   7
ENDBRANCH  13  12
TORSDOF 6
ENDMDL
MODEL 7
REMARK VINA RESULT:      -6.5      3.298      5.463
REMARK  Name = 
REMARK  6 active torsions:
REMARK  status: ('A' for Active; 'I' for Inactive)
REMARK    1  A    between atoms: O_2  and  C_3
REMARK    2  A    between atoms: C_6  and  C_7
REMARK    3  A    between atoms: C_7  and  N_8
REMARK    4  A    between atoms: C_12  and  C_13
REMARK    5  A    between atoms: C_15  and  C_18
REMARK    6  A    between atoms: C_21  and  N_24
REMARK                            x       y       z     vdW  Elec       q    Type
REMARK                         _______ _______ _______ _____ _____    ______ ____
ROOT
ATOM     13  C   UNL     1      -3.712   2.972  24.974  0.00  0.00    +0.251 A 
ATOM     14  N   UNL     1      -3.503   2.180  25.072  0.00  0.00    -0.190 NA
ATOM     15  C   UNL     1      -3.984   1.726  24.580  0.00  0.00    +0.205 A 
ATOM     16  N   UNL     1      -4.490   2.237  24.177  0.00  0.00    -0.056 NA
ATOM     17  O   UNL     1      -4.323   3.006  24.420  0.00  0.00    -0.336 OA
ENDROOT
BRANCH  15  18
ATOM     18  C   UNL     1      -3.962   0.904  24.504  0.00  0.00    +0.058 A 
ATOM     19  C   UNL     1      -4.287   0.427  25.093  0.00  0.00    +0.008 A 
ATOM     20  C   UNL     1      -4.265  -0.395  25.017  0.00  0.00    +0.034 A 
ATOM     21  C   UNL     1      -3.919  -0.738  24.352  0.00  0.00    +0.132 A 
ATOM     22  N   UNL     1      -3.594  -0.261  23.762  0.00  0.00    -0.229 NA
ATOM     23  C   UNL     1      -3.616   0.561  23.838  0.00  0.00    +0.103 A 
BRANCH  21  24
ATOM     24  N   UNL     1      -3.897  -1.560  24.276  0.00  0.00    -0.290 N 
ATOM     25  C   UNL     1      -3.394  -2.005  24.755  0.00  0.00    +0.109 C 
ATOM     26  C   UNL     1      -3.372  -2.826  24.679  0.00  0.00    +0.094 C 
ATOM     27  N   UNL     1      -3.853  -3.202  24.124  0.00  0.00    -0.269 NA
ATOM     28  C   UNL     1      -3.831  -4.023  24.048  0.00  0.00    +0.090 C 
ATOM     29  C   UNL     1      -4.356  -2.757  23.644  0.00  0.00    +0.094 C 
ATOM     30  C   UNL     1      -4.378  -1.935  23.721  0.00  0.00    +0.109 C 
ENDBRANCH  21  24
ENDBRANCH  15  18
BRANCH  13  12
ATOM      8  N   UNL     1      -2.572   3.815  25.356  0.00  0.00    -0.263 NA
ATOM      9  C   UNL     1      -2.475   4.495  25.812  0.00  0.00    +0.073 C 
ATOM     10  C   UNL     1      -3.217   4.716  26.100  0.00  0.00    +0.019 C 
ATOM     11  C   UNL     1      -3.771   4.172  25.821  0.00  0.00    +0.027 C 
ATOM     12  C   UNL     1      -3.371   3.615  25.360  0.00  0.00    +0.138 C 
BRANCH   8   7
ATOM      7  C   UNL     1      -1.973   3.407  24.962  0.00  0.00    +0.099 C 
BRANCH   7   6
ATOM      3  C   UNL     1       0.150   2.897  26.130  0.00  0.00    +0.139 A 
ATOM      4  C   UNL     1      -0.496   2.389  26.206  0.00  0.00    +0.037 A 
ATOM      5  C   UNL     1      -1.203   2.558  25.818  0.00  0.00    +0.000 A 
ATOM      6  C   UNL     1      -1.265   3.237  25.352  0.00  0.00    -0.006 A 
ATOM     31  C   UNL     1      -0.619   3.745  25.275  0.00  0.00    +0.000 A 
ATOM     32  C   UNL     1       0.088   3.574  25.664  0.00  0.00    +0.037 A 
BRANCH   3   2
ATOM      1  C   UNL     1       0.872   2.674  27.342  0.00  0.00    +0.252 C 
ATOM      2  O   UNL     1       0.857   2.726  26.518  0.00  0.00    -0.471 OA
ENDBRANCH   3   2
ENDBRANCH   7   6
ENDBRANCH   8   7
ENDBRANCH  13  12
TORSDOF 6
ENDMDL
