MODEL 1
REMARK VINA RESULT:      -9.5      0.000      0.000
REMARK  Name = 
REMARK  9 active torsions:
REMARK  status: ('A' for Active; 'I' for Inactive)
REMARK    1  A    between atoms: O_2  and  C_3
REMARK    2  A    between atoms: C_3  and  C_5
REMARK    3  A    between atoms: C_11  and  C_13
REMARK    4  A    between atoms: C_13  and  C_14
REMARK    5  A    between atoms: C_14  and  C_17
REMARK    6  A    between atoms: C_17  and  C_18
REMARK    7  A    between atoms: N_21  and  C_22
REMARK    8  A    between atoms: C_22  and  C_23
REMARK    9  A    between atoms: C_26  and  O_27
REMARK                            x       y       z     vdW  Elec       q    Type
REMARK                         _______ _______ _______ _____ _____    ______ ____
ROOT
ATOM      5  C   UNL     1      -4.035   2.773  25.247  0.00  0.00    +0.181 C 
ATOM      6  C   UNL     1      -4.729   2.328  25.253  0.00  0.00    +0.078 C 
ATOM      7  C   UNL     1      -4.730   1.559  24.953  0.00  0.00    +0.076 A 
ATOM      8  C   UNL     1      -4.036   1.236  24.646  0.00  0.00    +0.072 A 
ATOM      9  C   UNL     1      -3.340   1.682  24.639  0.00  0.00    +0.139 C 
ATOM     10  N   UNL     1      -3.341   2.450  24.939  0.00  0.00    -0.265 N 
ATOM     11  C   UNL     1      -2.646   2.895  24.932  0.00  0.00    +0.226 C 
ATOM     12  O   UNL     1      -1.952   2.572  24.625  0.00  0.00    -0.275 OA
ATOM     21  N   UNL     1      -4.202   0.470  24.390  0.00  0.00    -0.307 N 
ATOM     31  C   UNL     1      -4.999   0.319  24.539  0.00  0.00    +0.178 A 
ATOM     32  N   UNL     1      -5.324   0.992  24.887  0.00  0.00    -0.229 NA
ENDROOT
BRANCH   5   3
ATOM      3  C   UNL     1      -4.035   3.541  25.547  0.00  0.00    +0.336 C 
ATOM      4  O   UNL     1      -3.701   3.695  26.285  0.00  0.00    -0.248 OA
BRANCH   3   2
ATOM      1  C   UNL     1      -4.993   4.594  25.421  0.00  0.00    +0.256 C 
ATOM      2  O   UNL     1      -4.368   4.156  25.109  0.00  0.00    -0.443 OA
ENDBRANCH   3   2
ENDBRANCH   5   3
BRANCH  11  13
ATOM     13  C   UNL     1      -2.646   3.664  25.233  0.00  0.00    +0.086 C 
BRANCH  13  14
ATOM     14  C   UNL     1      -1.938   4.081  25.296  0.00  0.00    +0.019 C 
ATOM     15  C   UNL     1      -2.021   4.341  24.517  0.00  0.00    +0.001 C 
ATOM     16  C   UNL     1      -1.855   3.822  26.075  0.00  0.00    +0.001 C 
BRANCH  14  17
ATOM     17  C   UNL     1      -1.229   4.499  25.360  0.00  0.00    +0.115 C 
BRANCH  17  18
ATOM     18  C   UNL     1      -1.155   5.244  25.015  0.00  0.00    +0.365 C 
ATOM     19  O   UNL     1      -0.588   5.375  24.430  0.00  0.00    -0.246 OA
ATOM     20  O   UNL     1      -1.650   5.859  25.254  0.00  0.00    -0.246 OA
ENDBRANCH  17  18
ENDBRANCH  14  17
ENDBRANCH  13  14
ENDBRANCH  11  13
BRANCH  21  22
ATOM     22  C   UNL     1      -3.665  -0.054  24.045  0.00  0.00    +0.134 C 
BRANCH  22  23
ATOM     23  C   UNL     1      -3.675  -0.852  24.254  0.00  0.00    +0.001 A 
ATOM     24  C   UNL     1      -4.094  -1.394  23.793  0.00  0.00    +0.001 A 
ATOM     25  C   UNL     1      -4.103  -2.192  24.002  0.00  0.00    +0.037 A 
ATOM     26  C   UNL     1      -3.695  -2.448  24.672  0.00  0.00    +0.139 A 
ATOM     29  C   UNL     1      -3.277  -1.906  25.133  0.00  0.00    +0.037 A 
ATOM     30  C   UNL     1      -3.267  -1.108  24.923  0.00  0.00    +0.001 A 
BRANCH  26  27
ATOM     27  O   UNL     1      -3.705  -3.246  24.880  0.00  0.00    -0.471 OA
ATOM     28  C   UNL     1      -3.343  -3.805  24.393  0.00  0.00    +0.252 C 
ENDBRANCH  26  27
ENDBRANCH  22  23
ENDBRANCH  21  22
TORSDOF 9
ENDMDL
MODEL 2
REMARK VINA RESULT:      -9.2      1.850      2.833
REMARK  Name = 
REMARK  9 active torsions:
REMARK  status: ('A' for Active; 'I' for Inactive)
REMARK    1  A    between atoms: O_2  and  C_3
REMARK    2  A    between atoms: C_3  and  C_5
REMARK    3  A    between atoms: C_11  and  C_13
REMARK    4  A    between atoms: C_13  and  C_14
REMARK    5  A    between atoms: C_14  and  C_17
REMARK    6  A    between atoms: C_17  and  C_18
REMARK    7  A    between atoms: N_21  and  C_22
REMARK    8  A    between atoms: C_22  and  C_23
REMARK    9  A    between atoms: C_26  and  O_27
REMARK                            x       y       z     vdW  Elec       q    Type
REMARK                         _______ _______ _______ _____ _____    ______ ____
ROOT
ATOM      5  C   UNL     1      -0.554   1.252  25.023  0.00  0.00    +0.181 C 
ATOM      6  C   UNL     1      -0.281   0.481  24.918  0.00  0.00    +0.078 C 
ATOM      7  C   UNL     1      -0.791  -0.157  25.030  0.00  0.00    +0.076 A 
ATOM      8  C   UNL     1      -1.576  -0.023  25.247  0.00  0.00    +0.072 A 
ATOM      9  C   UNL     1      -1.850   0.748  25.352  0.00  0.00    +0.139 C 
ATOM     10  N   UNL     1      -1.338   1.386  25.240  0.00  0.00    -0.265 N 
ATOM     11  C   UNL     1      -1.613   2.156  25.344  0.00  0.00    +0.226 C 
ATOM     12  O   UNL     1      -2.397   2.290  25.561  0.00  0.00    -0.275 OA
ATOM     21  N   UNL     1      -1.949  -0.755  25.318  0.00  0.00    -0.307 N 
ATOM     31  C   UNL     1      -1.395  -1.341  25.145  0.00  0.00    +0.178 A 
ATOM     32  N   UNL     1      -0.680  -0.971  24.968  0.00  0.00    -0.229 NA
ENDROOT
BRANCH   5   3
ATOM      3  C   UNL     1      -0.043   1.889  24.911  0.00  0.00    +0.336 C 
ATOM      4  O   UNL     1       0.300   2.262  25.562  0.00  0.00    -0.248 OA
BRANCH   3   2
ATOM      1  C   UNL     1       0.903   2.162  23.876  0.00  0.00    +0.256 C 
ATOM      2  O   UNL     1       0.125   2.155  24.148  0.00  0.00    -0.443 OA
ENDBRANCH   3   2
ENDBRANCH   5   3
BRANCH  11  13
ATOM     13  C   UNL     1      -1.101   2.795  25.232  0.00  0.00    +0.086 C 
BRANCH  13  14
ATOM     14  C   UNL     1      -1.360   3.562  25.388  0.00  0.00    +0.019 C 
ATOM     15  C   UNL     1      -1.075   3.503  26.159  0.00  0.00    +0.001 C 
ATOM     16  C   UNL     1      -1.645   3.622  24.616  0.00  0.00    +0.001 C 
BRANCH  14  17
ATOM     17  C   UNL     1      -1.619   4.330  25.543  0.00  0.00    +0.115 C 
BRANCH  17  18
ATOM     18  C   UNL     1      -1.378   4.953  25.059  0.00  0.00    +0.365 C 
ATOM     19  O   UNL     1      -0.589   5.193  25.057  0.00  0.00    -0.246 OA
ATOM     20  O   UNL     1      -1.927   5.335  24.576  0.00  0.00    -0.246 OA
ENDBRANCH  17  18
ENDBRANCH  14  17
ENDBRANCH  13  14
ENDBRANCH  11  13
BRANCH  21  22
ATOM     22  C   UNL     1      -2.738  -0.880  25.525  0.00  0.00    +0.134 C 
BRANCH  22  23
ATOM     23  C   UNL     1      -3.222  -1.346  25.047  0.00  0.00    +0.001 A 
ATOM     24  C   UNL     1      -3.721  -0.990  24.492  0.00  0.00    +0.001 A 
ATOM     25  C   UNL     1      -4.204  -1.456  24.014  0.00  0.00    +0.037 A 
ATOM     26  C   UNL     1      -4.191  -2.278  24.089  0.00  0.00    +0.139 A 
ATOM     29  C   UNL     1      -3.693  -2.633  24.643  0.00  0.00    +0.037 A 
ATOM     30  C   UNL     1      -3.209  -2.167  25.122  0.00  0.00    +0.001 A 
BRANCH  26  27
ATOM     27  O   UNL     1      -4.675  -2.743  23.611  0.00  0.00    -0.471 OA
ATOM     28  C   UNL     1      -4.369  -3.416  23.243  0.00  0.00    +0.252 C 
ENDBRANCH  26  27
ENDBRANCH  22  23
ENDBRANCH  21  22
TORSDOF 9
ENDMDL
MODEL 3
REMARK VINA RESULT:      -8.9      1.896      6.108
REMARK  Name = 
REMARK  9 active torsions:
REMARK  status: ('A' for Active; 'I' for Inactive)
REMARK    1  A    between atoms: O_2  and  C_3
REMARK    2  A    between atoms: C_3  and  C_5
REMARK    3  A    between atoms: C_11  and  C_13
REMARK    4  A    between atoms: C_13  and  C_14
REMARK    5  A    between atoms: C_14  and  C_17
REMARK    6  A    between atoms: C_17  and  C_18
REMARK    7  A    between atoms: N_21  and  C_22
REMARK    8  A    between atoms: C_22  and  C_23
REMARK    9  A    between atoms: C_26  and  O_27
REMARK                            x       y       z     vdW  Elec       q    Type
REMARK                         _______ _______ _______ _____ _____    ______ ____
ROOT
ATOM      5  C   UNL     1      -1.273  -0.180  25.164  0.00  0.00    +0.181 C 
ATOM      6  C   UNL     1      -0.572   0.219  25.336  0.00  0.00    +0.078 C 
ATOM      7  C   UNL     1      -0.476   1.005  25.106  0.00  0.00    +0.076 A 
ATOM      8  C   UNL     1      -1.082   1.393  24.702  0.00  0.00    +0.072 A 
ATOM      9  C   UNL     1      -1.784   0.994  24.529  0.00  0.00    +0.139 C 
ATOM     10  N   UNL     1      -1.879   0.208  24.760  0.00  0.00    -0.265 N 
ATOM     11  C   UNL     1      -2.580  -0.190  24.587  0.00  0.00    +0.226 C 
ATOM     12  O   UNL     1      -3.187   0.198  24.183  0.00  0.00    -0.275 OA
ATOM     21  N   UNL     1      -0.833   2.163  24.545  0.00  0.00    -0.307 N 
ATOM     31  C   UNL     1      -0.072   2.252  24.852  0.00  0.00    +0.178 A 
ATOM     32  N   UNL     1       0.147   1.536  25.198  0.00  0.00    -0.229 NA
ENDROOT
BRANCH   5   3
ATOM      3  C   UNL     1      -1.368  -0.965  25.394  0.00  0.00    +0.336 C 
ATOM      4  O   UNL     1      -1.821  -1.148  26.059  0.00  0.00    -0.248 OA
BRANCH   3   2
ATOM      1  C   UNL     1      -0.499  -2.098  25.333  0.00  0.00    +0.256 C 
ATOM      2  O   UNL     1      -1.011  -1.570  24.961  0.00  0.00    -0.443 OA
ENDBRANCH   3   2
ENDBRANCH   5   3
BRANCH  11  13
ATOM     13  C   UNL     1      -2.676  -0.977  24.818  0.00  0.00    +0.086 C 
BRANCH  13  14
ATOM     14  C   UNL     1      -3.384  -1.369  24.661  0.00  0.00    +0.019 C 
ATOM     15  C   UNL     1      -3.638  -1.220  25.431  0.00  0.00    +0.001 C 
ATOM     16  C   UNL     1      -3.129  -1.519  23.890  0.00  0.00    +0.001 C 
BRANCH  14  17
ATOM     17  C   UNL     1      -4.092  -1.762  24.502  0.00  0.00    +0.115 C 
BRANCH  17  18
ATOM     18  C   UNL     1      -4.081  -2.540  24.230  0.00  0.00    +0.365 C 
ATOM     19  O   UNL     1      -4.334  -2.714  23.464  0.00  0.00    -0.246 OA
ATOM     20  O   UNL     1      -3.816  -3.146  24.723  0.00  0.00    -0.246 OA
ENDBRANCH  17  18
ENDBRANCH  14  17
ENDBRANCH  13  14
ENDBRANCH  11  13
BRANCH  21  22
ATOM     22  C   UNL     1      -1.267   2.743  24.151  0.00  0.00    +0.134 C 
BRANCH  22  23
ATOM     23  C   UNL     1      -1.329   3.501  24.471  0.00  0.00    +0.001 A 
ATOM     24  C   UNL     1      -1.986   3.703  24.931  0.00  0.00    +0.001 A 
ATOM     25  C   UNL     1      -2.048   4.460  25.250  0.00  0.00    +0.037 A 
ATOM     26  C   UNL     1      -1.455   5.017  25.111  0.00  0.00    +0.139 A 
ATOM     29  C   UNL     1      -0.800   4.816  24.652  0.00  0.00    +0.037 A 
ATOM     30  C   UNL     1      -0.737   4.058  24.332  0.00  0.00    +0.001 A 
BRANCH  26  27
ATOM     27  O   UNL     1      -1.518   5.775  25.431  0.00  0.00    -0.471 OA
ATOM     28  C   UNL     1      -1.972   6.348  25.049  0.00  0.00    +0.252 C 
ENDBRANCH  26  27
ENDBRANCH  22  23
ENDBRANCH  21  22
TORSDOF 9
ENDMDL
MODEL 4
REMARK VINA RESULT:      -8.6      2.645      4.806
REMARK  Name = 
REMARK  9 active torsions:
REMARK  status: ('A' for Active; 'I' for Inactive)
REMARK    1  A    between atoms: O_2  and  C_3
REMARK    2  A    between atoms: C_3  and  C_5
REMARK    3  A    between atoms: C_11  and  C_13
REMARK    4  A    between atoms: C_13  and  C_14
REMARK    5  A    between atoms: C_14  and  C_17
REMARK    6  A    between atoms: C_17  and  C_18
REMARK    7  A    between atoms: N_21  and  C_22
REMARK    8  A    between atoms: C_22  and  C_23
REMARK    9  A    between atoms: C_26  and  O_27
REMARK                            x       y       z     vdW  Elec       q    Type
REMARK                         _______ _______ _______ _____ _____    ______ ____
ROOT
ATOM      5  C   UNL     1      -1.752  -0.443  24.860  0.00  0.00    +0.181 C 
ATOM      6  C   UNL     1      -2.411  -0.700  25.282  0.00  0.00    +0.078 C 
ATOM      7  C   UNL     1      -3.133  -0.308  25.201  0.00  0.00    +0.076 A 
ATOM      8  C   UNL     1      -3.194   0.342  24.697  0.00  0.00    +0.072 A 
ATOM      9  C   UNL     1      -2.534   0.600  24.273  0.00  0.00    +0.139 C 
ATOM     10  N   UNL     1      -1.813   0.207  24.355  0.00  0.00    -0.265 N 
ATOM     11  C   UNL     1      -1.154   0.465  23.932  0.00  0.00    +0.226 C 
ATOM     12  O   UNL     1      -1.216   1.115  23.427  0.00  0.00    -0.275 OA
ATOM     21  N   UNL     1      -3.971   0.616  24.729  0.00  0.00    -0.307 N 
ATOM     31  C   UNL     1      -4.390   0.136  25.252  0.00  0.00    +0.178 A 
ATOM     32  N   UNL     1      -3.872  -0.435  25.544  0.00  0.00    -0.229 NA
ENDROOT
BRANCH   5   3
ATOM      3  C   UNL     1      -1.031  -0.834  24.941  0.00  0.00    +0.336 C 
ATOM      4  O   UNL     1      -0.424  -0.493  25.383  0.00  0.00    -0.248 OA
BRANCH   3   2
ATOM      1  C   UNL     1      -0.660  -2.212  25.027  0.00  0.00    +0.256 C 
ATOM      2  O   UNL     1      -0.916  -1.568  24.580  0.00  0.00    -0.443 OA
ENDBRANCH   3   2
ENDBRANCH   5   3
BRANCH  11  13
ATOM     13  C   UNL     1      -0.432   0.073  24.013  0.00  0.00    +0.086 C 
BRANCH  13  14
ATOM     14  C   UNL     1       0.222   0.320  23.577  0.00  0.00    +0.019 C 
ATOM     15  C   UNL     1       0.062  -0.255  23.008  0.00  0.00    +0.001 C 
ATOM     16  C   UNL     1       0.383   0.896  24.146  0.00  0.00    +0.001 C 
BRANCH  14  17
ATOM     17  C   UNL     1       0.878   0.569  23.141  0.00  0.00    +0.115 C 
BRANCH  17  18
ATOM     18  C   UNL     1       1.405   0.014  22.835  0.00  0.00    +0.365 C 
ATOM     19  O   UNL     1       1.317  -0.257  22.061  0.00  0.00    -0.246 OA
ATOM     20  O   UNL     1       2.021  -0.272  23.304  0.00  0.00    -0.246 OA
ENDBRANCH  17  18
ENDBRANCH  14  17
ENDBRANCH  13  14
ENDBRANCH  11  13
BRANCH  21  22
ATOM     22  C   UNL     1      -4.276   1.259  24.310  0.00  0.00    +0.134 C 
BRANCH  22  23
ATOM     23  C   UNL     1      -4.684   1.855  24.708  0.00  0.00    +0.001 A 
ATOM     24  C   UNL     1      -4.287   2.539  24.946  0.00  0.00    +0.001 A 
ATOM     25  C   UNL     1      -4.695   3.135  25.343  0.00  0.00    +0.037 A 
ATOM     26  C   UNL     1      -5.499   3.048  25.504  0.00  0.00    +0.139 A 
ATOM     29  C   UNL     1      -5.896   2.365  25.267  0.00  0.00    +0.037 A 
ATOM     30  C   UNL     1      -5.488   1.769  24.868  0.00  0.00    +0.001 A 
BRANCH  26  27
ATOM     27  O   UNL     1      -5.907   3.645  25.902  0.00  0.00    -0.471 OA
ATOM     28  C   UNL     1      -5.857   4.425  25.639  0.00  0.00    +0.252 C 
ENDBRANCH  26  27
ENDBRANCH  22  23
ENDBRANCH  21  22
TORSDOF 9
ENDMDL
MODEL 5
REMARK VINA RESULT:      -8.2      3.708      4.977
REMARK  Name = 
REMARK  9 active torsions:
REMARK  status: ('A' for Active; 'I' for Inactive)
REMARK    1  A    between atoms: O_2  and  C_3
REMARK    2  A    between atoms: C_3  and  C_5
REMARK    3  A    between atoms: C_11  and  C_13
REMARK    4  A    between atoms: C_13  and  C_14
REMARK    5  A    between atoms: C_14  and  C_17
REMARK    6  A    between atoms: C_17  and  C_18
REMARK    7  A    between atoms: N_21  and  C_22
REMARK    8  A    between atoms: C_22  and  C_23
REMARK    9  A    between atoms: C_26  and  O_27
REMARK                            x       y       z     vdW  Elec       q    Type
REMARK                         _______ _______ _______ _____ _____    ______ ____
ROOT
ATOM      5  C   UNL     1      -1.948   0.175  24.716  0.00  0.00    +0.181 C 
ATOM      6  C   UNL     1      -1.402  -0.435  24.815  0.00  0.00    +0.078 C 
ATOM      7  C   UNL     1      -0.690  -0.424  24.398  0.00  0.00    +0.076 A 
ATOM      8  C   UNL     1      -0.525   0.197  23.881  0.00  0.00    +0.072 A 
ATOM      9  C   UNL     1      -1.071   0.808  23.781  0.00  0.00    +0.139 C 
ATOM     10  N   UNL     1      -1.782   0.797  24.199  0.00  0.00    -0.265 N 
ATOM     11  C   UNL     1      -2.328   1.407  24.099  0.00  0.00    +0.226 C 
ATOM     12  O   UNL     1      -2.162   2.029  23.582  0.00  0.00    -0.275 OA
ATOM     21  N   UNL     1       0.216   0.060  23.546  0.00  0.00    -0.307 N 
ATOM     31  C   UNL     1       0.509  -0.646  23.856  0.00  0.00    +0.178 A 
ATOM     32  N   UNL     1      -0.051  -0.945  24.382  0.00  0.00    -0.229 NA
ENDROOT
BRANCH   5   3
ATOM      3  C   UNL     1      -2.659   0.165  25.133  0.00  0.00    +0.336 C 
ATOM      4  O   UNL     1      -2.761   0.659  25.786  0.00  0.00    -0.248 OA
BRANCH   3   2
ATOM      1  C   UNL     1      -3.625  -0.840  25.447  0.00  0.00    +0.256 C 
ATOM      2  O   UNL     1      -3.268  -0.340  24.898  0.00  0.00    -0.443 OA
ENDBRANCH   3   2
ENDBRANCH   5   3
BRANCH  11  13
ATOM     13  C   UNL     1      -3.040   1.396  24.517  0.00  0.00    +0.086 C 
BRANCH  13  14
ATOM     14  C   UNL     1      -3.584   2.008  24.418  0.00  0.00    +0.019 C 
ATOM     15  C   UNL     1      -3.244   2.414  25.050  0.00  0.00    +0.001 C 
ATOM     16  C   UNL     1      -3.925   1.601  23.786  0.00  0.00    +0.001 C 
BRANCH  14  17
ATOM     17  C   UNL     1      -4.130   2.619  24.319  0.00  0.00    +0.115 C 
BRANCH  17  18
ATOM     18  C   UNL     1      -4.817   2.637  24.773  0.00  0.00    +0.365 C 
ATOM     19  O   UNL     1      -5.469   2.181  24.556  0.00  0.00    -0.246 OA
ATOM     20  O   UNL     1      -4.853   3.112  25.447  0.00  0.00    -0.246 OA
ENDBRANCH  17  18
ENDBRANCH  14  17
ENDBRANCH  13  14
ENDBRANCH  11  13
BRANCH  21  22
ATOM     22  C   UNL     1       0.598   0.544  22.998  0.00  0.00    +0.134 C 
BRANCH  22  23
ATOM     23  C   UNL     1       1.412   0.475  22.882  0.00  0.00    +0.001 A 
ATOM     24  C   UNL     1       1.708  -0.075  22.341  0.00  0.00    +0.001 A 
ATOM     25  C   UNL     1       2.521  -0.143  22.226  0.00  0.00    +0.037 A 
ATOM     26  C   UNL     1       3.040   0.337  22.652  0.00  0.00    +0.139 A 
ATOM     29  C   UNL     1       2.746   0.886  23.192  0.00  0.00    +0.037 A 
ATOM     30  C   UNL     1       1.931   0.955  23.307  0.00  0.00    +0.001 A 
BRANCH  26  27
ATOM     27  O   UNL     1       3.854   0.267  22.536  0.00  0.00    -0.471 OA
ATOM     28  C   UNL     1       4.378   0.526  23.118  0.00  0.00    +0.252 C 
ENDBRANCH  26  27
ENDBRANCH  22  23
ENDBRANCH  21  22
TORSDOF 9
ENDMDL
MODEL 6
REMARK VINA RESULT:      -8.1      1.507      5.475
REMARK  Name = 
REMARK  9 active torsions:
REMARK  status: ('A' for Active; 'I' for Inactive)
REMARK    1  A    between atoms: O_2  and  C_3
REMARK    2  A    between atoms: C_3  and  C_5
REMARK    3  A    between atoms: C_11  and  C_13
REMARK    4  A    between atoms: C_13  and  C_14
REMARK    5  A    between atoms: C_14  and  C_17
REMARK    6  A    between atoms: C_17  and  C_18
REMARK    7  A    between atoms: N_21  and  C_22
REMARK    8  A    between atoms: C_22  and  C_23
REMARK    9  A    between atoms: C_26  and  O_27
REMARK                            x       y       z     vdW  Elec       q    Type
REMARK                         _______ _______ _______ _____ _____    ______ ____
ROOT
ATOM      5  C   UNL     1      -3.726   0.769  24.487  0.00  0.00    +0.181 C 
ATOM      6  C   UNL     1      -4.183   1.438  24.336  0.00  0.00    +0.078 C 
ATOM      7  C   UNL     1      -3.975   2.165  24.666  0.00  0.00    +0.076 A 
ATOM      8  C   UNL     1      -3.308   2.222  25.148  0.00  0.00    +0.072 A 
ATOM      9  C   UNL     1      -2.849   1.553  25.300  0.00  0.00    +0.139 C 
ATOM     10  N   UNL     1      -3.059   0.827  24.969  0.00  0.00    -0.265 N 
ATOM     11  C   UNL     1      -2.600   0.158  25.122  0.00  0.00    +0.226 C 
ATOM     12  O   UNL     1      -1.933   0.215  25.604  0.00  0.00    -0.275 OA
ATOM     21  N   UNL     1      -3.238   3.006  25.395  0.00  0.00    -0.307 N 
ATOM     31  C   UNL     1      -3.862   3.433  25.066  0.00  0.00    +0.178 A 
ATOM     32  N   UNL     1      -4.317   2.913  24.615  0.00  0.00    -0.229 NA
ENDROOT
BRANCH   5   3
ATOM      3  C   UNL     1      -3.934   0.043  24.157  0.00  0.00    +0.336 C 
ATOM      4  O   UNL     1      -3.569  -0.215  23.464  0.00  0.00    -0.248 OA
BRANCH   3   2
ATOM      1  C   UNL     1      -5.105  -0.771  24.068  0.00  0.00    +0.256 C 
ATOM      2  O   UNL     1      -4.508  -0.426  24.520  0.00  0.00    -0.443 OA
ENDBRANCH   3   2
ENDBRANCH   5   3
BRANCH  11  13
ATOM     13  C   UNL     1      -2.810  -0.569  24.791  0.00  0.00    +0.086 C 
BRANCH  13  14
ATOM     14  C   UNL     1      -2.343  -1.235  24.930  0.00  0.00    +0.019 C 
ATOM     15  C   UNL     1      -1.866  -1.036  24.287  0.00  0.00    +0.001 C 
ATOM     16  C   UNL     1      -2.820  -1.434  25.574  0.00  0.00    +0.001 C 
BRANCH  14  17
ATOM     17  C   UNL     1      -1.876  -1.901  25.071  0.00  0.00    +0.115 C 
BRANCH  17  18
ATOM     18  C   UNL     1      -1.957  -2.569  24.595  0.00  0.00    +0.365 C 
ATOM     19  O   UNL     1      -1.414  -2.715  23.991  0.00  0.00    -0.246 OA
ATOM     20  O   UNL     1      -2.581  -3.093  24.723  0.00  0.00    -0.246 OA
ENDBRANCH  17  18
ENDBRANCH  14  17
ENDBRANCH  13  14
ENDBRANCH  11  13
BRANCH  21  22
ATOM     22  C   UNL     1      -2.648   3.309  25.885  0.00  0.00    +0.134 C 
BRANCH  22  23
ATOM     23  C   UNL     1      -2.118   3.871  25.595  0.00  0.00    +0.001 A 
ATOM     24  C   UNL     1      -1.360   3.640  25.358  0.00  0.00    +0.001 A 
ATOM     25  C   UNL     1      -0.831   4.201  25.067  0.00  0.00    +0.037 A 
ATOM     26  C   UNL     1      -1.057   4.993  25.013  0.00  0.00    +0.139 A 
ATOM     29  C   UNL     1      -1.812   5.223  25.250  0.00  0.00    +0.037 A 
ATOM     30  C   UNL     1      -2.343   4.662  25.541  0.00  0.00    +0.001 A 
BRANCH  26  27
ATOM     27  O   UNL     1      -0.526   5.553  24.722  0.00  0.00    -0.471 OA
ATOM     28  C   UNL     1      -0.124   5.414  24.016  0.00  0.00    +0.252 C 
ENDBRANCH  26  27
ENDBRANCH  22  23
ENDBRANCH  21  22
TORSDOF 9
ENDMDL
MODEL 7
REMARK VINA RESULT:      -8.1      1.763      5.658
REMARK  Name = 
REMARK  9 active torsions:
REMARK  status: ('A' for Active; 'I' for Inactive)
REMARK    1  A    between atoms: O_2  and  C_3
REMARK    2  A    between atoms: C_3  and  C_5
REMARK    3  A    between atoms: C_11  and  C_13
REMARK    4  A    between atoms: C_13  and  C_14
REMARK    5  A    between atoms: C_14  and  C_17
REMARK    6  A    between atoms: C_17  and  C_18
REMARK    7  A    between atoms: N_21  and  C_22
REMARK    8  A    between atoms: C_22  and  C_23
REMARK    9  A    between atoms: C_26  and  O_27
REMARK                            x       y       z     vdW  Elec       q    Type
REMARK                         _______ _______ _______ _____ _____    ______ ____
ROOT
ATOM      5  C   UNL     1      -1.553   0.109  25.295  0.00  0.00    +0.181 C 
ATOM      6  C   UNL     1      -1.023   0.695  25.530  0.00  0.00    +0.078 C 
ATOM      7  C   UNL     1      -1.140   1.477  25.296  0.00  0.00    +0.076 A 
ATOM      8  C   UNL     1      -1.789   1.674  24.826  0.00  0.00    +0.072 A 
ATOM      9  C   UNL     1      -2.321   1.088  24.590  0.00  0.00    +0.139 C 
ATOM     10  N   UNL     1      -2.202   0.306  24.825  0.00  0.00    -0.265 N 
ATOM     11  C   UNL     1      -2.733  -0.280  24.589  0.00  0.00    +0.226 C 
ATOM     12  O   UNL     1      -3.382  -0.083  24.119  0.00  0.00    -0.275 OA
ATOM     21  N   UNL     1      -1.763   2.485  24.682  0.00  0.00    -0.307 N 
ATOM     31  C   UNL     1      -1.098   2.791  25.062  0.00  0.00    +0.178 A 
ATOM     32  N   UNL     1      -0.714   2.167  25.441  0.00  0.00    -0.229 NA
ENDROOT
BRANCH   5   3
ATOM      3  C   UNL     1      -1.435  -0.672  25.529  0.00  0.00    +0.336 C 
ATOM      4  O   UNL     1      -1.835  -0.971  26.186  0.00  0.00    -0.248 OA
BRANCH   3   2
ATOM      1  C   UNL     1      -0.344  -1.595  25.506  0.00  0.00    +0.256 C 
ATOM      2  O   UNL     1      -0.918  -1.157  25.107  0.00  0.00    -0.443 OA
ENDBRANCH   3   2
ENDBRANCH   5   3
BRANCH  11  13
ATOM     13  C   UNL     1      -2.615  -1.062  24.824  0.00  0.00    +0.086 C 
BRANCH  13  14
ATOM     14  C   UNL     1      -3.184  -1.634  24.651  0.00  0.00    +0.019 C 
ATOM     15  C   UNL     1      -3.567  -1.469  25.361  0.00  0.00    +0.001 C 
ATOM     16  C   UNL     1      -2.799  -1.800  23.939  0.00  0.00    +0.001 C 
BRANCH  14  17
ATOM     17  C   UNL     1      -3.752  -2.207  24.477  0.00  0.00    +0.115 C 
BRANCH  17  18
ATOM     18  C   UNL     1      -3.563  -3.007  24.535  0.00  0.00    +0.365 C 
ATOM     19  O   UNL     1      -3.552  -3.377  25.273  0.00  0.00    -0.246 OA
ATOM     20  O   UNL     1      -3.384  -3.439  23.855  0.00  0.00    -0.246 OA
ENDBRANCH  17  18
ENDBRANCH  14  17
ENDBRANCH  13  14
ENDBRANCH  11  13
BRANCH  21  22
ATOM     22  C   UNL     1      -2.307   2.916  24.235  0.00  0.00    +0.134 C 
BRANCH  22  23
ATOM     23  C   UNL     1      -2.957   3.266  24.602  0.00  0.00    +0.001 A 
ATOM     24  C   UNL     1      -3.720   3.113  24.324  0.00  0.00    +0.001 A 
ATOM     25  C   UNL     1      -4.370   3.463  24.691  0.00  0.00    +0.037 A 
ATOM     26  C   UNL     1      -4.259   3.967  25.335  0.00  0.00    +0.139 A 
ATOM     29  C   UNL     1      -3.497   4.120  25.612  0.00  0.00    +0.037 A 
ATOM     30  C   UNL     1      -2.847   3.769  25.245  0.00  0.00    +0.001 A 
BRANCH  26  27
ATOM     27  O   UNL     1      -4.910   4.317  25.701  0.00  0.00    -0.471 OA
ATOM     28  C   UNL     1      -5.646   3.944  25.680  0.00  0.00    +0.252 C 
ENDBRANCH  26  27
ENDBRANCH  22  23
ENDBRANCH  21  22
TORSDOF 9
ENDMDL
MODEL 8
REMARK VINA RESULT:      -7.9      2.648      4.422
REMARK  Name = 
REMARK  9 active torsions:
REMARK  status: ('A' for Active; 'I' for Inactive)
REMARK    1  A    between atoms: O_2  and  C_3
REMARK    2  A    between atoms: C_3  and  C_5
REMARK    3  A    between atoms: C_11  and  C_13
REMARK    4  A    between atoms: C_13  and  C_14
REMARK    5  A    between atoms: C_14  and  C_17
REMARK    6  A    between atoms: C_17  and  C_18
REMARK    7  A    between atoms: N_21  and  C_22
REMARK    8  A    between atoms: C_22  and  C_23
REMARK    9  A    between atoms: C_26  and  O_27
REMARK                            x       y       z     vdW  Elec       q    Type
REMARK                         _______ _______ _______ _____ _____    ______ ____
ROOT
ATOM      5  C   UNL     1      -1.119   2.625  25.056  0.00  0.00    +0.181 C 
ATOM      6  C   UNL     1      -1.391   3.274  25.486  0.00  0.00    +0.078 C 
ATOM      7  C   UNL     1      -2.169   3.535  25.392  0.00  0.00    +0.076 A 
ATOM      8  C   UNL     1      -2.674   3.146  24.869  0.00  0.00    +0.072 A 
ATOM      9  C   UNL     1      -2.401   2.495  24.439  0.00  0.00    +0.139 C 
ATOM     10  N   UNL     1      -1.624   2.236  24.533  0.00  0.00    -0.265 N 
ATOM     11  C   UNL     1      -1.353   1.586  24.103  0.00  0.00    +0.226 C 
ATOM     12  O   UNL     1      -1.858   1.197  23.580  0.00  0.00    -0.275 OA
ATOM     21  N   UNL     1      -3.406   3.524  24.892  0.00  0.00    -0.307 N 
ATOM     31  C   UNL     1      -3.353   4.148  25.429  0.00  0.00    +0.178 A 
ATOM     32  N   UNL     1      -2.589   4.154  25.738  0.00  0.00    -0.229 NA
ENDROOT
BRANCH   5   3
ATOM      3  C   UNL     1      -0.342   2.365  25.150  0.00  0.00    +0.336 C 
ATOM      4  O   UNL     1       0.219   2.526  24.567  0.00  0.00    -0.248 OA
BRANCH   3   2
ATOM      1  C   UNL     1       0.425   2.262  26.351  0.00  0.00    +0.256 C 
ATOM      2  O   UNL     1      -0.126   1.944  25.826  0.00  0.00    -0.443 OA
ENDBRANCH   3   2
ENDBRANCH   5   3
BRANCH  11  13
ATOM     13  C   UNL     1      -0.575   1.326  24.197  0.00  0.00    +0.086 C 
BRANCH  13  14
ATOM     14  C   UNL     1      -0.305   0.673  23.771  0.00  0.00    +0.019 C 
ATOM     15  C   UNL     1      -0.001   1.175  23.193  0.00  0.00    +0.001 C 
ATOM     16  C   UNL     1      -0.609   0.170  24.351  0.00  0.00    +0.001 C 
BRANCH  14  17
ATOM     17  C   UNL     1      -0.035   0.019  23.346  0.00  0.00    +0.115 C 
BRANCH  17  18
ATOM     18  C   UNL     1       0.728  -0.266  23.468  0.00  0.00    +0.365 C 
ATOM     19  O   UNL     1       1.347  -0.013  22.984  0.00  0.00    -0.246 OA
ATOM     20  O   UNL     1       0.875  -0.806  24.075  0.00  0.00    -0.246 OA
ENDBRANCH  17  18
ENDBRANCH  14  17
ENDBRANCH  13  14
ENDBRANCH  11  13
BRANCH  21  22
ATOM     22  C   UNL     1      -4.074   3.316  24.454  0.00  0.00    +0.134 C 
BRANCH  22  23
ATOM     23  C   UNL     1      -4.719   2.963  24.828  0.00  0.00    +0.001 A 
ATOM     24  C   UNL     1      -4.920   2.181  24.654  0.00  0.00    +0.001 A 
ATOM     25  C   UNL     1      -5.565   1.828  25.028  0.00  0.00    +0.037 A 
ATOM     26  C   UNL     1      -6.009   2.257  25.576  0.00  0.00    +0.139 A 
ATOM     29  C   UNL     1      -5.809   3.038  25.749  0.00  0.00    +0.037 A 
ATOM     30  C   UNL     1      -5.163   3.390  25.375  0.00  0.00    +0.001 A 
BRANCH  26  27
ATOM     27  O   UNL     1      -6.654   1.903  25.949  0.00  0.00    -0.471 OA
ATOM     28  C   UNL     1      -6.580   1.619  26.720  0.00  0.00    +0.252 C 
ENDBRANCH  26  27
ENDBRANCH  22  23
ENDBRANCH  21  22
TORSDOF 9
ENDMDL
MODEL 9
REMARK VINA RESULT:      -7.9      2.037      3.297
REMARK  Name = 
REMARK  9 active torsions:
REMARK  status: ('A' for Active; 'I' for Inactive)
REMARK    1  A    between atoms: O_2  and  C_3
REMARK    2  A    between atoms: C_3  and  C_5
REMARK    3  A    between atoms: C_11  and  C_13
REMARK    4  A    between atoms: C_13  and  C_14
REMARK    5  A    between atoms: C_14  and  C_17
REMARK    6  A    between atoms: C_17  and  C_18
REMARK    7  A    between atoms: N_21  and  C_22
REMARK    8  A    between atoms: C_22  and  C_23
REMARK    9  A    between atoms: C_26  and  O_27
REMARK                            x       y       z     vdW  Elec       q    Type
REMARK                         _______ _______ _______ _____ _____    ______ ____
ROOT
ATOM      5  C   UNL     1      -1.809   3.272  25.093  0.00  0.00    +0.181 C 
ATOM      6  C   UNL     1      -0.992   3.186  25.160  0.00  0.00    +0.078 C 
ATOM      7  C   UNL     1      -0.616   2.532  24.824  0.00  0.00    +0.076 A 
ATOM      8  C   UNL     1      -1.059   1.964  24.421  0.00  0.00    +0.072 A 
ATOM      9  C   UNL     1      -1.878   2.050  24.354  0.00  0.00    +0.139 C 
ATOM     10  N   UNL     1      -2.252   2.704  24.690  0.00  0.00    -0.265 N 
ATOM     11  C   UNL     1      -3.070   2.789  24.622  0.00  0.00    +0.226 C 
ATOM     12  O   UNL     1      -3.512   2.222  24.220  0.00  0.00    -0.275 OA
ATOM     21  N   UNL     1      -0.542   1.383  24.149  0.00  0.00    -0.307 N 
ATOM     31  C   UNL     1       0.221   1.591  24.384  0.00  0.00    +0.178 A 
ATOM     32  N   UNL     1       0.174   2.301  24.801  0.00  0.00    -0.229 NA
ENDROOT
BRANCH   5   3
ATOM      3  C   UNL     1      -2.184   3.925  25.428  0.00  0.00    +0.336 C 
ATOM      4  O   UNL     1      -2.534   3.862  26.173  0.00  0.00    -0.248 OA
BRANCH   3   2
ATOM      1  C   UNL     1      -1.873   5.317  25.350  0.00  0.00    +0.256 C 
ATOM      2  O   UNL     1      -2.210   4.641  25.020  0.00  0.00    -0.443 OA
ENDBRANCH   3   2
ENDBRANCH   5   3
BRANCH  11  13
ATOM     13  C   UNL     1      -3.445   3.443  24.959  0.00  0.00    +0.086 C 
BRANCH  13  14
ATOM     14  C   UNL     1      -4.268   3.499  24.943  0.00  0.00    +0.019 C 
ATOM     15  C   UNL     1      -4.309   3.102  25.664  0.00  0.00    +0.001 C 
ATOM     16  C   UNL     1      -4.226   3.897  24.220  0.00  0.00    +0.001 C 
BRANCH  14  17
ATOM     17  C   UNL     1      -5.091   3.556  24.926  0.00  0.00    +0.115 C 
BRANCH  17  18
ATOM     18  C   UNL     1      -5.502   3.794  25.599  0.00  0.00    +0.365 C 
ATOM     19  O   UNL     1      -5.768   3.232  26.142  0.00  0.00    -0.246 OA
ATOM     20  O   UNL     1      -5.649   4.595  25.731  0.00  0.00    -0.246 OA
ENDBRANCH  17  18
ENDBRANCH  14  17
ENDBRANCH  13  14
ENDBRANCH  11  13
BRANCH  21  22
ATOM     22  C   UNL     1      -0.750   0.711  23.718  0.00  0.00    +0.134 C 
BRANCH  22  23
ATOM     23  C   UNL     1      -0.730  -0.032  24.076  0.00  0.00    +0.001 A 
ATOM     24  C   UNL     1      -1.417  -0.348  24.409  0.00  0.00    +0.001 A 
ATOM     25  C   UNL     1      -1.397  -1.091  24.767  0.00  0.00    +0.037 A 
ATOM     26  C   UNL     1      -0.691  -1.518  24.793  0.00  0.00    +0.139 A 
ATOM     29  C   UNL     1      -0.005  -1.202  24.460  0.00  0.00    +0.037 A 
ATOM     30  C   UNL     1      -0.025  -0.459  24.102  0.00  0.00    +0.001 A 
BRANCH  26  27
ATOM     27  O   UNL     1      -0.672  -2.261  25.151  0.00  0.00    -0.471 OA
ATOM     28  C   UNL     1      -1.332  -2.754  25.114  0.00  0.00    +0.252 C 
ENDBRANCH  26  27
ENDBRANCH  22  23
ENDBRANCH  21  22
TORSDOF 9
ENDMDL
MODEL 10
REMARK VINA RESULT:      -7.9      3.125      4.513
REMARK  Name = 
REMARK  9 active torsions:
REMARK  status: ('A' for Active; 'I' for Inactive)
REMARK    1  A    between atoms: O_2  and  C_3
REMARK    2  A    between atoms: C_3  and  C_5
REMARK    3  A    between atoms: C_11  and  C_13
REMARK    4  A    between atoms: C_13  and  C_14
REMARK    5  A    between atoms: C_14  and  C_17
REMARK    6  A    between atoms: C_17  and  C_18
REMARK    7  A    between atoms: N_21  and  C_22
REMARK    8  A    between atoms: C_22  and  C_23
REMARK    9  A    between atoms: C_26  and  O_27
REMARK                            x       y       z     vdW  Elec       q    Type
REMARK                         _______ _______ _______ _____ _____    ______ ____
ROOT
ATOM      5  C   UNL     1      -2.310   2.698  24.772  0.00  0.00    +0.181 C 
ATOM      6  C   UNL     1      -1.559   3.036  24.752  0.00  0.00    +0.078 C 
ATOM      7  C   UNL     1      -0.902   2.573  24.563  0.00  0.00    +0.076 A 
ATOM      8  C   UNL     1      -0.999   1.771  24.395  0.00  0.00    +0.072 A 
ATOM      9  C   UNL     1      -1.752   1.432  24.415  0.00  0.00    +0.139 C 
ATOM     10  N   UNL     1      -2.407   1.897  24.603  0.00  0.00    -0.265 N 
ATOM     11  C   UNL     1      -3.159   1.558  24.623  0.00  0.00    +0.226 C 
ATOM     12  O   UNL     1      -3.255   0.756  24.454  0.00  0.00    -0.275 OA
ATOM     21  N   UNL     1      -0.256   1.454  24.228  0.00  0.00    -0.307 N 
ATOM     31  C   UNL     1       0.300   2.060  24.294  0.00  0.00    +0.178 A 
ATOM     32  N   UNL     1      -0.100   2.751  24.501  0.00  0.00    -0.229 NA
ENDROOT
BRANCH   5   3
ATOM      3  C   UNL     1      -2.966   3.162  24.960  0.00  0.00    +0.336 C 
ATOM      4  O   UNL     1      -3.457   3.444  24.360  0.00  0.00    -0.248 OA
BRANCH   3   2
ATOM      1  C   UNL     1      -3.215   4.130  25.981  0.00  0.00    +0.256 C 
ATOM      2  O   UNL     1      -3.131   3.344  25.747  0.00  0.00    -0.443 OA
ENDBRANCH   3   2
ENDBRANCH   5   3
BRANCH  11  13
ATOM     13  C   UNL     1      -3.815   2.022  24.811  0.00  0.00    +0.086 C 
BRANCH  13  14
ATOM     14  C   UNL     1      -4.566   1.682  24.837  0.00  0.00    +0.019 C 
ATOM     15  C   UNL     1      -4.770   2.076  24.143  0.00  0.00    +0.001 C 
ATOM     16  C   UNL     1      -4.362   1.287  25.533  0.00  0.00    +0.001 C 
BRANCH  14  17
ATOM     17  C   UNL     1      -5.317   1.341  24.865  0.00  0.00    +0.115 C 
BRANCH  17  18
ATOM     18  C   UNL     1      -5.951   1.764  25.180  0.00  0.00    +0.365 C 
ATOM     19  O   UNL     1      -6.511   2.104  24.678  0.00  0.00    -0.246 OA
ATOM     20  O   UNL     1      -6.026   1.846  25.997  0.00  0.00    -0.246 OA
ENDBRANCH  17  18
ENDBRANCH  14  17
ENDBRANCH  13  14
ENDBRANCH  11  13
BRANCH  21  22
ATOM     22  C   UNL     1      -0.096   0.669  24.031  0.00  0.00    +0.134 C 
BRANCH  22  23
ATOM     23  C   UNL     1       0.560   0.485  23.566  0.00  0.00    +0.001 A 
ATOM     24  C   UNL     1       1.318   0.692  23.821  0.00  0.00    +0.001 A 
ATOM     25  C   UNL     1       1.973   0.509  23.356  0.00  0.00    +0.037 A 
ATOM     26  C   UNL     1       1.873   0.118  22.636  0.00  0.00    +0.139 A 
ATOM     29  C   UNL     1       1.116  -0.089  22.381  0.00  0.00    +0.037 A 
ATOM     30  C   UNL     1       0.460   0.095  22.846  0.00  0.00    +0.001 A 
BRANCH  26  27
ATOM     27  O   UNL     1       2.529  -0.065  22.172  0.00  0.00    -0.471 OA
ATOM     28  C   UNL     1       3.246   0.323  22.299  0.00  0.00    +0.252 C 
ENDBRANCH  26  27
ENDBRANCH  22  23
ENDBRANCH  21  22
TORSDOF 9
ENDMDL
