MODEL 1
REMARK VINA RESULT:     -12.8      0.000      0.000
REMARK  Name = 
REMARK  4 active torsions:
REMARK  status: ('A' for Active; 'I' for Inactive)
REMARK    1  A    between atoms: O_2  and  C_3
REMARK    2  A    between atoms: C_6  and  C_9
REMARK    3  A    between atoms: C_12  and  C_14
REMARK    4  A    between atoms: C_19  and  C_21
REMARK                            x       y       z     vdW  Elec       q    Type
REMARK                         _______ _______ _______ _____ _____    ______ ____
ROOT
ATOM      9  C   UNL     1      -4.196   0.444  24.793  0.00  0.00    +0.250 A 
ATOM     10  N   UNL     1      -4.934   0.810  24.829  0.00  0.00    -0.107 NA
ATOM     11  N   UNL     1      -4.815   1.625  24.880  0.00  0.00    -0.111 NA
ATOM     12  C   UNL     1      -4.002   1.763  24.875  0.00  0.00    +0.228 A 
ATOM     13  O   UNL     1      -3.619   1.033  24.821  0.00  0.00    -0.419 OA
ENDROOT
BRANCH  12  14
ATOM     14  C   UNL     1      -3.635   2.500  24.917  0.00  0.00    +0.100 C 
ATOM     15  C   UNL     1      -4.007   3.232  24.836  0.00  0.00    +0.033 C 
ATOM     16  C   UNL     1      -3.433   3.820  24.915  0.00  0.00    +0.094 C 
ATOM     17  N   UNL     1      -2.707   3.452  25.046  0.00  0.00    -0.276 N 
ATOM     18  C   UNL     1      -2.831   2.636  25.046  0.00  0.00    +0.103 C 
ATOM     19  C   UNL     1      -1.983   3.832  25.156  0.00  0.00    +0.249 C 
ATOM     20  O   UNL     1      -1.944   4.656  25.141  0.00  0.00    -0.270 OA
BRANCH  19  21
ATOM     21  C   UNL     1      -1.299   3.389  25.281  0.00  0.00    +0.054 A 
ATOM     22  C   UNL     1      -1.097   3.148  26.044  0.00  0.00    +0.005 A 
ATOM     23  C   UNL     1      -0.413   2.704  26.169  0.00  0.00    +0.000 A 
ATOM     24  C   UNL     1       0.070   2.502  25.531  0.00  0.00    +0.000 A 
ATOM     25  C   UNL     1      -0.132   2.742  24.769  0.00  0.00    +0.000 A 
ATOM     26  C   UNL     1      -0.817   3.186  24.643  0.00  0.00    +0.005 A 
ENDBRANCH  19  21
ENDBRANCH  12  14
BRANCH   9   6
ATOM      3  C   UNL     1      -3.783  -1.990  24.629  0.00  0.00    +0.139 A 
ATOM      4  C   UNL     1      -4.103  -1.581  23.986  0.00  0.00    +0.037 A 
ATOM      5  C   UNL     1      -4.240  -0.770  24.041  0.00  0.00    +0.008 A 
ATOM      6  C   UNL     1      -4.058  -0.367  24.738  0.00  0.00    +0.055 A 
ATOM      7  C   UNL     1      -3.739  -0.775  25.379  0.00  0.00    +0.008 A 
ATOM      8  C   UNL     1      -3.601  -1.587  25.325  0.00  0.00    +0.037 A 
BRANCH   3   2
ATOM      1  C   UNL     1      -2.877  -3.084  24.479  0.00  0.00    +0.252 C 
ATOM      2  O   UNL     1      -3.645  -2.802  24.574  0.00  0.00    -0.471 OA
ENDBRANCH   3   2
ENDBRANCH   9   6
TORSDOF 4
ENDMDL
MODEL 2
REMARK VINA RESULT:     -11.8      1.530      2.659
REMARK  Name = 
REMARK  4 active torsions:
REMARK  status: ('A' for Active; 'I' for Inactive)
REMARK    1  A    between atoms: O_2  and  C_3
REMARK    2  A    between atoms: C_6  and  C_9
REMARK    3  A    between atoms: C_12  and  C_14
REMARK    4  A    between atoms: C_19  and  C_21
REMARK                            x       y       z     vdW  Elec       q    Type
REMARK                         _______ _______ _______ _____ _____    ______ ____
ROOT
ATOM      9  C   UNL     1      -1.615  -0.140  25.280  0.00  0.00    +0.250 A 
ATOM     10  N   UNL     1      -0.800  -0.155  25.405  0.00  0.00    -0.107 NA
ATOM     11  N   UNL     1      -0.538   0.624  25.476  0.00  0.00    -0.111 NA
ATOM     12  C   UNL     1      -1.192   1.121  25.395  0.00  0.00    +0.228 A 
ATOM     13  O   UNL     1      -1.857   0.649  25.274  0.00  0.00    -0.419 OA
ENDROOT
BRANCH  12  14
ATOM     14  C   UNL     1      -1.182   1.945  25.430  0.00  0.00    +0.100 C 
ATOM     15  C   UNL     1      -0.514   2.418  25.540  0.00  0.00    +0.033 C 
ATOM     16  C   UNL     1      -0.758   3.207  25.538  0.00  0.00    +0.094 C 
ATOM     17  N   UNL     1      -1.575   3.221  25.427  0.00  0.00    -0.276 N 
ATOM     18  C   UNL     1      -1.837   2.441  25.360  0.00  0.00    +0.103 C 
ATOM     19  C   UNL     1      -2.047   3.897  25.389  0.00  0.00    +0.249 C 
ATOM     20  O   UNL     1      -1.705   4.643  25.466  0.00  0.00    -0.270 OA
BRANCH  19  21
ATOM     21  C   UNL     1      -2.861   3.825  25.275  0.00  0.00    +0.054 A 
ATOM     22  C   UNL     1      -3.169   3.793  24.510  0.00  0.00    +0.005 A 
ATOM     23  C   UNL     1      -3.983   3.721  24.396  0.00  0.00    +0.000 A 
ATOM     24  C   UNL     1      -4.489   3.682  25.047  0.00  0.00    +0.000 A 
ATOM     25  C   UNL     1      -4.181   3.714  25.811  0.00  0.00    +0.000 A 
ATOM     26  C   UNL     1      -3.367   3.786  25.926  0.00  0.00    +0.005 A 
ENDBRANCH  19  21
ENDBRANCH  12  14
BRANCH   9   6
ATOM      3  C   UNL     1      -3.078  -2.113  24.977  0.00  0.00    +0.139 A 
ATOM      4  C   UNL     1      -3.335  -1.475  25.433  0.00  0.00    +0.037 A 
ATOM      5  C   UNL     1      -2.848  -0.817  25.534  0.00  0.00    +0.008 A 
ATOM      6  C   UNL     1      -2.103  -0.798  25.179  0.00  0.00    +0.055 A 
ATOM      7  C   UNL     1      -1.846  -1.435  24.724  0.00  0.00    +0.008 A 
ATOM      8  C   UNL     1      -2.333  -2.093  24.623  0.00  0.00    +0.037 A 
BRANCH   3   2
ATOM      1  C   UNL     1      -3.968  -2.881  24.165  0.00  0.00    +0.252 C 
ATOM      2  O   UNL     1      -3.565  -2.771  24.876  0.00  0.00    -0.471 OA
ENDBRANCH   3   2
ENDBRANCH   9   6
TORSDOF 4
ENDMDL
MODEL 3
REMARK VINA RESULT:     -11.6      1.594      2.267
REMARK  Name = 
REMARK  4 active torsions:
REMARK  status: ('A' for Active; 'I' for Inactive)
REMARK    1  A    between atoms: O_2  and  C_3
REMARK    2  A    between atoms: C_6  and  C_9
REMARK    3  A    between atoms: C_12  and  C_14
REMARK    4  A    between atoms: C_19  and  C_21
REMARK                            x       y       z     vdW  Elec       q    Type
REMARK                         _______ _______ _______ _____ _____    ______ ____
ROOT
ATOM      9  C   UNL     1      -3.704  -0.345  24.783  0.00  0.00    +0.250 A 
ATOM     10  N   UNL     1      -4.443  -0.575  24.500  0.00  0.00    -0.107 NA
ATOM     11  N   UNL     1      -4.950   0.075  24.549  0.00  0.00    -0.111 NA
ATOM     12  C   UNL     1      -4.522   0.707  24.862  0.00  0.00    +0.228 A 
ATOM     13  O   UNL     1      -3.752   0.448  25.006  0.00  0.00    -0.419 OA
ENDROOT
BRANCH  12  14
ATOM     14  C   UNL     1      -4.813   1.465  25.006  0.00  0.00    +0.100 C 
ATOM     15  C   UNL     1      -5.608   1.677  25.061  0.00  0.00    +0.033 C 
ATOM     16  C   UNL     1      -5.647   2.489  25.209  0.00  0.00    +0.094 C 
ATOM     17  N   UNL     1      -4.875   2.777  25.245  0.00  0.00    -0.276 N 
ATOM     18  C   UNL     1      -4.359   2.145  25.120  0.00  0.00    +0.103 C 
ATOM     19  C   UNL     1      -4.657   3.561  25.383  0.00  0.00    +0.249 C 
ATOM     20  O   UNL     1      -5.237   4.136  25.500  0.00  0.00    -0.270 OA
BRANCH  19  21
ATOM     21  C   UNL     1      -3.859   3.770  25.404  0.00  0.00    +0.054 A 
ATOM     22  C   UNL     1      -3.455   3.928  24.702  0.00  0.00    +0.005 A 
ATOM     23  C   UNL     1      -2.657   4.136  24.723  0.00  0.00    +0.000 A 
ATOM     24  C   UNL     1      -2.263   4.186  25.446  0.00  0.00    +0.000 A 
ATOM     25  C   UNL     1      -2.666   4.029  26.148  0.00  0.00    +0.000 A 
ATOM     26  C   UNL     1      -3.465   3.820  26.127  0.00  0.00    +0.005 A 
ENDBRANCH  19  21
ENDBRANCH  12  14
BRANCH   9   6
ATOM      3  C   UNL     1      -1.692  -1.779  24.932  0.00  0.00    +0.139 A 
ATOM      4  C   UNL     1      -2.404  -2.093  24.655  0.00  0.00    +0.037 A 
ATOM      5  C   UNL     1      -3.074  -1.615  24.605  0.00  0.00    +0.008 A 
ATOM      6  C   UNL     1      -3.033  -0.823  24.832  0.00  0.00    +0.055 A 
ATOM      7  C   UNL     1      -2.323  -0.509  25.109  0.00  0.00    +0.008 A 
ATOM      8  C   UNL     1      -1.652  -0.987  25.159  0.00  0.00    +0.037 A 
BRANCH   3   2
ATOM      1  C   UNL     1      -0.317  -1.950  25.280  0.00  0.00    +0.252 C 
ATOM      2  O   UNL     1      -1.022  -2.257  24.982  0.00  0.00    -0.471 OA
ENDBRANCH   3   2
ENDBRANCH   9   6
TORSDOF 4
ENDMDL
MODEL 4
REMARK VINA RESULT:     -11.3      1.995      5.560
REMARK  Name = 
REMARK  4 active torsions:
REMARK  status: ('A' for Active; 'I' for Inactive)
REMARK    1  A    between atoms: O_2  and  C_3
REMARK    2  A    between atoms: C_6  and  C_9
REMARK    3  A    between atoms: C_12  and  C_14
REMARK    4  A    between atoms: C_19  and  C_21
REMARK                            x       y       z     vdW  Elec       q    Type
REMARK                         _______ _______ _______ _____ _____    ______ ____
ROOT
ATOM      9  C   UNL     1      -0.580   1.934  24.736  0.00  0.00    +0.250 A 
ATOM     10  N   UNL     1       0.153   1.735  24.412  0.00  0.00    -0.107 NA
ATOM     11  N   UNL     1       0.180   0.915  24.324  0.00  0.00    -0.111 NA
ATOM     12  C   UNL     1      -0.537   0.607  24.593  0.00  0.00    +0.228 A 
ATOM     13  O   UNL     1      -1.006   1.237  24.847  0.00  0.00    -0.419 OA
ENDROOT
BRANCH  12  14
ATOM     14  C   UNL     1      -0.748  -0.190  24.605  0.00  0.00    +0.100 C 
ATOM     15  C   UNL     1      -0.226  -0.830  24.587  0.00  0.00    +0.033 C 
ATOM     16  C   UNL     1      -0.673  -1.523  24.609  0.00  0.00    +0.094 C 
ATOM     17  N   UNL     1      -1.470  -1.312  24.639  0.00  0.00    -0.276 N 
ATOM     18  C   UNL     1      -1.516  -0.488  24.637  0.00  0.00    +0.103 C 
ATOM     19  C   UNL     1      -2.109  -1.834  24.667  0.00  0.00    +0.249 C 
ATOM     20  O   UNL     1      -1.977  -2.648  24.666  0.00  0.00    -0.270 OA
BRANCH  19  21
ATOM     21  C   UNL     1      -2.880  -1.541  24.697  0.00  0.00    +0.054 A 
ATOM     22  C   UNL     1      -3.325  -1.479  24.004  0.00  0.00    +0.005 A 
ATOM     23  C   UNL     1      -4.095  -1.186  24.033  0.00  0.00    +0.000 A 
ATOM     24  C   UNL     1      -4.421  -0.955  24.755  0.00  0.00    +0.000 A 
ATOM     25  C   UNL     1      -3.977  -1.016  25.447  0.00  0.00    +0.000 A 
ATOM     26  C   UNL     1      -3.206  -1.309  25.419  0.00  0.00    +0.005 A 
ENDBRANCH  19  21
ENDBRANCH  12  14
BRANCH   9   6
ATOM      3  C   UNL     1      -1.360   4.219  25.276  0.00  0.00    +0.139 A 
ATOM      4  C   UNL     1      -0.883   4.092  24.615  0.00  0.00    +0.037 A 
ATOM      5  C   UNL     1      -0.622   3.330  24.435  0.00  0.00    +0.008 A 
ATOM      6  C   UNL     1      -0.840   2.696  24.916  0.00  0.00    +0.055 A 
ATOM      7  C   UNL     1      -1.317   2.823  25.576  0.00  0.00    +0.008 A 
ATOM      8  C   UNL     1      -1.577   3.585  25.756  0.00  0.00    +0.037 A 
BRANCH   3   2
ATOM      1  C   UNL     1      -1.391   5.617  24.985  0.00  0.00    +0.252 C 
ATOM      2  O   UNL     1      -1.620   4.981  25.457  0.00  0.00    -0.471 OA
ENDBRANCH   3   2
ENDBRANCH   9   6
TORSDOF 4
ENDMDL
MODEL 5
REMARK VINA RESULT:     -11.3      1.936      5.070
REMARK  Name = 
REMARK  4 active torsions:
REMARK  status: ('A' for Active; 'I' for Inactive)
REMARK    1  A    between atoms: O_2  and  C_3
REMARK    2  A    between atoms: C_6  and  C_9
REMARK    3  A    between atoms: C_12  and  C_14
REMARK    4  A    between atoms: C_19  and  C_21
REMARK                            x       y       z     vdW  Elec       q    Type
REMARK                         _______ _______ _______ _____ _____    ______ ____
ROOT
ATOM      9  C   UNL     1      -2.424   2.081  24.459  0.00  0.00    +0.250 A 
ATOM     10  N   UNL     1      -1.791   2.261  23.962  0.00  0.00    -0.107 NA
ATOM     11  N   UNL     1      -1.300   1.599  23.924  0.00  0.00    -0.111 NA
ATOM     12  C   UNL     1      -1.630   1.010  24.398  0.00  0.00    +0.228 A 
ATOM     13  O   UNL     1      -2.325   1.308  24.729  0.00  0.00    -0.419 OA
ENDROOT
BRANCH  12  14
ATOM     14  C   UNL     1      -1.320   0.255  24.521  0.00  0.00    +0.100 C 
ATOM     15  C   UNL     1      -0.520   0.065  24.591  0.00  0.00    +0.033 C 
ATOM     16  C   UNL     1      -0.461  -0.750  24.708  0.00  0.00    +0.094 C 
ATOM     17  N   UNL     1      -1.224  -1.063  24.711  0.00  0.00    -0.276 N 
ATOM     18  C   UNL     1      -1.755  -0.441  24.595  0.00  0.00    +0.103 C 
ATOM     19  C   UNL     1      -1.422  -1.858  24.812  0.00  0.00    +0.249 C 
ATOM     20  O   UNL     1      -0.828  -2.419  24.922  0.00  0.00    -0.270 OA
BRANCH  19  21
ATOM     21  C   UNL     1      -2.213  -2.090  24.802  0.00  0.00    +0.054 A 
ATOM     22  C   UNL     1      -2.541  -2.410  24.115  0.00  0.00    +0.005 A 
ATOM     23  C   UNL     1      -3.332  -2.642  24.105  0.00  0.00    +0.000 A 
ATOM     24  C   UNL     1      -3.796  -2.555  24.782  0.00  0.00    +0.000 A 
ATOM     25  C   UNL     1      -3.469  -2.236  25.468  0.00  0.00    +0.000 A 
ATOM     26  C   UNL     1      -2.677  -2.003  25.479  0.00  0.00    +0.005 A 
ENDBRANCH  19  21
ENDBRANCH  12  14
BRANCH   9   6
ATOM      3  C   UNL     1      -4.293   3.596  25.040  0.00  0.00    +0.139 A 
ATOM      4  C   UNL     1      -3.573   3.658  25.438  0.00  0.00    +0.037 A 
ATOM      5  C   UNL     1      -2.950   3.153  25.245  0.00  0.00    +0.008 A 
ATOM      6  C   UNL     1      -3.047   2.586  24.653  0.00  0.00    +0.055 A 
ATOM      7  C   UNL     1      -3.766   2.524  24.255  0.00  0.00    +0.008 A 
ATOM      8  C   UNL     1      -4.389   3.029  24.448  0.00  0.00    +0.037 A 
BRANCH   3   2
ATOM      1  C   UNL     1      -5.588   3.802  25.607  0.00  0.00    +0.252 C 
ATOM      2  O   UNL     1      -4.917   4.101  25.233  0.00  0.00    -0.471 OA
ENDBRANCH   3   2
ENDBRANCH   9   6
TORSDOF 4
ENDMDL
MODEL 6
REMARK VINA RESULT:     -11.1      1.365      4.741
REMARK  Name = 
REMARK  4 active torsions:
REMARK  status: ('A' for Active; 'I' for Inactive)
REMARK    1  A    between atoms: O_2  and  C_3
REMARK    2  A    between atoms: C_6  and  C_9
REMARK    3  A    between atoms: C_12  and  C_14
REMARK    4  A    between atoms: C_19  and  C_21
REMARK                            x       y       z     vdW  Elec       q    Type
REMARK                         _______ _______ _______ _____ _____    ______ ____
ROOT
ATOM      9  C   UNL     1      -3.561   2.342  24.876  0.00  0.00    +0.250 A 
ATOM     10  N   UNL     1      -4.366   2.327  24.698  0.00  0.00    -0.107 NA
ATOM     11  N   UNL     1      -4.587   1.541  24.579  0.00  0.00    -0.111 NA
ATOM     12  C   UNL     1      -3.918   1.070  24.685  0.00  0.00    +0.228 A 
ATOM     13  O   UNL     1      -3.284   1.565  24.868  0.00  0.00    -0.419 OA
ENDROOT
BRANCH  12  14
ATOM     14  C   UNL     1      -3.887   0.248  24.619  0.00  0.00    +0.100 C 
ATOM     15  C   UNL     1      -4.521  -0.247  24.436  0.00  0.00    +0.033 C 
ATOM     16  C   UNL     1      -4.243  -1.025  24.428  0.00  0.00    +0.094 C 
ATOM     17  N   UNL     1      -3.438  -1.009  24.606  0.00  0.00    -0.276 N 
ATOM     18  C   UNL     1      -3.218  -0.222  24.724  0.00  0.00    +0.103 C 
ATOM     19  C   UNL     1      -2.940  -1.665  24.657  0.00  0.00    +0.249 C 
ATOM     20  O   UNL     1      -3.241  -2.422  24.524  0.00  0.00    -0.270 OA
BRANCH  19  21
ATOM     21  C   UNL     1      -2.142  -1.564  24.841  0.00  0.00    +0.054 A 
ATOM     22  C   UNL     1      -1.908  -1.474  25.627  0.00  0.00    +0.005 A 
ATOM     23  C   UNL     1      -1.111  -1.373  25.811  0.00  0.00    +0.000 A 
ATOM     24  C   UNL     1      -0.547  -1.362  25.209  0.00  0.00    +0.000 A 
ATOM     25  C   UNL     1      -0.780  -1.452  24.423  0.00  0.00    +0.000 A 
ATOM     26  C   UNL     1      -1.579  -1.553  24.238  0.00  0.00    +0.005 A 
ENDBRANCH  19  21
ENDBRANCH  12  14
BRANCH   9   6
ATOM      3  C   UNL     1      -2.214   4.363  25.351  0.00  0.00    +0.139 A 
ATOM      4  C   UNL     1      -2.047   3.903  24.686  0.00  0.00    +0.037 A 
ATOM      5  C   UNL     1      -2.496   3.229  24.528  0.00  0.00    +0.008 A 
ATOM      6  C   UNL     1      -3.112   3.016  25.034  0.00  0.00    +0.055 A 
ATOM      7  C   UNL     1      -3.278   3.475  25.698  0.00  0.00    +0.008 A 
ATOM      8  C   UNL     1      -2.829   4.149  25.857  0.00  0.00    +0.037 A 
BRANCH   3   2
ATOM      1  C   UNL     1      -1.121   5.225  25.030  0.00  0.00    +0.252 C 
ATOM      2  O   UNL     1      -1.765   5.037  25.509  0.00  0.00    -0.471 OA
ENDBRANCH   3   2
ENDBRANCH   9   6
TORSDOF 4
ENDMDL
MODEL 7
REMARK VINA RESULT:     -10.8      2.021      3.369
REMARK  Name = 
REMARK  4 active torsions:
REMARK  status: ('A' for Active; 'I' for Inactive)
REMARK    1  A    between atoms: O_2  and  C_3
REMARK    2  A    between atoms: C_6  and  C_9
REMARK    3  A    between atoms: C_12  and  C_14
REMARK    4  A    between atoms: C_19  and  C_21
REMARK                            x       y       z     vdW  Elec       q    Type
REMARK                         _______ _______ _______ _____ _____    ______ ____
ROOT
ATOM      9  C   UNL     1      -1.137   1.124  25.317  0.00  0.00    +0.250 A 
ATOM     10  N   UNL     1      -0.560   1.674  25.529  0.00  0.00    -0.107 NA
ATOM     11  N   UNL     1      -0.913   2.419  25.558  0.00  0.00    -0.111 NA
ATOM     12  C   UNL     1      -1.710   2.330  25.362  0.00  0.00    +0.228 A 
ATOM     13  O   UNL     1      -1.848   1.530  25.213  0.00  0.00    -0.419 OA
ENDROOT
BRANCH  12  14
ATOM     14  C   UNL     1      -2.270   2.934  25.323  0.00  0.00    +0.100 C 
ATOM     15  C   UNL     1      -2.109   3.743  25.298  0.00  0.00    +0.033 C 
ATOM     16  C   UNL     1      -2.830   4.145  25.260  0.00  0.00    +0.094 C 
ATOM     17  N   UNL     1      -3.434   3.584  25.262  0.00  0.00    -0.276 N 
ATOM     18  C   UNL     1      -3.089   2.836  25.300  0.00  0.00    +0.103 C 
ATOM     19  C   UNL     1      -4.244   3.744  25.231  0.00  0.00    +0.249 C 
ATOM     20  O   UNL     1      -4.509   4.524  25.194  0.00  0.00    -0.270 OA
BRANCH  19  21
ATOM     21  C   UNL     1      -4.787   3.123  25.237  0.00  0.00    +0.054 A 
ATOM     22  C   UNL     1      -4.923   2.687  24.549  0.00  0.00    +0.005 A 
ATOM     23  C   UNL     1      -5.467   2.067  24.555  0.00  0.00    +0.000 A 
ATOM     24  C   UNL     1      -5.874   1.882  25.248  0.00  0.00    +0.000 A 
ATOM     25  C   UNL     1      -5.738   2.317  25.935  0.00  0.00    +0.000 A 
ATOM     26  C   UNL     1      -5.194   2.938  25.930  0.00  0.00    +0.005 A 
ENDBRANCH  19  21
ENDBRANCH  12  14
BRANCH   9   6
ATOM      3  C   UNL     1      -0.797  -1.311  25.038  0.00  0.00    +0.139 A 
ATOM      4  C   UNL     1      -0.499  -0.785  24.475  0.00  0.00    +0.037 A 
ATOM      5  C   UNL     1      -0.612   0.026  24.568  0.00  0.00    +0.008 A 
ATOM      6  C   UNL     1      -1.024   0.313  25.224  0.00  0.00    +0.055 A 
ATOM      7  C   UNL     1      -1.322  -0.212  25.786  0.00  0.00    +0.008 A 
ATOM      8  C   UNL     1      -1.208  -1.024  25.693  0.00  0.00    +0.037 A 
BRANCH   3   2
ATOM      1  C   UNL     1      -1.284  -2.589  24.627  0.00  0.00    +0.252 C 
ATOM      2  O   UNL     1      -0.683  -2.123  24.945  0.00  0.00    -0.471 OA
ENDBRANCH   3   2
ENDBRANCH   9   6
TORSDOF 4
ENDMDL
