MODEL 1
REMARK VINA RESULT:     -10.0      0.000      0.000
REMARK  Name = 
REMARK  3 active torsions:
REMARK  status: ('A' for Active; 'I' for Inactive)
REMARK    1  A    between atoms: C_2  and  N_4
REMARK    2  A    between atoms: C_9  and  C_10
REMARK    3  A    between atoms: C_12  and  C_15
REMARK                            x       y       z     vdW  Elec       q    Type
REMARK                         _______ _______ _______ _____ _____    ______ ____
ROOT
ATOM     10  C   UNL     1      -4.196   1.417  24.597  0.00  0.00    +0.251 A 
ATOM     11  N   UNL     1      -4.184   0.695  24.998  0.00  0.00    -0.190 NA
ATOM     12  C   UNL     1      -3.900   0.120  24.480  0.00  0.00    +0.205 A 
ATOM     13  N   UNL     1      -3.735   0.486  23.760  0.00  0.00    -0.056 NA
ATOM     14  O   UNL     1      -3.918   1.286  23.832  0.00  0.00    -0.336 OA
ENDROOT
BRANCH  10   9
ATOM      4  N   UNL     1      -3.972   2.810  25.005  0.00  0.00    -0.265 NA
ATOM      5  C   UNL     1      -4.439   3.405  25.333  0.00  0.00    +0.106 C 
ATOM      6  C   UNL     1      -5.200   3.102  25.439  0.00  0.00    +0.170 C 
ATOM      7  O   UNL     1      -5.845   3.509  25.752  0.00  0.00    -0.222 OA
ATOM      8  C   UNL     1      -5.201   2.320  25.176  0.00  0.00    +0.060 C 
ATOM      9  C   UNL     1      -4.441   2.140  24.908  0.00  0.00    +0.140 C 
BRANCH   4   2
ATOM      1  C   UNL     1      -2.952   3.102  24.047  0.00  0.00    +0.017 C 
ATOM      2  C   UNL     1      -3.173   2.875  24.809  0.00  0.00    +0.058 C 
ATOM      3  C   UNL     1      -2.595   2.713  25.374  0.00  0.00    +0.017 C 
ENDBRANCH   4   2
ENDBRANCH  10   9
BRANCH  12  15
ATOM     15  C   UNL     1      -3.797  -0.680  24.653  0.00  0.00    +0.058 A 
ATOM     16  C   UNL     1      -4.022  -1.252  24.102  0.00  0.00    +0.006 A 
ATOM     17  C   UNL     1      -3.920  -2.053  24.275  0.00  0.00    +0.021 A 
ATOM     18  C   UNL     1      -3.593  -2.281  24.998  0.00  0.00    +0.099 A 
ATOM     19  N   UNL     1      -3.369  -1.709  25.548  0.00  0.00    -0.242 NA
ATOM     20  C   UNL     1      -3.471  -0.908  25.375  0.00  0.00    +0.102 A 
ENDBRANCH  12  15
TORSDOF 3
ENDMDL
MODEL 2
REMARK VINA RESULT:      -9.9      1.281      4.043
REMARK  Name = 
REMARK  3 active torsions:
REMARK  status: ('A' for Active; 'I' for Inactive)
REMARK    1  A    between atoms: C_2  and  N_4
REMARK    2  A    between atoms: C_9  and  C_10
REMARK    3  A    between atoms: C_12  and  C_15
REMARK                            x       y       z     vdW  Elec       q    Type
REMARK                         _______ _______ _______ _____ _____    ______ ____
ROOT
ATOM     10  C   UNL     1      -3.872  -0.132  24.308  0.00  0.00    +0.251 A 
ATOM     11  N   UNL     1      -4.387   0.328  24.760  0.00  0.00    -0.190 NA
ATOM     12  C   UNL     1      -4.250   1.120  24.575  0.00  0.00    +0.205 A 
ATOM     13  N   UNL     1      -3.651   1.149  24.009  0.00  0.00    -0.056 NA
ATOM     14  O   UNL     1      -3.418   0.376  23.844  0.00  0.00    -0.336 OA
ENDROOT
BRANCH  10   9
ATOM      4  N   UNL     1      -3.306  -1.403  24.779  0.00  0.00    -0.265 NA
ATOM      5  C   UNL     1      -3.443  -2.200  24.616  0.00  0.00    +0.106 C 
ATOM      6  C   UNL     1      -4.045  -2.245  24.054  0.00  0.00    +0.170 C 
ATOM      7  O   UNL     1      -4.357  -2.937  23.732  0.00  0.00    -0.222 OA
ATOM      8  C   UNL     1      -4.279  -1.475  23.870  0.00  0.00    +0.060 C 
ATOM      9  C   UNL     1      -3.822  -0.955  24.318  0.00  0.00    +0.140 C 
BRANCH   4   2
ATOM      1  C   UNL     1      -2.950  -1.004  26.105  0.00  0.00    +0.017 C 
ATOM      2  C   UNL     1      -2.749  -1.106  25.311  0.00  0.00    +0.058 C 
ATOM      3  C   UNL     1      -1.991  -0.912  25.049  0.00  0.00    +0.017 C 
ENDBRANCH   4   2
ENDBRANCH  10   9
BRANCH  12  15
ATOM     15  C   UNL     1      -4.643   1.769  24.900  0.00  0.00    +0.058 A 
ATOM     16  C   UNL     1      -5.452   1.724  25.058  0.00  0.00    +0.006 A 
ATOM     17  C   UNL     1      -5.845   2.373  25.383  0.00  0.00    +0.021 A 
ATOM     18  C   UNL     1      -5.430   3.066  25.549  0.00  0.00    +0.099 A 
ATOM     19  N   UNL     1      -4.621   3.111  25.390  0.00  0.00    -0.242 NA
ATOM     20  C   UNL     1      -4.228   2.462  25.066  0.00  0.00    +0.102 A 
ENDBRANCH  12  15
TORSDOF 3
ENDMDL
MODEL 3
REMARK VINA RESULT:      -9.7      1.397      1.972
REMARK  Name = 
REMARK  3 active torsions:
REMARK  status: ('A' for Active; 'I' for Inactive)
REMARK    1  A    between atoms: C_2  and  N_4
REMARK    2  A    between atoms: C_9  and  C_10
REMARK    3  A    between atoms: C_12  and  C_15
REMARK                            x       y       z     vdW  Elec       q    Type
REMARK                         _______ _______ _______ _____ _____    ______ ____
ROOT
ATOM     10  C   UNL     1      -3.132   1.157  24.828  0.00  0.00    +0.251 A 
ATOM     11  N   UNL     1      -2.949   0.368  24.669  0.00  0.00    -0.190 NA
ATOM     12  C   UNL     1      -3.632  -0.080  24.781  0.00  0.00    +0.205 A 
ATOM     13  N   UNL     1      -4.237   0.431  25.009  0.00  0.00    -0.056 NA
ATOM     14  O   UNL     1      -3.929   1.194  25.039  0.00  0.00    -0.336 OA
ENDROOT
BRANCH  10   9
ATOM      4  N   UNL     1      -2.572   2.347  24.176  0.00  0.00    -0.265 NA
ATOM      5  C   UNL     1      -1.973   2.886  24.356  0.00  0.00    +0.106 C 
ATOM      6  C   UNL     1      -1.642   2.664  25.079  0.00  0.00    +0.170 C 
ATOM      7  O   UNL     1      -1.026   3.050  25.468  0.00  0.00    -0.222 OA
ATOM      8  C   UNL     1      -2.036   1.989  25.344  0.00  0.00    +0.060 C 
ATOM      9  C   UNL     1      -2.611   1.794  24.785  0.00  0.00    +0.140 C 
BRANCH   4   2
ATOM      1  C   UNL     1      -2.797   1.984  22.811  0.00  0.00    +0.017 C 
ATOM      2  C   UNL     1      -3.048   2.361  23.502  0.00  0.00    +0.058 C 
ATOM      3  C   UNL     1      -3.775   2.751  23.518  0.00  0.00    +0.017 C 
ENDBRANCH   4   2
ENDBRANCH  10   9
BRANCH  12  15
ATOM     15  C   UNL     1      -3.698  -0.897  24.681  0.00  0.00    +0.058 A 
ATOM     16  C   UNL     1      -4.063  -1.202  24.007  0.00  0.00    +0.006 A 
ATOM     17  C   UNL     1      -4.129  -2.018  23.907  0.00  0.00    +0.021 A 
ATOM     18  C   UNL     1      -3.830  -2.529  24.482  0.00  0.00    +0.099 A 
ATOM     19  N   UNL     1      -3.466  -2.225  25.156  0.00  0.00    -0.242 NA
ATOM     20  C   UNL     1      -3.400  -1.408  25.256  0.00  0.00    +0.102 A 
ENDBRANCH  12  15
TORSDOF 3
ENDMDL
MODEL 4
REMARK VINA RESULT:      -9.2      2.366      3.737
REMARK  Name = 
REMARK  3 active torsions:
REMARK  status: ('A' for Active; 'I' for Inactive)
REMARK    1  A    between atoms: C_2  and  N_4
REMARK    2  A    between atoms: C_9  and  C_10
REMARK    3  A    between atoms: C_12  and  C_15
REMARK                            x       y       z     vdW  Elec       q    Type
REMARK                         _______ _______ _______ _____ _____    ______ ____
ROOT
ATOM     10  C   UNL     1      -2.300   2.380  24.317  0.00  0.00    +0.251 A 
ATOM     11  N   UNL     1      -2.928   2.100  24.775  0.00  0.00    -0.190 NA
ATOM     12  C   UNL     1      -3.599   2.538  24.581  0.00  0.00    +0.205 A 
ATOM     13  N   UNL     1      -3.388   3.087  24.004  0.00  0.00    -0.056 NA
ATOM     14  O   UNL     1      -2.586   2.990  23.841  0.00  0.00    -0.336 OA
ENDROOT
BRANCH  10   9
ATOM      4  N   UNL     1      -0.894   2.441  24.738  0.00  0.00    -0.265 NA
ATOM      5  C   UNL     1      -0.223   1.981  24.603  0.00  0.00    +0.106 C 
ATOM      6  C   UNL     1      -0.441   1.352  24.114  0.00  0.00    +0.170 C 
ATOM      7  O   UNL     1       0.059   0.756  23.840  0.00  0.00    -0.222 OA
ATOM      8  C   UNL     1      -1.245   1.426  23.947  0.00  0.00    +0.060 C 
ATOM      9  C   UNL     1      -1.525   2.099  24.334  0.00  0.00    +0.140 C 
BRANCH   4   2
ATOM      1  C   UNL     1      -1.054   3.069  26.012  0.00  0.00    +0.017 C 
ATOM      2  C   UNL     1      -0.927   3.125  25.198  0.00  0.00    +0.058 C 
ATOM      3  C   UNL     1      -0.834   3.865  24.846  0.00  0.00    +0.017 C 
ENDBRANCH   4   2
ENDBRANCH  10   9
BRANCH  12  15
ATOM     15  C   UNL     1      -4.351   2.442  24.908  0.00  0.00    +0.058 A 
ATOM     16  C   UNL     1      -4.799   1.774  24.721  0.00  0.00    +0.006 A 
ATOM     17  C   UNL     1      -5.551   1.678  25.048  0.00  0.00    +0.021 A 
ATOM     18  C   UNL     1      -5.855   2.249  25.560  0.00  0.00    +0.099 A 
ATOM     19  N   UNL     1      -5.407   2.917  25.746  0.00  0.00    -0.242 NA
ATOM     20  C   UNL     1      -4.655   3.013  25.420  0.00  0.00    +0.102 A 
ENDBRANCH  12  15
TORSDOF 3
ENDMDL
