MODEL 1
REMARK VINA RESULT:     -10.4      0.000      0.000
REMARK  Name = 
REMARK  9 active torsions:
REMARK  status: ('A' for Active; 'I' for Inactive)
REMARK    1  A    between atoms: C_2  and  C_4
REMARK    2  A    between atoms: C_6  and  C_7
REMARK    3  A    between atoms: C_7  and  C_8
REMARK    4  A    between atoms: N_10  and  C_11
REMARK    5  A    between atoms: C_19  and  C_20
REMARK    6  A    between atoms: C_20  and  N_21
REMARK    7  A    between atoms: C_22  and  C_24
REMARK    8  A    between atoms: C_24  and  C_25
REMARK    9  A    between atoms: C_25  and  C_26
REMARK                            x       y       z     vdW  Elec       q    Type
REMARK                         _______ _______ _______ _____ _____    ______ ____
ROOT
ATOM      4  C   UNL     1      -4.499   1.557  24.713  0.00  0.00    +0.006 C 
ATOM      5  C   UNL     1      -4.466   0.829  24.323  0.00  0.00    +0.005 C 
ATOM      6  C   UNL     1      -3.806   0.635  23.867  0.00  0.00    +0.027 C 
ATOM     16  C   UNL     1      -3.180   1.168  23.800  0.00  0.00    -0.048 C 
ATOM     17  C   UNL     1      -2.520   0.974  23.344  0.00  0.00    +0.026 C 
ATOM     18  C   UNL     1      -3.213   1.895  24.189  0.00  0.00    -0.033 C 
ATOM     19  C   UNL     1      -3.873   2.089  24.645  0.00  0.00    +0.043 C 
ENDROOT
BRANCH   4   2
ATOM      1  C   UNL     1      -5.791   2.155  24.826  0.00  0.00    +0.000 C 
ATOM      2  C   UNL     1      -5.158   1.750  25.168  0.00  0.00    +0.000 C 
ATOM      3  C   UNL     1      -5.186   1.540  25.966  0.00  0.00    +0.000 C 
ENDBRANCH   4   2
BRANCH   6   7
ATOM      7  C   UNL     1      -3.773  -0.091  23.478  0.00  0.00    +0.091 C 
BRANCH   7   8
ATOM      8  C   UNL     1      -3.869  -0.791  23.905  0.00  0.00    +0.242 C 
ATOM      9  O   UNL     1      -4.624  -1.052  24.104  0.00  0.00    -0.273 OA
ATOM     10  N   UNL     1      -3.207  -1.229  24.132  0.00  0.00    -0.207 NA
BRANCH  10  11
ATOM     11  C   UNL     1      -3.303  -1.928  24.559  0.00  0.00    +0.095 C 
ATOM     12  C   UNL     1      -3.200  -2.017  25.373  0.00  0.00    +0.022 C 
ATOM     13  C   UNL     1      -3.351  -2.804  25.565  0.00  0.00    +0.002 C 
ATOM     14  C   UNL     1      -3.548  -3.202  24.871  0.00  0.00    +0.002 C 
ATOM     15  C   UNL     1      -3.518  -2.661  24.249  0.00  0.00    +0.022 C 
ENDBRANCH  10  11
ENDBRANCH   7   8
ENDBRANCH   6   7
BRANCH  19  20
ATOM     20  C   UNL     1      -3.906   2.816  25.034  0.00  0.00    +0.119 C 
BRANCH  20  21
ATOM     21  N   UNL     1      -3.382   3.418  24.825  0.00  0.00    -0.205 NA
ATOM     22  C   UNL     1      -3.167   3.989  25.382  0.00  0.00    +0.242 C 
ATOM     23  O   UNL     1      -3.477   3.957  26.146  0.00  0.00    -0.273 OA
BRANCH  22  24
ATOM     24  C   UNL     1      -2.643   4.590  25.173  0.00  0.00    +0.099 C 
BRANCH  24  25
ATOM     25  C   UNL     1      -1.884   4.607  25.498  0.00  0.00    +0.124 C 
BRANCH  25  26
ATOM     26  C   UNL     1      -1.295   5.063  25.144  0.00  0.00    +0.365 C 
ATOM     27  O   UNL     1      -1.404   5.876  25.050  0.00  0.00    -0.246 OA
ATOM     28  O   UNL     1      -0.598   4.708  24.885  0.00  0.00    -0.246 OA
ENDBRANCH  25  26
ENDBRANCH  24  25
ENDBRANCH  22  24
ENDBRANCH  20  21
ENDBRANCH  19  20
TORSDOF 9
ENDMDL
MODEL 2
REMARK VINA RESULT:     -10.1      1.046      5.647
REMARK  Name = 
REMARK  9 active torsions:
REMARK  status: ('A' for Active; 'I' for Inactive)
REMARK    1  A    between atoms: C_2  and  C_4
REMARK    2  A    between atoms: C_6  and  C_7
REMARK    3  A    between atoms: C_7  and  C_8
REMARK    4  A    between atoms: N_10  and  C_11
REMARK    5  A    between atoms: C_19  and  C_20
REMARK    6  A    between atoms: C_20  and  N_21
REMARK    7  A    between atoms: C_22  and  C_24
REMARK    8  A    between atoms: C_24  and  C_25
REMARK    9  A    between atoms: C_25  and  C_26
REMARK                            x       y       z     vdW  Elec       q    Type
REMARK                         _______ _______ _______ _____ _____    ______ ____
ROOT
ATOM      4  C   UNL     1      -3.198   1.740  23.835  0.00  0.00    +0.006 C 
ATOM      5  C   UNL     1      -3.212   2.496  24.167  0.00  0.00    +0.005 C 
ATOM      6  C   UNL     1      -3.772   2.682  24.744  0.00  0.00    +0.027 C 
ATOM     16  C   UNL     1      -4.316   2.114  24.989  0.00  0.00    -0.048 C 
ATOM     17  C   UNL     1      -4.875   2.300  25.566  0.00  0.00    +0.026 C 
ATOM     18  C   UNL     1      -4.302   1.359  24.657  0.00  0.00    -0.033 C 
ATOM     19  C   UNL     1      -3.742   1.172  24.079  0.00  0.00    +0.043 C 
ENDROOT
BRANCH   4   2
ATOM      1  C   UNL     1      -1.907   1.242  23.479  0.00  0.00    +0.000 C 
ATOM      2  C   UNL     1      -2.638   1.554  23.258  0.00  0.00    +0.000 C 
ATOM      3  C   UNL     1      -2.809   1.680  22.461  0.00  0.00    +0.000 C 
ENDBRANCH   4   2
BRANCH   6   7
ATOM      7  C   UNL     1      -3.785   3.437  25.076  0.00  0.00    +0.091 C 
BRANCH   7   8
ATOM      8  C   UNL     1      -3.179   3.971  24.909  0.00  0.00    +0.242 C 
ATOM      9  O   UNL     1      -3.198   4.413  24.213  0.00  0.00    -0.273 OA
ATOM     10  N   UNL     1      -2.552   4.062  25.439  0.00  0.00    -0.207 NA
BRANCH  10  11
ATOM     11  C   UNL     1      -1.946   4.596  25.272  0.00  0.00    +0.095 C 
ATOM     12  C   UNL     1      -1.156   4.402  25.129  0.00  0.00    +0.022 C 
ATOM     13  C   UNL     1      -0.744   5.103  24.987  0.00  0.00    +0.002 C 
ATOM     14  C   UNL     1      -1.278   5.728  25.042  0.00  0.00    +0.002 C 
ATOM     15  C   UNL     1      -2.021   5.415  25.218  0.00  0.00    +0.022 C 
ENDBRANCH  10  11
ENDBRANCH   7   8
ENDBRANCH   6   7
BRANCH  19  20
ATOM     20  C   UNL     1      -3.729   0.417  23.748  0.00  0.00    +0.119 C 
BRANCH  20  21
ATOM     21  N   UNL     1      -3.797  -0.247  24.233  0.00  0.00    -0.205 NA
ATOM     22  C   UNL     1      -3.963  -0.984  23.902  0.00  0.00    +0.242 C 
ATOM     23  O   UNL     1      -4.060  -1.058  23.086  0.00  0.00    -0.273 OA
BRANCH  22  24
ATOM     24  C   UNL     1      -4.032  -1.648  24.387  0.00  0.00    +0.099 C 
BRANCH  24  25
ATOM     25  C   UNL     1      -3.441  -2.225  24.382  0.00  0.00    +0.124 C 
BRANCH  25  26
ATOM     26  C   UNL     1      -3.501  -2.879  24.880  0.00  0.00    +0.365 C 
ATOM     27  O   UNL     1      -3.394  -2.790  25.694  0.00  0.00    -0.246 OA
ATOM     28  O   UNL     1      -3.667  -3.623  24.566  0.00  0.00    -0.246 OA
ENDBRANCH  25  26
ENDBRANCH  24  25
ENDBRANCH  22  24
ENDBRANCH  20  21
ENDBRANCH  19  20
TORSDOF 9
ENDMDL
MODEL 3
REMARK VINA RESULT:      -9.6      1.404      2.208
REMARK  Name = 
REMARK  9 active torsions:
REMARK  status: ('A' for Active; 'I' for Inactive)
REMARK    1  A    between atoms: C_2  and  C_4
REMARK    2  A    between atoms: C_6  and  C_7
REMARK    3  A    between atoms: C_7  and  C_8
REMARK    4  A    between atoms: N_10  and  C_11
REMARK    5  A    between atoms: C_19  and  C_20
REMARK    6  A    between atoms: C_20  and  N_21
REMARK    7  A    between atoms: C_22  and  C_24
REMARK    8  A    between atoms: C_24  and  C_25
REMARK    9  A    between atoms: C_25  and  C_26
REMARK                            x       y       z     vdW  Elec       q    Type
REMARK                         _______ _______ _______ _____ _____    ______ ____
ROOT
ATOM      4  C   UNL     1      -1.937   0.679  24.971  0.00  0.00    +0.006 C 
ATOM      5  C   UNL     1      -2.607   0.211  24.855  0.00  0.00    +0.005 C 
ATOM      6  C   UNL     1      -3.341   0.566  24.723  0.00  0.00    +0.027 C 
ATOM     16  C   UNL     1      -3.404   1.388  24.706  0.00  0.00    -0.048 C 
ATOM     17  C   UNL     1      -4.137   1.743  24.574  0.00  0.00    +0.026 C 
ATOM     18  C   UNL     1      -2.734   1.856  24.822  0.00  0.00    -0.033 C 
ATOM     19  C   UNL     1      -2.000   1.500  24.954  0.00  0.00    +0.043 C 
ENDROOT
BRANCH   4   2
ATOM      1  C   UNL     1      -0.692   0.191  24.470  0.00  0.00    +0.000 C 
ATOM      2  C   UNL     1      -1.205   0.324  25.103  0.00  0.00    +0.000 C 
ATOM      3  C   UNL     1      -0.985   0.101  25.866  0.00  0.00    +0.000 C 
ENDBRANCH   4   2
BRANCH   6   7
ATOM      7  C   UNL     1      -4.010   0.098  24.607  0.00  0.00    +0.091 C 
BRANCH   7   8
ATOM      8  C   UNL     1      -3.932  -0.661  24.293  0.00  0.00    +0.242 C 
ATOM      9  O   UNL     1      -3.728  -0.761  23.501  0.00  0.00    -0.273 OA
ATOM     10  N   UNL     1      -4.060  -1.320  24.773  0.00  0.00    -0.207 NA
BRANCH  10  11
ATOM     11  C   UNL     1      -3.982  -2.079  24.460  0.00  0.00    +0.095 C 
ATOM     12  C   UNL     1      -3.459  -2.661  24.723  0.00  0.00    +0.022 C 
ATOM     13  C   UNL     1      -3.566  -3.331  24.254  0.00  0.00    +0.002 C 
ATOM     14  C   UNL     1      -4.155  -3.164  23.701  0.00  0.00    +0.002 C 
ATOM     15  C   UNL     1      -4.411  -2.390  23.828  0.00  0.00    +0.022 C 
ENDBRANCH  10  11
ENDBRANCH   7   8
ENDBRANCH   6   7
BRANCH  19  20
ATOM     20  C   UNL     1      -1.331   1.968  25.070  0.00  0.00    +0.119 C 
BRANCH  20  21
ATOM     21  N   UNL     1      -1.318   2.744  24.790  0.00  0.00    -0.205 NA
ATOM     22  C   UNL     1      -0.776   3.285  25.099  0.00  0.00    +0.242 C 
ATOM     23  O   UNL     1      -0.247   3.049  25.687  0.00  0.00    -0.273 OA
BRANCH  22  24
ATOM     24  C   UNL     1      -0.764   4.061  24.820  0.00  0.00    +0.099 C 
BRANCH  24  25
ATOM     25  C   UNL     1      -1.000   4.680  25.313  0.00  0.00    +0.124 C 
BRANCH  25  26
ATOM     26  C   UNL     1      -1.128   5.431  24.997  0.00  0.00    +0.365 C 
ATOM     27  O   UNL     1      -1.843   5.820  25.134  0.00  0.00    -0.246 OA
ATOM     28  O   UNL     1      -0.542   5.794  24.546  0.00  0.00    -0.246 OA
ENDBRANCH  25  26
ENDBRANCH  24  25
ENDBRANCH  22  24
ENDBRANCH  20  21
ENDBRANCH  19  20
TORSDOF 9
ENDMDL
MODEL 4
REMARK VINA RESULT:      -9.5      2.799      4.639
REMARK  Name = 
REMARK  9 active torsions:
REMARK  status: ('A' for Active; 'I' for Inactive)
REMARK    1  A    between atoms: C_2  and  C_4
REMARK    2  A    between atoms: C_6  and  C_7
REMARK    3  A    between atoms: C_7  and  C_8
REMARK    4  A    between atoms: N_10  and  C_11
REMARK    5  A    between atoms: C_19  and  C_20
REMARK    6  A    between atoms: C_20  and  N_21
REMARK    7  A    between atoms: C_22  and  C_24
REMARK    8  A    between atoms: C_24  and  C_25
REMARK    9  A    between atoms: C_25  and  C_26
REMARK                            x       y       z     vdW  Elec       q    Type
REMARK                         _______ _______ _______ _____ _____    ______ ____
ROOT
ATOM      4  C   UNL     1      -2.240   0.458  24.364  0.00  0.00    +0.006 C 
ATOM      5  C   UNL     1      -2.951   0.870  24.283  0.00  0.00    +0.005 C 
ATOM      6  C   UNL     1      -3.009   1.491  23.743  0.00  0.00    +0.027 C 
ATOM     16  C   UNL     1      -2.358   1.700  23.283  0.00  0.00    -0.048 C 
ATOM     17  C   UNL     1      -2.416   2.321  22.743  0.00  0.00    +0.026 C 
ATOM     18  C   UNL     1      -1.647   1.289  23.364  0.00  0.00    -0.033 C 
ATOM     19  C   UNL     1      -1.589   0.667  23.904  0.00  0.00    +0.043 C 
ENDROOT
BRANCH   4   2
ATOM      1  C   UNL     1      -2.458  -0.912  24.700  0.00  0.00    +0.000 C 
ATOM      2  C   UNL     1      -2.182  -0.162  24.904  0.00  0.00    +0.000 C 
ATOM      3  C   UNL     1      -1.850  -0.032  25.648  0.00  0.00    +0.000 C 
ENDBRANCH   4   2
BRANCH   6   7
ATOM      7  C   UNL     1      -3.720   1.902  23.663  0.00  0.00    +0.091 C 
BRANCH   7   8
ATOM      8  C   UNL     1      -4.131   2.149  24.334  0.00  0.00    +0.242 C 
ATOM      9  O   UNL     1      -3.744   2.584  24.918  0.00  0.00    -0.273 OA
ATOM     10  N   UNL     1      -4.929   1.958  24.422  0.00  0.00    -0.207 NA
BRANCH  10  11
ATOM     11  C   UNL     1      -5.340   2.204  25.094  0.00  0.00    +0.095 C 
ATOM     12  C   UNL     1      -5.718   1.712  25.638  0.00  0.00    +0.022 C 
ATOM     13  C   UNL     1      -6.056   2.188  26.220  0.00  0.00    +0.002 C 
ATOM     14  C   UNL     1      -5.888   2.974  26.037  0.00  0.00    +0.002 C 
ATOM     15  C   UNL     1      -5.445   2.984  25.341  0.00  0.00    +0.022 C 
ENDBRANCH  10  11
ENDBRANCH   7   8
ENDBRANCH   6   7
BRANCH  19  20
ATOM     20  C   UNL     1      -0.878   0.256  23.984  0.00  0.00    +0.119 C 
BRANCH  20  21
ATOM     21  N   UNL     1      -0.197   0.537  23.613  0.00  0.00    -0.205 NA
ATOM     22  C   UNL     1       0.450   0.035  23.505  0.00  0.00    +0.242 C 
ATOM     23  O   UNL     1       0.415  -0.746  23.768  0.00  0.00    -0.273 OA
BRANCH  22  24
ATOM     24  C   UNL     1       1.131   0.316  23.134  0.00  0.00    +0.099 C 
BRANCH  24  25
ATOM     25  C   UNL     1       1.677  -0.217  22.817  0.00  0.00    +0.124 C 
BRANCH  25  26
ATOM     26  C   UNL     1       2.314   0.062  22.374  0.00  0.00    +0.365 C 
ATOM     27  O   UNL     1       2.337  -0.066  21.559  0.00  0.00    -0.246 OA
ATOM     28  O   UNL     1       2.928   0.468  22.745  0.00  0.00    -0.246 OA
ENDBRANCH  25  26
ENDBRANCH  24  25
ENDBRANCH  22  24
ENDBRANCH  20  21
ENDBRANCH  19  20
TORSDOF 9
ENDMDL
