MODEL 1
REMARK VINA RESULT:     -11.1      0.000      0.000
REMARK  Name = 
REMARK  8 active torsions:
REMARK  status: ('A' for Active; 'I' for Inactive)
REMARK    1  A    between atoms: O_2  and  C_3
REMARK    2  A    between atoms: C_3  and  C_4
REMARK    3  A    between atoms: N_8  and  C_9
REMARK    4  A    between atoms: C_12  and  C_13
REMARK    5  A    between atoms: C_16  and  C_17
REMARK    6  A    between atoms: C_17  and  N_18
REMARK    7  A    between atoms: C_19  and  C_21
REMARK    8  A    between atoms: C_24  and  C_27
REMARK                            x       y       z     vdW  Elec       q    Type
REMARK                         _______ _______ _______ _____ _____    ______ ____
ROOT
ATOM      9  C   UNL     1      -3.144   1.014  24.383  0.00  0.00    +0.120 C 
ATOM     10  C   UNL     1      -3.595   0.340  24.532  0.00  0.00    +0.198 C 
ATOM     11  O   UNL     1      -4.322   0.156  24.188  0.00  0.00    -0.219 OA
ATOM     12  C   UNL     1      -3.191  -0.119  25.086  0.00  0.00    +0.180 C 
ATOM     15  O   UNL     1      -2.491   0.271  25.279  0.00  0.00    -0.350 OA
ATOM     16  C   UNL     1      -2.462   0.972  24.845  0.00  0.00    +0.154 C 
ENDROOT
BRANCH   9   8
ATOM      4  C   UNL     1      -3.859   2.247  24.022  0.00  0.00    +0.087 C 
ATOM      5  C   UNL     1      -3.894   2.727  23.351  0.00  0.00    +0.020 C 
ATOM      6  C   UNL     1      -3.397   2.400  22.778  0.00  0.00    +0.019 C 
ATOM      7  C   UNL     1      -3.056   1.718  23.095  0.00  0.00    +0.072 C 
ATOM      8  N   UNL     1      -3.342   1.625  23.864  0.00  0.00    -0.269 NA
BRANCH   4   3
ATOM      3  C   UNL     1      -4.269   2.370  24.727  0.00  0.00    +0.158 C 
BRANCH   3   2
ATOM      1  C   UNL     1      -5.080   3.205  25.556  0.00  0.00    +0.174 C 
ATOM      2  O   UNL     1      -4.680   3.075  24.847  0.00  0.00    -0.350 OA
ENDBRANCH   3   2
ENDBRANCH   4   3
ENDBRANCH   9   8
BRANCH  12  13
ATOM     13  C   UNL     1      -3.442  -0.843  25.392  0.00  0.00    +0.214 C 
ATOM     14  O   UNL     1      -3.235  -1.059  26.161  0.00  0.00    -0.218 OA
ENDBRANCH  12  13
BRANCH  16  17
ATOM     17  C   UNL     1      -1.857   1.533  24.868  0.00  0.00    +0.146 C 
BRANCH  17  18
ATOM     18  N   UNL     1      -1.090   1.303  25.067  0.00  0.00    -0.199 NA
ATOM     19  C   UNL     1      -0.523   1.874  25.254  0.00  0.00    +0.265 C 
ATOM     20  O   UNL     1       0.243   1.644  25.452  0.00  0.00    -0.268 OA
BRANCH  19  21
ATOM     21  C   UNL     1      -0.725   2.674  25.241  0.00  0.00    +0.055 A 
ATOM     22  C   UNL     1      -1.112   3.012  25.886  0.00  0.00    +0.005 A 
ATOM     23  C   UNL     1      -1.313   3.812  25.873  0.00  0.00    +0.004 A 
ATOM     24  C   UNL     1      -1.127   4.274  25.215  0.00  0.00    +0.071 A 
ATOM     25  C   UNL     1      -0.739   3.935  24.570  0.00  0.00    +0.004 A 
ATOM     26  C   UNL     1      -0.538   3.135  24.583  0.00  0.00    +0.005 A 
BRANCH  24  27
ATOM     27  C   UNL     1      -1.328   5.074  25.202  0.00  0.00    +0.419 C 
ATOM     28  F   UNL     1      -1.530   5.873  25.189  0.00  0.00    -0.166 F 
ATOM     29  F   UNL     1      -0.566   5.261  24.949  0.00  0.00    -0.166 F 
ATOM     30  F   UNL     1      -2.090   4.886  25.456  0.00  0.00    -0.166 F 
ENDBRANCH  24  27
ENDBRANCH  19  21
ENDBRANCH  17  18
ENDBRANCH  16  17
TORSDOF 8
ENDMDL
MODEL 2
REMARK VINA RESULT:     -10.9      2.729      4.703
REMARK  Name = 
REMARK  8 active torsions:
REMARK  status: ('A' for Active; 'I' for Inactive)
REMARK    1  A    between atoms: O_2  and  C_3
REMARK    2  A    between atoms: C_3  and  C_4
REMARK    3  A    between atoms: N_8  and  C_9
REMARK    4  A    between atoms: C_12  and  C_13
REMARK    5  A    between atoms: C_16  and  C_17
REMARK    6  A    between atoms: C_17  and  N_18
REMARK    7  A    between atoms: C_19  and  C_21
REMARK    8  A    between atoms: C_24  and  C_27
REMARK                            x       y       z     vdW  Elec       q    Type
REMARK                         _______ _______ _______ _____ _____    ______ ____
ROOT
ATOM      9  C   UNL     1      -2.648   2.531  24.303  0.00  0.00    +0.120 C 
ATOM     10  C   UNL     1      -2.315   3.210  24.631  0.00  0.00    +0.198 C 
ATOM     11  O   UNL     1      -1.741   3.688  24.279  0.00  0.00    -0.219 OA
ATOM     12  C   UNL     1      -2.656   3.328  25.372  0.00  0.00    +0.180 C 
ATOM     15  O   UNL     1      -3.199   2.723  25.503  0.00  0.00    -0.350 OA
ATOM     16  C   UNL     1      -3.194   2.229  24.842  0.00  0.00    +0.154 C 
ENDROOT
BRANCH   9   8
ATOM      4  C   UNL     1      -1.827   1.716  23.396  0.00  0.00    +0.087 C 
ATOM      5  C   UNL     1      -1.857   1.526  22.593  0.00  0.00    +0.020 C 
ATOM      6  C   UNL     1      -2.515   1.902  22.267  0.00  0.00    +0.019 C 
ATOM      7  C   UNL     1      -2.892   2.324  22.867  0.00  0.00    +0.072 C 
ATOM      8  N   UNL     1      -2.466   2.209  23.565  0.00  0.00    -0.269 NA
BRANCH   4   3
ATOM      3  C   UNL     1      -1.257   1.458  23.934  0.00  0.00    +0.158 C 
BRANCH   3   2
ATOM      1  C   UNL     1      -0.163   0.597  24.257  0.00  0.00    +0.174 C 
ATOM      2  O   UNL     1      -0.708   0.885  23.709  0.00  0.00    -0.350 OA
ENDBRANCH   3   2
ENDBRANCH   4   3
ENDBRANCH   9   8
BRANCH  12  13
ATOM     13  C   UNL     1      -2.483   3.945  25.893  0.00  0.00    +0.214 C 
ATOM     14  O   UNL     1      -3.021   4.148  26.485  0.00  0.00    -0.218 OA
ENDBRANCH  12  13
BRANCH  16  17
ATOM     17  C   UNL     1      -3.656   1.553  24.738  0.00  0.00    +0.146 C 
BRANCH  17  18
ATOM     18  N   UNL     1      -4.441   1.547  24.992  0.00  0.00    -0.199 NA
ATOM     19  C   UNL     1      -4.828   0.829  25.117  0.00  0.00    +0.265 C 
ATOM     20  O   UNL     1      -5.613   0.822  25.371  0.00  0.00    -0.268 OA
BRANCH  19  21
ATOM     21  C   UNL     1      -4.430   0.117  24.989  0.00  0.00    +0.055 A 
ATOM     22  C   UNL     1      -3.947  -0.197  25.579  0.00  0.00    +0.005 A 
ATOM     23  C   UNL     1      -3.548  -0.909  25.451  0.00  0.00    +0.004 A 
ATOM     24  C   UNL     1      -3.633  -1.305  24.733  0.00  0.00    +0.071 A 
ATOM     25  C   UNL     1      -4.116  -0.990  24.142  0.00  0.00    +0.004 A 
ATOM     26  C   UNL     1      -4.514  -0.279  24.271  0.00  0.00    +0.005 A 
BRANCH  24  27
ATOM     27  C   UNL     1      -3.235  -2.016  24.604  0.00  0.00    +0.419 C 
ATOM     28  F   UNL     1      -2.837  -2.726  24.474  0.00  0.00    -0.166 F 
ATOM     29  F   UNL     1      -3.824  -2.420  25.014  0.00  0.00    -0.166 F 
ATOM     30  F   UNL     1      -2.645  -1.610  24.193  0.00  0.00    -0.166 F 
ENDBRANCH  24  27
ENDBRANCH  19  21
ENDBRANCH  17  18
ENDBRANCH  16  17
TORSDOF 8
ENDMDL
MODEL 3
REMARK VINA RESULT:     -10.7      2.653      4.282
REMARK  Name = 
REMARK  8 active torsions:
REMARK  status: ('A' for Active; 'I' for Inactive)
REMARK    1  A    between atoms: O_2  and  C_3
REMARK    2  A    between atoms: C_3  and  C_4
REMARK    3  A    between atoms: N_8  and  C_9
REMARK    4  A    between atoms: C_12  and  C_13
REMARK    5  A    between atoms: C_16  and  C_17
REMARK    6  A    between atoms: C_17  and  N_18
REMARK    7  A    between atoms: C_19  and  C_21
REMARK    8  A    between atoms: C_24  and  C_27
REMARK                            x       y       z     vdW  Elec       q    Type
REMARK                         _______ _______ _______ _____ _____    ______ ____
ROOT
ATOM      9  C   UNL     1      -1.495   1.812  24.729  0.00  0.00    +0.120 C 
ATOM     10  C   UNL     1      -1.225   2.494  25.105  0.00  0.00    +0.198 C 
ATOM     11  O   UNL     1      -1.344   3.269  24.849  0.00  0.00    -0.219 OA
ATOM     12  C   UNL     1      -0.815   2.266  25.783  0.00  0.00    +0.180 C 
ATOM     15  O   UNL     1      -0.831   1.443  25.827  0.00  0.00    -0.350 OA
ATOM     16  C   UNL     1      -1.252   1.162  25.175  0.00  0.00    +0.154 C 
ENDROOT
BRANCH   9   8
ATOM      4  C   UNL     1      -2.745   1.908  23.961  0.00  0.00    +0.087 C 
ATOM      5  C   UNL     1      -2.948   1.828  23.165  0.00  0.00    +0.020 C 
ATOM      6  C   UNL     1      -2.261   1.655  22.742  0.00  0.00    +0.019 C 
ATOM      7  C   UNL     1      -1.633   1.628  23.277  0.00  0.00    +0.072 C 
ATOM      8  N   UNL     1      -1.932   1.784  24.030  0.00  0.00    -0.269 NA
BRANCH   4   3
ATOM      3  C   UNL     1      -3.263   2.081  24.579  0.00  0.00    +0.158 C 
BRANCH   3   2
ATOM      1  C   UNL     1      -4.599   2.219  25.068  0.00  0.00    +0.174 C 
ATOM      2  O   UNL     1      -4.076   2.100  24.441  0.00  0.00    -0.350 OA
ENDBRANCH   3   2
ENDBRANCH   4   3
ENDBRANCH   9   8
BRANCH  12  13
ATOM     13  C   UNL     1      -0.451   2.772  26.324  0.00  0.00    +0.214 C 
ATOM     14  O   UNL     1       0.227   2.529  26.726  0.00  0.00    -0.218 OA
ENDBRANCH  12  13
BRANCH  16  17
ATOM     17  C   UNL     1      -1.402   0.370  24.999  0.00  0.00    +0.146 C 
BRANCH  17  18
ATOM     18  N   UNL     1      -0.879  -0.215  25.256  0.00  0.00    -0.199 NA
ATOM     19  C   UNL     1      -1.119  -1.005  25.267  0.00  0.00    +0.265 C 
ATOM     20  O   UNL     1      -0.597  -1.591  25.522  0.00  0.00    -0.268 OA
BRANCH  19  21
ATOM     21  C   UNL     1      -1.880  -1.210  25.022  0.00  0.00    +0.055 A 
ATOM     22  C   UNL     1      -2.516  -1.127  25.540  0.00  0.00    +0.005 A 
ATOM     23  C   UNL     1      -3.277  -1.332  25.295  0.00  0.00    +0.004 A 
ATOM     24  C   UNL     1      -3.401  -1.618  24.531  0.00  0.00    +0.071 A 
ATOM     25  C   UNL     1      -2.765  -1.700  24.012  0.00  0.00    +0.004 A 
ATOM     26  C   UNL     1      -2.004  -1.496  24.258  0.00  0.00    +0.005 A 
BRANCH  24  27
ATOM     27  C   UNL     1      -4.162  -1.822  24.285  0.00  0.00    +0.419 C 
ATOM     28  F   UNL     1      -4.922  -2.025  24.039  0.00  0.00    -0.166 F 
ATOM     29  F   UNL     1      -4.025  -2.603  24.509  0.00  0.00    -0.166 F 
ATOM     30  F   UNL     1      -4.299  -1.039  24.062  0.00  0.00    -0.166 F 
ENDBRANCH  24  27
ENDBRANCH  19  21
ENDBRANCH  17  18
ENDBRANCH  16  17
TORSDOF 8
ENDMDL
MODEL 4
REMARK VINA RESULT:     -10.7      2.418      4.197
REMARK  Name = 
REMARK  8 active torsions:
REMARK  status: ('A' for Active; 'I' for Inactive)
REMARK    1  A    between atoms: O_2  and  C_3
REMARK    2  A    between atoms: C_3  and  C_4
REMARK    3  A    between atoms: N_8  and  C_9
REMARK    4  A    between atoms: C_12  and  C_13
REMARK    5  A    between atoms: C_16  and  C_17
REMARK    6  A    between atoms: C_17  and  N_18
REMARK    7  A    between atoms: C_19  and  C_21
REMARK    8  A    between atoms: C_24  and  C_27
REMARK                            x       y       z     vdW  Elec       q    Type
REMARK                         _______ _______ _______ _____ _____    ______ ____
ROOT
ATOM      9  C   UNL     1      -3.794   1.948  24.344  0.00  0.00    +0.120 C 
ATOM     10  C   UNL     1      -4.268   2.569  24.609  0.00  0.00    +0.198 C 
ATOM     11  O   UNL     1      -4.156   3.370  24.444  0.00  0.00    -0.219 OA
ATOM     12  C   UNL     1      -4.873   2.249  25.069  0.00  0.00    +0.180 C 
ATOM     15  O   UNL     1      -4.774   1.431  25.088  0.00  0.00    -0.350 OA
ATOM     16  C   UNL     1      -4.107   1.245  24.640  0.00  0.00    +0.154 C 
ENDROOT
BRANCH   9   8
ATOM      4  C   UNL     1      -2.364   2.206  24.123  0.00  0.00    +0.087 C 
ATOM      5  C   UNL     1      -1.867   2.217  23.464  0.00  0.00    +0.020 C 
ATOM      6  C   UNL     1      -2.322   2.036  22.800  0.00  0.00    +0.019 C 
ATOM      7  C   UNL     1      -3.099   1.913  23.048  0.00  0.00    +0.072 C 
ATOM      8  N   UNL     1      -3.124   2.019  23.867  0.00  0.00    -0.269 NA
BRANCH   4   3
ATOM      3  C   UNL     1      -2.138   2.357  24.903  0.00  0.00    +0.158 C 
BRANCH   3   2
ATOM      1  C   UNL     1      -1.114   2.632  25.860  0.00  0.00    +0.174 C 
ATOM      2  O   UNL     1      -1.338   2.432  25.093  0.00  0.00    -0.350 OA
ENDBRANCH   3   2
ENDBRANCH   4   3
ENDBRANCH   9   8
BRANCH  12  13
ATOM     13  C   UNL     1      -5.473   2.673  25.444  0.00  0.00    +0.214 C 
ATOM     14  O   UNL     1      -5.861   2.350  26.096  0.00  0.00    -0.218 OA
ENDBRANCH  12  13
BRANCH  16  17
ATOM     17  C   UNL     1      -3.805   0.488  24.511  0.00  0.00    +0.146 C 
BRANCH  17  18
ATOM     18  N   UNL     1      -4.320  -0.144  24.378  0.00  0.00    -0.199 NA
ATOM     19  C   UNL     1      -4.056  -0.919  24.478  0.00  0.00    +0.265 C 
ATOM     20  O   UNL     1      -4.570  -1.550  24.346  0.00  0.00    -0.268 OA
BRANCH  19  21
ATOM     21  C   UNL     1      -3.277  -1.063  24.712  0.00  0.00    +0.055 A 
ATOM     22  C   UNL     1      -3.070  -1.016  25.508  0.00  0.00    +0.005 A 
ATOM     23  C   UNL     1      -2.291  -1.159  25.742  0.00  0.00    +0.004 A 
ATOM     24  C   UNL     1      -1.721  -1.350  25.177  0.00  0.00    +0.071 A 
ATOM     25  C   UNL     1      -1.928  -1.397  24.380  0.00  0.00    +0.004 A 
ATOM     26  C   UNL     1      -2.707  -1.254  24.148  0.00  0.00    +0.005 A 
BRANCH  24  27
ATOM     27  C   UNL     1      -0.942  -1.494  25.410  0.00  0.00    +0.419 C 
ATOM     28  F   UNL     1      -0.164  -1.636  25.642  0.00  0.00    -0.166 F 
ATOM     29  F   UNL     1      -1.034  -2.292  25.225  0.00  0.00    -0.166 F 
ATOM     30  F   UNL     1      -0.851  -0.695  25.595  0.00  0.00    -0.166 F 
ENDBRANCH  24  27
ENDBRANCH  19  21
ENDBRANCH  17  18
ENDBRANCH  16  17
TORSDOF 8
ENDMDL
MODEL 5
REMARK VINA RESULT:     -10.5      1.131      2.374
REMARK  Name = 
REMARK  8 active torsions:
REMARK  status: ('A' for Active; 'I' for Inactive)
REMARK    1  A    between atoms: O_2  and  C_3
REMARK    2  A    between atoms: C_3  and  C_4
REMARK    3  A    between atoms: N_8  and  C_9
REMARK    4  A    between atoms: C_12  and  C_13
REMARK    5  A    between atoms: C_16  and  C_17
REMARK    6  A    between atoms: C_17  and  N_18
REMARK    7  A    between atoms: C_19  and  C_21
REMARK    8  A    between atoms: C_24  and  C_27
REMARK                            x       y       z     vdW  Elec       q    Type
REMARK                         _______ _______ _______ _____ _____    ______ ____
ROOT
ATOM      9  C   UNL     1      -3.214   0.943  24.171  0.00  0.00    +0.120 C 
ATOM     10  C   UNL     1      -3.341   0.137  24.296  0.00  0.00    +0.198 C 
ATOM     11  O   UNL     1      -3.098  -0.475  23.799  0.00  0.00    -0.219 OA
ATOM     12  C   UNL     1      -3.753   0.052  25.006  0.00  0.00    +0.180 C 
ATOM     15  O   UNL     1      -3.880   0.803  25.319  0.00  0.00    -0.350 OA
ATOM     16  C   UNL     1      -3.547   1.354  24.803  0.00  0.00    +0.154 C 
ENDROOT
BRANCH   9   8
ATOM      4  C   UNL     1      -2.005   1.336  23.434  0.00  0.00    +0.087 C 
ATOM      5  C   UNL     1      -1.856   1.707  22.711  0.00  0.00    +0.020 C 
ATOM      6  C   UNL     1      -2.582   1.878  22.359  0.00  0.00    +0.019 C 
ATOM      7  C   UNL     1      -3.179   1.613  22.862  0.00  0.00    +0.072 C 
ATOM      8  N   UNL     1      -2.822   1.277  23.527  0.00  0.00    -0.269 NA
BRANCH   4   3
ATOM      3  C   UNL     1      -1.435   1.070  23.968  0.00  0.00    +0.158 C 
BRANCH   3   2
ATOM      1  C   UNL     1      -0.078   1.049  24.416  0.00  0.00    +0.174 C 
ATOM      2  O   UNL     1      -0.639   1.251  23.847  0.00  0.00    -0.350 OA
ENDBRANCH   3   2
ENDBRANCH   4   3
ENDBRANCH   9   8
BRANCH  12  13
ATOM     13  C   UNL     1      -3.995  -0.661  25.343  0.00  0.00    +0.214 C 
ATOM     14  O   UNL     1      -3.653  -0.921  26.048  0.00  0.00    -0.218 OA
ENDBRANCH  12  13
BRANCH  16  17
ATOM     17  C   UNL     1      -3.548   2.174  24.902  0.00  0.00    +0.146 C 
BRANCH  17  18
ATOM     18  N   UNL     1      -4.177   2.541  25.290  0.00  0.00    -0.199 NA
ATOM     19  C   UNL     1      -4.092   3.312  25.573  0.00  0.00    +0.265 C 
ATOM     20  O   UNL     1      -4.720   3.680  25.961  0.00  0.00    -0.268 OA
BRANCH  19  21
ATOM     21  C   UNL     1      -3.379   3.714  25.468  0.00  0.00    +0.055 A 
ATOM     22  C   UNL     1      -2.761   3.604  26.002  0.00  0.00    +0.005 A 
ATOM     23  C   UNL     1      -2.048   4.006  25.897  0.00  0.00    +0.004 A 
ATOM     24  C   UNL     1      -1.954   4.519  25.258  0.00  0.00    +0.071 A 
ATOM     25  C   UNL     1      -2.574   4.630  24.724  0.00  0.00    +0.004 A 
ATOM     26  C   UNL     1      -3.286   4.227  24.829  0.00  0.00    +0.005 A 
BRANCH  24  27
ATOM     27  C   UNL     1      -1.242   4.921  25.153  0.00  0.00    +0.419 C 
ATOM     28  F   UNL     1      -0.529   5.322  25.047  0.00  0.00    -0.166 F 
ATOM     29  F   UNL     1      -1.595   5.617  25.418  0.00  0.00    -0.166 F 
ATOM     30  F   UNL     1      -0.889   4.224  24.887  0.00  0.00    -0.166 F 
ENDBRANCH  24  27
ENDBRANCH  19  21
ENDBRANCH  17  18
ENDBRANCH  16  17
TORSDOF 8
ENDMDL
MODEL 6
REMARK VINA RESULT:     -10.3      2.975      5.137
REMARK  Name = 
REMARK  8 active torsions:
REMARK  status: ('A' for Active; 'I' for Inactive)
REMARK    1  A    between atoms: O_2  and  C_3
REMARK    2  A    between atoms: C_3  and  C_4
REMARK    3  A    between atoms: N_8  and  C_9
REMARK    4  A    between atoms: C_12  and  C_13
REMARK    5  A    between atoms: C_16  and  C_17
REMARK    6  A    between atoms: C_17  and  N_18
REMARK    7  A    between atoms: C_19  and  C_21
REMARK    8  A    between atoms: C_24  and  C_27
REMARK                            x       y       z     vdW  Elec       q    Type
REMARK                         _______ _______ _______ _____ _____    ______ ____
ROOT
ATOM      9  C   UNL     1      -1.993   1.690  23.988  0.00  0.00    +0.120 C 
ATOM     10  C   UNL     1      -1.803   2.157  23.336  0.00  0.00    +0.198 C 
ATOM     11  O   UNL     1      -1.104   2.581  23.230  0.00  0.00    -0.219 OA
ATOM     12  C   UNL     1      -2.436   2.126  22.808  0.00  0.00    +0.180 C 
ATOM     15  O   UNL     1      -3.017   1.640  23.133  0.00  0.00    -0.350 OA
ATOM     16  C   UNL     1      -2.743   1.370  23.863  0.00  0.00    +0.154 C 
ENDROOT
BRANCH   9   8
ATOM      4  C   UNL     1      -0.931   0.987  24.723  0.00  0.00    +0.087 C 
ATOM      5  C   UNL     1      -0.594   1.060  25.473  0.00  0.00    +0.020 C 
ATOM      6  C   UNL     1      -0.971   1.682  25.863  0.00  0.00    +0.019 C 
ATOM      7  C   UNL     1      -1.541   1.993  25.355  0.00  0.00    +0.072 C 
ATOM      8  N   UNL     1      -1.516   1.564  24.650  0.00  0.00    -0.269 NA
BRANCH   4   3
ATOM      3  C   UNL     1      -0.720   0.435  24.148  0.00  0.00    +0.158 C 
BRANCH   3   2
ATOM      1  C   UNL     1       0.047  -0.704  23.752  0.00  0.00    +0.174 C 
ATOM      2  O   UNL     1      -0.199  -0.177  24.336  0.00  0.00    -0.350 OA
ENDBRANCH   3   2
ENDBRANCH   4   3
ENDBRANCH   9   8
BRANCH  12  13
ATOM     13  C   UNL     1      -2.481   2.514  22.081  0.00  0.00    +0.214 C 
ATOM     14  O   UNL     1      -2.708   2.100  21.405  0.00  0.00    -0.218 OA
ENDBRANCH  12  13
BRANCH  16  17
ATOM     17  C   UNL     1      -3.148   0.868  24.378  0.00  0.00    +0.146 C 
BRANCH  17  18
ATOM     18  N   UNL     1      -3.936   1.024  24.570  0.00  0.00    -0.199 NA
ATOM     19  C   UNL     1      -4.435   0.407  24.797  0.00  0.00    +0.265 C 
ATOM     20  O   UNL     1      -5.221   0.561  24.989  0.00  0.00    -0.268 OA
BRANCH  19  21
ATOM     21  C   UNL     1      -4.145  -0.366  24.832  0.00  0.00    +0.055 A 
ATOM     22  C   UNL     1      -4.147  -0.838  24.157  0.00  0.00    +0.005 A 
ATOM     23  C   UNL     1      -3.858  -1.610  24.192  0.00  0.00    +0.004 A 
ATOM     24  C   UNL     1      -3.567  -1.909  24.903  0.00  0.00    +0.071 A 
ATOM     25  C   UNL     1      -3.565  -1.436  25.580  0.00  0.00    +0.004 A 
ATOM     26  C   UNL     1      -3.854  -0.665  25.544  0.00  0.00    +0.005 A 
BRANCH  24  27
ATOM     27  C   UNL     1      -3.278  -2.681  24.939  0.00  0.00    +0.419 C 
ATOM     28  F   UNL     1      -2.987  -3.452  24.975  0.00  0.00    -0.166 F 
ATOM     29  F   UNL     1      -4.028  -2.971  24.761  0.00  0.00    -0.166 F 
ATOM     30  F   UNL     1      -2.526  -2.390  25.118  0.00  0.00    -0.166 F 
ENDBRANCH  24  27
ENDBRANCH  19  21
ENDBRANCH  17  18
ENDBRANCH  16  17
TORSDOF 8
ENDMDL
MODEL 7
REMARK VINA RESULT:     -10.1      1.610      2.781
REMARK  Name = 
REMARK  8 active torsions:
REMARK  status: ('A' for Active; 'I' for Inactive)
REMARK    1  A    between atoms: O_2  and  C_3
REMARK    2  A    between atoms: C_3  and  C_4
REMARK    3  A    between atoms: N_8  and  C_9
REMARK    4  A    between atoms: C_12  and  C_13
REMARK    5  A    between atoms: C_16  and  C_17
REMARK    6  A    between atoms: C_17  and  N_18
REMARK    7  A    between atoms: C_19  and  C_21
REMARK    8  A    between atoms: C_24  and  C_27
REMARK                            x       y       z     vdW  Elec       q    Type
REMARK                         _______ _______ _______ _____ _____    ______ ____
ROOT
ATOM      9  C   UNL     1      -4.160   2.475  24.545  0.00  0.00    +0.120 C 
ATOM     10  C   UNL     1      -4.942   2.311  24.751  0.00  0.00    +0.198 C 
ATOM     11  O   UNL     1      -5.441   1.774  24.374  0.00  0.00    -0.219 OA
ATOM     12  C   UNL     1      -5.137   2.781  25.401  0.00  0.00    +0.180 C 
ATOM     15  O   UNL     1      -4.477   3.234  25.596  0.00  0.00    -0.350 OA
ATOM     16  C   UNL     1      -3.873   3.044  25.067  0.00  0.00    +0.154 C 
ENDROOT
BRANCH   9   8
ATOM      4  C   UNL     1      -3.375   1.389  23.940  0.00  0.00    +0.087 C 
ATOM      5  C   UNL     1      -3.020   1.265  23.206  0.00  0.00    +0.020 C 
ATOM      6  C   UNL     1      -3.166   1.927  22.736  0.00  0.00    +0.019 C 
ATOM      7  C   UNL     1      -3.611   2.461  23.181  0.00  0.00    +0.072 C 
ATOM      8  N   UNL     1      -3.740   2.128  23.925  0.00  0.00    -0.269 NA
BRANCH   4   3
ATOM      3  C   UNL     1      -3.365   0.866  24.578  0.00  0.00    +0.158 C 
BRANCH   3   2
ATOM      1  C   UNL     1      -2.842  -0.306  25.207  0.00  0.00    +0.174 C 
ATOM      2  O   UNL     1      -2.882   0.197  24.556  0.00  0.00    -0.350 OA
ENDBRANCH   3   2
ENDBRANCH   4   3
ENDBRANCH   9   8
BRANCH  12  13
ATOM     13  C   UNL     1      -5.866   2.794  25.788  0.00  0.00    +0.214 C 
ATOM     14  O   UNL     1      -5.895   2.821  26.612  0.00  0.00    -0.218 OA
ENDBRANCH  12  13
BRANCH  16  17
ATOM     17  C   UNL     1      -3.114   3.369  25.061  0.00  0.00    +0.146 C 
BRANCH  17  18
ATOM     18  N   UNL     1      -2.999   4.153  25.291  0.00  0.00    -0.199 NA
ATOM     19  C   UNL     1      -2.246   4.414  25.505  0.00  0.00    +0.265 C 
ATOM     20  O   UNL     1      -2.130   5.198  25.735  0.00  0.00    -0.268 OA
BRANCH  19  21
ATOM     21  C   UNL     1      -1.607   3.891  25.488  0.00  0.00    +0.055 A 
ATOM     22  C   UNL     1      -1.490   3.364  26.111  0.00  0.00    +0.005 A 
ATOM     23  C   UNL     1      -0.852   2.841  26.095  0.00  0.00    +0.004 A 
ATOM     24  C   UNL     1      -0.332   2.845  25.454  0.00  0.00    +0.071 A 
ATOM     25  C   UNL     1      -0.450   3.372  24.830  0.00  0.00    +0.004 A 
ATOM     26  C   UNL     1      -1.088   3.895  24.848  0.00  0.00    +0.005 A 
BRANCH  24  27
ATOM     27  C   UNL     1       0.306   2.322  25.437  0.00  0.00    +0.419 C 
ATOM     28  F   UNL     1       0.943   1.799  25.418  0.00  0.00    -0.166 F 
ATOM     29  F   UNL     1       0.591   2.646  26.139  0.00  0.00    -0.166 F 
ATOM     30  F   UNL     1       0.020   1.998  24.734  0.00  0.00    -0.166 F 
ENDBRANCH  24  27
ENDBRANCH  19  21
ENDBRANCH  17  18
ENDBRANCH  16  17
TORSDOF 8
ENDMDL
MODEL 8
REMARK VINA RESULT:     -10.0      2.772      4.703
REMARK  Name = 
REMARK  8 active torsions:
REMARK  status: ('A' for Active; 'I' for Inactive)
REMARK    1  A    between atoms: O_2  and  C_3
REMARK    2  A    between atoms: C_3  and  C_4
REMARK    3  A    between atoms: N_8  and  C_9
REMARK    4  A    between atoms: C_12  and  C_13
REMARK    5  A    between atoms: C_16  and  C_17
REMARK    6  A    between atoms: C_17  and  N_18
REMARK    7  A    between atoms: C_19  and  C_21
REMARK    8  A    between atoms: C_24  and  C_27
REMARK                            x       y       z     vdW  Elec       q    Type
REMARK                         _______ _______ _______ _____ _____    ______ ____
ROOT
ATOM      9  C   UNL     1      -0.243   0.666  24.251  0.00  0.00    +0.120 C 
ATOM     10  C   UNL     1       0.409   0.851  23.780  0.00  0.00    +0.198 C 
ATOM     11  O   UNL     1       0.731   1.602  23.672  0.00  0.00    -0.219 OA
ATOM     12  C   UNL     1       0.680   0.152  23.436  0.00  0.00    +0.180 C 
ATOM     15  O   UNL     1       0.198  -0.464  23.694  0.00  0.00    -0.350 OA
ATOM     16  C   UNL     1      -0.373  -0.146  24.198  0.00  0.00    +0.154 C 
ENDROOT
BRANCH   9   8
ATOM      4  C   UNL     1      -1.301   1.673  24.417  0.00  0.00    +0.087 C 
ATOM      5  C   UNL     1      -1.587   2.121  25.048  0.00  0.00    +0.020 C 
ATOM      6  C   UNL     1      -1.147   1.926  25.719  0.00  0.00    +0.019 C 
ATOM      7  C   UNL     1      -0.590   1.357  25.502  0.00  0.00    +0.072 C 
ATOM      8  N   UNL     1      -0.686   1.201  24.697  0.00  0.00    -0.269 NA
BRANCH   4   3
ATOM      3  C   UNL     1      -1.582   1.694  23.641  0.00  0.00    +0.158 C 
BRANCH   3   2
ATOM      1  C   UNL     1      -2.607   2.051  22.712  0.00  0.00    +0.174 C 
ATOM      2  O   UNL     1      -2.277   2.102  23.466  0.00  0.00    -0.350 OA
ENDBRANCH   3   2
ENDBRANCH   4   3
ENDBRANCH   9   8
BRANCH  12  13
ATOM     13  C   UNL     1       1.323   0.082  22.923  0.00  0.00    +0.214 C 
ATOM     14  O   UNL     1       1.243  -0.338  22.218  0.00  0.00    -0.218 OA
ENDBRANCH  12  13
BRANCH  16  17
ATOM     17  C   UNL     1      -0.970  -0.568  24.582  0.00  0.00    +0.146 C 
BRANCH  17  18
ATOM     18  N   UNL     1      -0.818  -1.326  24.872  0.00  0.00    -0.199 NA
ATOM     19  C   UNL     1      -1.442  -1.849  25.005  0.00  0.00    +0.265 C 
ATOM     20  O   UNL     1      -1.291  -2.606  25.294  0.00  0.00    -0.268 OA
BRANCH  19  21
ATOM     21  C   UNL     1      -2.218  -1.614  24.848  0.00  0.00    +0.055 A 
ATOM     22  C   UNL     1      -2.526  -1.689  24.087  0.00  0.00    +0.005 A 
ATOM     23  C   UNL     1      -3.302  -1.454  23.931  0.00  0.00    +0.004 A 
ATOM     24  C   UNL     1      -3.768  -1.144  24.536  0.00  0.00    +0.071 A 
ATOM     25  C   UNL     1      -3.460  -1.068  25.298  0.00  0.00    +0.004 A 
ATOM     26  C   UNL     1      -2.685  -1.303  25.453  0.00  0.00    +0.005 A 
BRANCH  24  27
ATOM     27  C   UNL     1      -4.544  -0.909  24.380  0.00  0.00    +0.419 C 
ATOM     28  F   UNL     1      -5.318  -0.672  24.225  0.00  0.00    -0.166 F 
ATOM     29  F   UNL     1      -4.715  -1.663  24.095  0.00  0.00    -0.166 F 
ATOM     30  F   UNL     1      -4.371  -0.154  24.666  0.00  0.00    -0.166 F 
ENDBRANCH  24  27
ENDBRANCH  19  21
ENDBRANCH  17  18
ENDBRANCH  16  17
TORSDOF 8
ENDMDL
