MODEL 1
REMARK VINA RESULT:     -12.2      0.000      0.000
REMARK  Name = 
REMARK  5 active torsions:
REMARK  status: ('A' for Active; 'I' for Inactive)
REMARK    1  A    between atoms: C_5  and  C_6
REMARK    2  A    between atoms: C_6  and  N_7
REMARK    3  A    between atoms: C_17  and  C_19
REMARK    4  A    between atoms: C_19  and  O_20
REMARK    5  A    between atoms: O_20  and  C_21
REMARK                            x       y       z     vdW  Elec       q    Type
REMARK                         _______ _______ _______ _____ _____    ______ ____
ROOT
ATOM      7  N   UNL     1      -4.807   3.048  25.076  0.00  0.00    -0.271 N 
ATOM      8  C   UNL     1      -4.648   2.256  24.909  0.00  0.00    +0.124 C 
ATOM      9  C   UNL     1      -4.100   1.895  24.408  0.00  0.00    +0.116 C 
ATOM     10  N   UNL     1      -4.198   1.078  24.469  0.00  0.00    -0.272 N 
ATOM     11  C   UNL     1      -4.807   0.934  25.007  0.00  0.00    +0.125 C 
ATOM     12  C   UNL     1      -5.085   1.662  25.279  0.00  0.00    +0.155 C 
ATOM     13  O   UNL     1      -5.680   1.860  25.816  0.00  0.00    -0.343 OA
ATOM     14  C   UNL     1      -5.837   2.652  25.983  0.00  0.00    +0.227 C 
ATOM     15  C   UNL     1      -5.401   3.246  25.612  0.00  0.00    +0.256 C 
ATOM     16  O   UNL     1      -5.559   4.038  25.779  0.00  0.00    -0.272 OA
ATOM     17  C   UNL     1      -3.764   0.507  24.063  0.00  0.00    +0.270 C 
ATOM     18  O   UNL     1      -3.169   0.735  23.539  0.00  0.00    -0.271 OA
ENDROOT
BRANCH   7   6
ATOM      6  C   UNL     1      -4.370   3.643  24.705  0.00  0.00    +0.120 C 
BRANCH   6   5
ATOM      1  F   UNL     1      -1.461   4.574  25.952  0.00  0.00    -0.204 F 
ATOM      2  C   UNL     1      -2.189   4.342  25.641  0.00  0.00    +0.140 A 
ATOM      3  C   UNL     1      -2.265   4.204  24.831  0.00  0.00    +0.029 A 
ATOM      4  C   UNL     1      -2.992   3.971  24.519  0.00  0.00    -0.000 A 
ATOM      5  C   UNL     1      -3.643   3.876  25.017  0.00  0.00    -0.002 A 
ATOM     27  C   UNL     1      -3.567   4.013  25.826  0.00  0.00    -0.000 A 
ATOM     28  C   UNL     1      -2.839   4.246  26.139  0.00  0.00    +0.029 A 
ENDBRANCH   6   5
ENDBRANCH   7   6
BRANCH  17  19
ATOM     19  C   UNL     1      -3.925  -0.294  24.181  0.00  0.00    +0.290 C 
BRANCH  19  20
ATOM     20  O   UNL     1      -3.391  -0.865  23.916  0.00  0.00    -0.466 OA
BRANCH  20  21
ATOM     21  C   UNL     1      -3.489  -1.654  24.137  0.00  0.00    +0.139 A 
ATOM     22  C   UNL     1      -2.994  -1.987  24.707  0.00  0.00    +0.037 A 
ATOM     23  C   UNL     1      -3.092  -2.776  24.928  0.00  0.00    +0.003 A 
ATOM     24  C   UNL     1      -3.684  -3.231  24.578  0.00  0.00    +0.000 A 
ATOM     25  C   UNL     1      -4.179  -2.898  24.008  0.00  0.00    +0.003 A 
ATOM     26  C   UNL     1      -4.081  -2.110  23.788  0.00  0.00    +0.037 A 
ENDBRANCH  20  21
ENDBRANCH  19  20
ENDBRANCH  17  19
TORSDOF 5
ENDMDL
MODEL 2
REMARK VINA RESULT:     -12.1      2.581      5.949
REMARK  Name = 
REMARK  5 active torsions:
REMARK  status: ('A' for Active; 'I' for Inactive)
REMARK    1  A    between atoms: C_5  and  C_6
REMARK    2  A    between atoms: C_6  and  N_7
REMARK    3  A    between atoms: C_17  and  C_19
REMARK    4  A    between atoms: C_19  and  O_20
REMARK    5  A    between atoms: O_20  and  C_21
REMARK                            x       y       z     vdW  Elec       q    Type
REMARK                         _______ _______ _______ _____ _____    ______ ____
ROOT
ATOM      7  N   UNL     1      -1.963  -1.043  25.185  0.00  0.00    -0.271 N 
ATOM      8  C   UNL     1      -1.893  -0.225  25.100  0.00  0.00    +0.124 C 
ATOM      9  C   UNL     1      -2.425   0.392  25.233  0.00  0.00    +0.116 C 
ATOM     10  N   UNL     1      -2.044   1.100  25.051  0.00  0.00    -0.272 N 
ATOM     11  C   UNL     1      -1.276   0.921  24.806  0.00  0.00    +0.125 C 
ATOM     12  C   UNL     1      -1.183   0.102  24.836  0.00  0.00    +0.155 C 
ATOM     13  O   UNL     1      -0.543  -0.389  24.658  0.00  0.00    -0.343 OA
ATOM     14  C   UNL     1      -0.615  -1.206  24.743  0.00  0.00    +0.227 C 
ATOM     15  C   UNL     1      -1.325  -1.533  25.007  0.00  0.00    +0.256 C 
ATOM     16  O   UNL     1      -1.395  -2.350  25.093  0.00  0.00    -0.272 OA
ATOM     17  C   UNL     1      -2.372   1.855  25.105  0.00  0.00    +0.270 C 
ATOM     18  O   UNL     1      -3.150   1.949  25.360  0.00  0.00    -0.271 OA
ENDROOT
BRANCH   7   6
ATOM      6  C   UNL     1      -2.674  -1.371  25.450  0.00  0.00    +0.120 C 
BRANCH   6   5
ATOM      1  F   UNL     1      -4.746  -2.769  23.296  0.00  0.00    -0.204 F 
ATOM      2  C   UNL     1      -4.228  -2.419  23.834  0.00  0.00    +0.140 A 
ATOM      3  C   UNL     1      -3.701  -2.888  24.264  0.00  0.00    +0.029 A 
ATOM      4  C   UNL     1      -3.183  -2.538  24.802  0.00  0.00    -0.000 A 
ATOM      5  C   UNL     1      -3.192  -1.720  24.911  0.00  0.00    -0.002 A 
ATOM     27  C   UNL     1      -3.718  -1.252  24.482  0.00  0.00    -0.000 A 
ATOM     28  C   UNL     1      -4.236  -1.601  23.944  0.00  0.00    +0.029 A 
ENDBRANCH   6   5
ENDBRANCH   7   6
BRANCH  17  19
ATOM     19  C   UNL     1      -1.921   2.516  24.903  0.00  0.00    +0.290 C 
BRANCH  19  20
ATOM     20  O   UNL     1      -2.261   3.267  24.918  0.00  0.00    -0.466 OA
BRANCH  20  21
ATOM     21  C   UNL     1      -1.780   3.937  24.920  0.00  0.00    +0.139 A 
ATOM     22  C   UNL     1      -2.074   4.654  25.203  0.00  0.00    +0.037 A 
ATOM     23  C   UNL     1      -1.594   5.326  25.206  0.00  0.00    +0.003 A 
ATOM     24  C   UNL     1      -0.819   5.278  24.926  0.00  0.00    +0.000 A 
ATOM     25  C   UNL     1      -0.525   4.561  24.644  0.00  0.00    +0.003 A 
ATOM     26  C   UNL     1      -1.005   3.891  24.641  0.00  0.00    +0.037 A 
ENDBRANCH  20  21
ENDBRANCH  19  20
ENDBRANCH  17  19
TORSDOF 5
ENDMDL
MODEL 3
REMARK VINA RESULT:     -12.0      2.107      3.067
REMARK  Name = 
REMARK  5 active torsions:
REMARK  status: ('A' for Active; 'I' for Inactive)
REMARK    1  A    between atoms: C_5  and  C_6
REMARK    2  A    between atoms: C_6  and  N_7
REMARK    3  A    between atoms: C_17  and  C_19
REMARK    4  A    between atoms: C_19  and  O_20
REMARK    5  A    between atoms: O_20  and  C_21
REMARK                            x       y       z     vdW  Elec       q    Type
REMARK                         _______ _______ _______ _____ _____    ______ ____
ROOT
ATOM      7  N   UNL     1      -0.705   2.216  25.509  0.00  0.00    -0.271 N 
ATOM      8  C   UNL     1      -1.245   1.644  25.263  0.00  0.00    +0.124 C 
ATOM      9  C   UNL     1      -2.050   1.542  25.414  0.00  0.00    +0.116 C 
ATOM     10  N   UNL     1      -2.301   0.865  25.015  0.00  0.00    -0.272 N 
ATOM     11  C   UNL     1      -1.651   0.548  24.617  0.00  0.00    +0.125 C 
ATOM     12  C   UNL     1      -0.999   1.029  24.770  0.00  0.00    +0.155 C 
ATOM     13  O   UNL     1      -0.212   0.988  24.524  0.00  0.00    -0.343 OA
ATOM     14  C   UNL     1       0.328   1.561  24.772  0.00  0.00    +0.227 C 
ATOM     15  C   UNL     1       0.081   2.175  25.264  0.00  0.00    +0.256 C 
ATOM     16  O   UNL     1       0.621   2.747  25.511  0.00  0.00    -0.272 OA
ATOM     17  C   UNL     1      -3.067   0.558  25.014  0.00  0.00    +0.270 C 
ATOM     18  O   UNL     1      -3.663   0.936  25.440  0.00  0.00    -0.271 OA
ENDROOT
BRANCH   7   6
ATOM      6  C   UNL     1      -0.952   2.831  26.003  0.00  0.00    +0.120 C 
BRANCH   6   5
ATOM      1  F   UNL     1      -1.794   5.747  24.708  0.00  0.00    -0.204 F 
ATOM      2  C   UNL     1      -1.583   5.018  25.032  0.00  0.00    +0.140 A 
ATOM      3  C   UNL     1      -2.132   4.588  25.474  0.00  0.00    +0.029 A 
ATOM      4  C   UNL     1      -1.921   3.860  25.797  0.00  0.00    -0.000 A 
ATOM      5  C   UNL     1      -1.162   3.560  25.679  0.00  0.00    -0.002 A 
ATOM     27  C   UNL     1      -0.614   3.988  25.237  0.00  0.00    -0.000 A 
ATOM     28  C   UNL     1      -0.824   4.718  24.913  0.00  0.00    +0.029 A 
ENDBRANCH   6   5
ENDBRANCH   7   6
BRANCH  17  19
ATOM     19  C   UNL     1      -3.236  -0.128  24.586  0.00  0.00    +0.290 C 
BRANCH  19  20
ATOM     20  O   UNL     1      -3.843  -0.628  24.834  0.00  0.00    -0.466 OA
BRANCH  20  21
ATOM     21  C   UNL     1      -3.869  -1.408  24.567  0.00  0.00    +0.139 A 
ATOM     22  C   UNL     1      -3.508  -2.006  25.006  0.00  0.00    +0.037 A 
ATOM     23  C   UNL     1      -3.533  -2.787  24.739  0.00  0.00    +0.003 A 
ATOM     24  C   UNL     1      -3.920  -2.968  24.033  0.00  0.00    +0.000 A 
ATOM     25  C   UNL     1      -4.281  -2.370  23.594  0.00  0.00    +0.003 A 
ATOM     26  C   UNL     1      -4.255  -1.590  23.861  0.00  0.00    +0.037 A 
ENDBRANCH  20  21
ENDBRANCH  19  20
ENDBRANCH  17  19
TORSDOF 5
ENDMDL
MODEL 4
REMARK VINA RESULT:     -10.6      2.353      5.528
REMARK  Name = 
REMARK  5 active torsions:
REMARK  status: ('A' for Active; 'I' for Inactive)
REMARK    1  A    between atoms: C_5  and  C_6
REMARK    2  A    between atoms: C_6  and  N_7
REMARK    3  A    between atoms: C_17  and  C_19
REMARK    4  A    between atoms: C_19  and  O_20
REMARK    5  A    between atoms: O_20  and  C_21
REMARK                            x       y       z     vdW  Elec       q    Type
REMARK                         _______ _______ _______ _____ _____    ______ ____
ROOT
ATOM      7  N   UNL     1      -3.557  -0.288  25.034  0.00  0.00    -0.271 N 
ATOM      8  C   UNL     1      -3.142   0.424  24.998  0.00  0.00    +0.124 C 
ATOM      9  C   UNL     1      -2.421   0.661  25.325  0.00  0.00    +0.116 C 
ATOM     10  N   UNL     1      -2.284   1.443  25.100  0.00  0.00    -0.272 N 
ATOM     11  C   UNL     1      -2.920   1.690  24.635  0.00  0.00    +0.125 C 
ATOM     12  C   UNL     1      -3.449   1.060  24.572  0.00  0.00    +0.155 C 
ATOM     13  O   UNL     1      -4.173   0.983  24.181  0.00  0.00    -0.343 OA
ATOM     14  C   UNL     1      -4.587   0.271  24.218  0.00  0.00    +0.227 C 
ATOM     15  C   UNL     1      -4.279  -0.365  24.644  0.00  0.00    +0.256 C 
ATOM     16  O   UNL     1      -4.694  -1.076  24.680  0.00  0.00    -0.272 OA
ATOM     17  C   UNL     1      -1.627   1.898  25.305  0.00  0.00    +0.270 C 
ATOM     18  O   UNL     1      -1.033   1.575  25.776  0.00  0.00    -0.271 OA
ENDROOT
BRANCH   7   6
ATOM      6  C   UNL     1      -3.249  -0.924  25.461  0.00  0.00    +0.120 C 
BRANCH   6   5
ATOM      1  F   UNL     1      -1.651  -3.345  23.889  0.00  0.00    -0.204 F 
ATOM      2  C   UNL     1      -2.051  -2.740  24.282  0.00  0.00    +0.140 A 
ATOM      3  C   UNL     1      -1.625  -2.145  24.664  0.00  0.00    +0.029 A 
ATOM      4  C   UNL     1      -2.025  -1.540  25.057  0.00  0.00    -0.000 A 
ATOM      5  C   UNL     1      -2.850  -1.529  25.068  0.00  0.00    -0.002 A 
ATOM     27  C   UNL     1      -3.275  -2.124  24.686  0.00  0.00    -0.000 A 
ATOM     28  C   UNL     1      -2.876  -2.729  24.293  0.00  0.00    +0.029 A 
ENDBRANCH   6   5
ENDBRANCH   7   6
BRANCH  17  19
ATOM     19  C   UNL     1      -1.566   2.676  25.037  0.00  0.00    +0.290 C 
BRANCH  19  20
ATOM     20  O   UNL     1      -1.140   3.230  25.475  0.00  0.00    -0.466 OA
BRANCH  20  21
ATOM     21  C   UNL     1      -1.167   4.028  25.269  0.00  0.00    +0.139 A 
ATOM     22  C   UNL     1      -1.806   4.493  25.504  0.00  0.00    +0.037 A 
ATOM     23  C   UNL     1      -1.834   5.292  25.298  0.00  0.00    +0.003 A 
ATOM     24  C   UNL     1      -1.221   5.624  24.857  0.00  0.00    +0.000 A 
ATOM     25  C   UNL     1      -0.581   5.159  24.622  0.00  0.00    +0.003 A 
ATOM     26  C   UNL     1      -0.554   4.362  24.828  0.00  0.00    +0.037 A 
ENDBRANCH  20  21
ENDBRANCH  19  20
ENDBRANCH  17  19
TORSDOF 5
ENDMDL
MODEL 5
REMARK VINA RESULT:      -9.6      3.917      5.321
REMARK  Name = 
REMARK  5 active torsions:
REMARK  status: ('A' for Active; 'I' for Inactive)
REMARK    1  A    between atoms: C_5  and  C_6
REMARK    2  A    between atoms: C_6  and  N_7
REMARK    3  A    between atoms: C_17  and  C_19
REMARK    4  A    between atoms: C_19  and  O_20
REMARK    5  A    between atoms: O_20  and  C_21
REMARK                            x       y       z     vdW  Elec       q    Type
REMARK                         _______ _______ _______ _____ _____    ______ ____
ROOT
ATOM      7  N   UNL     1      -2.677   0.526  24.670  0.00  0.00    -0.271 N 
ATOM      8  C   UNL     1      -1.915   0.479  24.357  0.00  0.00    +0.124 C 
ATOM      9  C   UNL     1      -1.330  -0.100  24.410  0.00  0.00    +0.116 C 
ATOM     10  N   UNL     1      -0.675   0.157  23.980  0.00  0.00    -0.272 N 
ATOM     11  C   UNL     1      -0.855   0.896  23.659  0.00  0.00    +0.125 C 
ATOM     12  C   UNL     1      -1.621   1.095  23.893  0.00  0.00    +0.155 C 
ATOM     13  O   UNL     1      -2.090   1.758  23.742  0.00  0.00    -0.343 OA
ATOM     14  C   UNL     1      -2.852   1.804  24.056  0.00  0.00    +0.227 C 
ATOM     15  C   UNL     1      -3.145   1.188  24.520  0.00  0.00    +0.256 C 
ATOM     16  O   UNL     1      -3.906   1.235  24.833  0.00  0.00    -0.272 OA
ATOM     17  C   UNL     1       0.035  -0.252  23.886  0.00  0.00    +0.270 C 
ATOM     18  O   UNL     1       0.136  -0.989  24.240  0.00  0.00    -0.271 OA
ENDROOT
BRANCH   7   6
ATOM      6  C   UNL     1      -2.970  -0.090  25.135  0.00  0.00    +0.120 C 
BRANCH   6   5
ATOM      1  F   UNL     1      -4.546  -2.619  23.717  0.00  0.00    -0.204 F 
ATOM      2  C   UNL     1      -4.152  -1.986  24.071  0.00  0.00    +0.140 A 
ATOM      3  C   UNL     1      -3.548  -2.129  24.616  0.00  0.00    +0.029 A 
ATOM      4  C   UNL     1      -3.155  -1.497  24.970  0.00  0.00    -0.000 A 
ATOM      5  C   UNL     1      -3.364  -0.722  24.780  0.00  0.00    -0.002 A 
ATOM     27  C   UNL     1      -3.967  -0.579  24.236  0.00  0.00    -0.000 A 
ATOM     28  C   UNL     1      -4.361  -1.211  23.881  0.00  0.00    +0.029 A 
ENDBRANCH   6   5
ENDBRANCH   7   6
BRANCH  17  19
ATOM     19  C   UNL     1       0.644   0.077  23.436  0.00  0.00    +0.290 C 
BRANCH  19  20
ATOM     20  O   UNL     1       1.298  -0.381  23.230  0.00  0.00    -0.466 OA
BRANCH  20  21
ATOM     21  C   UNL     1       1.959  -0.026  22.889  0.00  0.00    +0.139 A 
ATOM     22  C   UNL     1       2.412   0.508  23.326  0.00  0.00    +0.037 A 
ATOM     23  C   UNL     1       3.074   0.864  22.985  0.00  0.00    +0.003 A 
ATOM     24  C   UNL     1       3.282   0.686  22.207  0.00  0.00    +0.000 A 
ATOM     25  C   UNL     1       2.830   0.152  21.770  0.00  0.00    +0.003 A 
ATOM     26  C   UNL     1       2.169  -0.203  22.111  0.00  0.00    +0.037 A 
ENDBRANCH  20  21
ENDBRANCH  19  20
ENDBRANCH  17  19
TORSDOF 5
ENDMDL
