MODEL 1
REMARK VINA RESULT:     -14.0      0.000      0.000
REMARK  Name = 
REMARK  6 active torsions:
REMARK  status: ('A' for Active; 'I' for Inactive)
REMARK    1  A    between atoms: C_5  and  S_8
REMARK    2  A    between atoms: S_8  and  N_11
REMARK    3  A    between atoms: C_16  and  C_17
REMARK    4  A    between atoms: N_19  and  C_20
REMARK    5  A    between atoms: C_27  and  C_29
REMARK    6  A    between atoms: C_32  and  C_35
REMARK                            x       y       z     vdW  Elec       q    Type
REMARK                         _______ _______ _______ _____ _____    ______ ____
ROOT
ATOM     11  N   UNL     1      -4.142   0.581  24.921  0.00  0.00    -0.145 NA
ATOM     12  C   UNL     1      -4.854   0.891  25.199  0.00  0.00    +0.118 C 
ATOM     13  C   UNL     1      -4.912   1.694  25.378  0.00  0.00    +0.113 C 
ATOM     14  N   UNL     1      -4.257   2.187  25.279  0.00  0.00    -0.273 N 
ATOM     15  C   UNL     1      -3.546   1.876  25.002  0.00  0.00    +0.121 C 
ATOM     16  C   UNL     1      -3.488   1.073  24.823  0.00  0.00    +0.177 C 
ATOM     27  C   UNL     1      -4.315   2.990  25.458  0.00  0.00    +0.249 C 
ATOM     28  O   UNL     1      -5.028   3.301  25.735  0.00  0.00    -0.270 OA
ENDROOT
BRANCH  27  29
ATOM     29  C   UNL     1      -3.661   3.483  25.359  0.00  0.00    +0.054 A 
ATOM     30  C   UNL     1      -3.498   3.809  24.619  0.00  0.00    +0.005 A 
ATOM     31  C   UNL     1      -2.843   4.302  24.522  0.00  0.00    +0.010 A 
ATOM     32  C   UNL     1      -2.353   4.469  25.164  0.00  0.00    +0.068 A 
ATOM     33  C   UNL     1      -2.516   4.142  25.903  0.00  0.00    +0.010 A 
ATOM     34  C   UNL     1      -3.170   3.649  26.002  0.00  0.00    +0.005 A 
BRANCH  32  35
ATOM     35  C   UNL     1      -1.698   4.962  25.066  0.00  0.00    +0.100 C 
ATOM     36  N   UNL     1      -1.043   5.454  24.970  0.00  0.00    -0.191 NA
ENDBRANCH  32  35
ENDBRANCH  27  29
BRANCH  11   8
ATOM      8  S   UNL     1      -4.084  -0.224  24.742  0.00  0.00    +0.064 S 
ATOM      9  O   UNL     1      -4.192  -0.053  23.942  0.00  0.00    -0.153 OA
ATOM     10  O   UNL     1      -3.976  -0.394  25.542  0.00  0.00    -0.153 OA
BRANCH   8   5
ATOM      1  F   UNL     1      -3.853  -3.437  24.027  0.00  0.00    -0.204 F 
ATOM      2  C   UNL     1      -3.911  -2.632  24.206  0.00  0.00    +0.140 A 
ATOM      3  C   UNL     1      -3.692  -2.360  24.953  0.00  0.00    +0.031 A 
ATOM      4  C   UNL     1      -3.749  -1.557  25.132  0.00  0.00    +0.022 A 
ATOM      5  C   UNL     1      -4.026  -1.027  24.563  0.00  0.00    +0.122 A 
ATOM      6  C   UNL     1      -4.245  -1.300  23.817  0.00  0.00    +0.022 A 
ATOM      7  C   UNL     1      -4.188  -2.103  23.638  0.00  0.00    +0.031 A 
ENDBRANCH   8   5
ENDBRANCH  11   8
BRANCH  16  17
ATOM     17  C   UNL     1      -2.775   0.763  24.545  0.00  0.00    +0.260 C 
ATOM     18  O   UNL     1      -2.736   0.432  23.789  0.00  0.00    -0.272 OA
ATOM     19  N   UNL     1      -2.103   0.782  25.022  0.00  0.00    -0.197 NA
BRANCH  19  20
ATOM     20  C   UNL     1      -1.390   0.472  24.744  0.00  0.00    +0.173 C 
ATOM     21  C   UNL     1      -1.179   0.567  23.953  0.00  0.00    +0.033 C 
ATOM     22  C   UNL     1      -0.467   0.257  23.676  0.00  0.00    +0.026 C 
ATOM     23  C   UNL     1       0.035  -0.149  24.192  0.00  0.00    +0.115 C 
ATOM     24  N   UNL     1      -0.177  -0.243  24.983  0.00  0.00    -0.204 NA
ATOM     25  C   UNL     1      -0.889   0.066  25.260  0.00  0.00    +0.261 C 
ATOM     26  O   UNL     1      -1.100  -0.028  26.052  0.00  0.00    -0.271 OA
ENDBRANCH  19  20
ENDBRANCH  16  17
TORSDOF 6
ENDMDL
MODEL 2
REMARK VINA RESULT:     -12.0      2.303      5.410
REMARK  Name = 
REMARK  6 active torsions:
REMARK  status: ('A' for Active; 'I' for Inactive)
REMARK    1  A    between atoms: C_5  and  S_8
REMARK    2  A    between atoms: S_8  and  N_11
REMARK    3  A    between atoms: C_16  and  C_17
REMARK    4  A    between atoms: N_19  and  C_20
REMARK    5  A    between atoms: C_27  and  C_29
REMARK    6  A    between atoms: C_32  and  C_35
REMARK                            x       y       z     vdW  Elec       q    Type
REMARK                         _______ _______ _______ _____ _____    ______ ____
ROOT
ATOM     11  N   UNL     1      -1.144   1.716  25.347  0.00  0.00    -0.145 NA
ATOM     12  C   UNL     1      -0.569   1.310  25.777  0.00  0.00    +0.118 C 
ATOM     13  C   UNL     1      -0.624   0.492  25.869  0.00  0.00    +0.113 C 
ATOM     14  N   UNL     1      -1.255   0.080  25.531  0.00  0.00    -0.273 N 
ATOM     15  C   UNL     1      -1.829   0.486  25.101  0.00  0.00    +0.121 C 
ATOM     16  C   UNL     1      -1.774   1.304  25.009  0.00  0.00    +0.177 C 
ATOM     27  C   UNL     1      -1.310  -0.737  25.623  0.00  0.00    +0.249 C 
ATOM     28  O   UNL     1      -0.734  -1.144  26.054  0.00  0.00    -0.270 OA
ENDROOT
BRANCH  27  29
ATOM     29  C   UNL     1      -1.939  -1.149  25.286  0.00  0.00    +0.054 A 
ATOM     30  C   UNL     1      -2.649  -1.231  25.699  0.00  0.00    +0.005 A 
ATOM     31  C   UNL     1      -3.278  -1.644  25.360  0.00  0.00    +0.010 A 
ATOM     32  C   UNL     1      -3.198  -1.974  24.609  0.00  0.00    +0.068 A 
ATOM     33  C   UNL     1      -2.489  -1.893  24.196  0.00  0.00    +0.010 A 
ATOM     34  C   UNL     1      -1.859  -1.480  24.533  0.00  0.00    +0.005 A 
BRANCH  32  35
ATOM     35  C   UNL     1      -3.827  -2.387  24.270  0.00  0.00    +0.100 C 
ATOM     36  N   UNL     1      -4.456  -2.799  23.931  0.00  0.00    -0.191 NA
ENDBRANCH  32  35
ENDBRANCH  27  29
BRANCH  11   8
ATOM      8  S   UNL     1      -1.089   2.535  25.254  0.00  0.00    +0.064 S 
ATOM      9  O   UNL     1      -1.439   2.642  25.994  0.00  0.00    -0.153 OA
ATOM     10  O   UNL     1      -0.740   2.428  24.515  0.00  0.00    -0.153 OA
BRANCH   8   5
ATOM      1  F   UNL     1      -0.869   5.807  24.885  0.00  0.00    -0.204 F 
ATOM      2  C   UNL     1      -0.924   4.988  24.978  0.00  0.00    +0.140 A 
ATOM      3  C   UNL     1      -0.496   4.487  24.480  0.00  0.00    +0.031 A 
ATOM      4  C   UNL     1      -0.551   3.669  24.572  0.00  0.00    +0.022 A 
ATOM      5  C   UNL     1      -1.034   3.353  25.162  0.00  0.00    +0.122 A 
ATOM      6  C   UNL     1      -1.462   3.853  25.659  0.00  0.00    +0.022 A 
ATOM      7  C   UNL     1      -1.407   4.671  25.566  0.00  0.00    +0.031 A 
ENDBRANCH   8   5
ENDBRANCH  11   8
BRANCH  16  17
ATOM     17  C   UNL     1      -2.350   1.710  24.579  0.00  0.00    +0.260 C 
ATOM     18  O   UNL     1      -2.148   2.083  23.870  0.00  0.00    -0.272 OA
ATOM     19  N   UNL     1      -3.125   1.744  24.856  0.00  0.00    -0.197 NA
BRANCH  19  20
ATOM     20  C   UNL     1      -3.701   2.150  24.425  0.00  0.00    +0.173 C 
ATOM     21  C   UNL     1      -3.587   2.300  23.623  0.00  0.00    +0.033 C 
ATOM     22  C   UNL     1      -4.162   2.705  23.193  0.00  0.00    +0.026 C 
ATOM     23  C   UNL     1      -4.853   2.961  23.567  0.00  0.00    +0.115 C 
ATOM     24  N   UNL     1      -4.967   2.811  24.370  0.00  0.00    -0.204 NA
ATOM     25  C   UNL     1      -4.391   2.405  24.799  0.00  0.00    +0.261 C 
ATOM     26  O   UNL     1      -4.505   2.255  25.603  0.00  0.00    -0.271 OA
ENDBRANCH  19  20
ENDBRANCH  16  17
TORSDOF 6
ENDMDL
MODEL 3
REMARK VINA RESULT:     -11.9      1.385      3.136
REMARK  Name = 
REMARK  6 active torsions:
REMARK  status: ('A' for Active; 'I' for Inactive)
REMARK    1  A    between atoms: C_5  and  S_8
REMARK    2  A    between atoms: S_8  and  N_11
REMARK    3  A    between atoms: C_16  and  C_17
REMARK    4  A    between atoms: N_19  and  C_20
REMARK    5  A    between atoms: C_27  and  C_29
REMARK    6  A    between atoms: C_32  and  C_35
REMARK                            x       y       z     vdW  Elec       q    Type
REMARK                         _______ _______ _______ _____ _____    ______ ____
ROOT
ATOM     11  N   UNL     1      -1.619  -0.009  24.691  0.00  0.00    -0.145 NA
ATOM     12  C   UNL     1      -0.814  -0.134  24.561  0.00  0.00    +0.118 C 
ATOM     13  C   UNL     1      -0.294   0.507  24.549  0.00  0.00    +0.113 C 
ATOM     14  N   UNL     1      -0.580   1.272  24.667  0.00  0.00    -0.273 N 
ATOM     15  C   UNL     1      -1.385   1.396  24.796  0.00  0.00    +0.121 C 
ATOM     16  C   UNL     1      -1.904   0.755  24.809  0.00  0.00    +0.177 C 
ATOM     27  C   UNL     1      -0.061   1.912  24.654  0.00  0.00    +0.249 C 
ATOM     28  O   UNL     1       0.745   1.788  24.524  0.00  0.00    -0.270 OA
ENDROOT
BRANCH  27  29
ATOM     29  C   UNL     1      -0.346   2.677  24.772  0.00  0.00    +0.054 A 
ATOM     30  C   UNL     1      -0.458   2.963  25.538  0.00  0.00    +0.005 A 
ATOM     31  C   UNL     1      -0.743   3.729  25.654  0.00  0.00    +0.010 A 
ATOM     32  C   UNL     1      -0.915   4.208  25.006  0.00  0.00    +0.068 A 
ATOM     33  C   UNL     1      -0.803   3.922  24.240  0.00  0.00    +0.010 A 
ATOM     34  C   UNL     1      -0.518   3.157  24.123  0.00  0.00    +0.005 A 
BRANCH  32  35
ATOM     35  C   UNL     1      -1.201   4.974  25.122  0.00  0.00    +0.100 C 
ATOM     36  N   UNL     1      -1.487   5.739  25.238  0.00  0.00    -0.191 NA
ENDBRANCH  32  35
ENDBRANCH  27  29
BRANCH  11   8
ATOM      8  S   UNL     1      -2.139  -0.651  24.703  0.00  0.00    +0.064 S 
ATOM      9  O   UNL     1      -2.034  -0.720  25.518  0.00  0.00    -0.153 OA
ATOM     10  O   UNL     1      -2.244  -0.581  23.888  0.00  0.00    -0.153 OA
BRANCH   8   5
ATOM      1  F   UNL     1      -4.218  -3.213  24.752  0.00  0.00    -0.204 F 
ATOM      2  C   UNL     1      -3.697  -2.572  24.740  0.00  0.00    +0.140 A 
ATOM      3  C   UNL     1      -3.291  -2.358  25.425  0.00  0.00    +0.031 A 
ATOM      4  C   UNL     1      -2.772  -1.717  25.413  0.00  0.00    +0.022 A 
ATOM      5  C   UNL     1      -2.659  -1.291  24.715  0.00  0.00    +0.122 A 
ATOM      6  C   UNL     1      -3.065  -1.506  24.031  0.00  0.00    +0.022 A 
ATOM      7  C   UNL     1      -3.584  -2.146  24.043  0.00  0.00    +0.031 A 
ENDBRANCH   8   5
ENDBRANCH  11   8
BRANCH  16  17
ATOM     17  C   UNL     1      -2.710   0.880  24.939  0.00  0.00    +0.260 C 
ATOM     18  O   UNL     1      -3.099   0.471  25.541  0.00  0.00    -0.272 OA
ATOM     19  N   UNL     1      -3.126   1.413  24.467  0.00  0.00    -0.197 NA
BRANCH  19  20
ATOM     20  C   UNL     1      -3.931   1.538  24.597  0.00  0.00    +0.173 C 
ATOM     21  C   UNL     1      -4.287   1.258  25.286  0.00  0.00    +0.033 C 
ATOM     22  C   UNL     1      -5.091   1.383  25.415  0.00  0.00    +0.026 C 
ATOM     23  C   UNL     1      -5.541   1.790  24.855  0.00  0.00    +0.115 C 
ATOM     24  N   UNL     1      -5.186   2.070  24.166  0.00  0.00    -0.204 NA
ATOM     25  C   UNL     1      -4.381   1.945  24.037  0.00  0.00    +0.261 C 
ATOM     26  O   UNL     1      -4.025   2.226  23.347  0.00  0.00    -0.271 OA
ENDBRANCH  19  20
ENDBRANCH  16  17
TORSDOF 6
ENDMDL
MODEL 4
REMARK VINA RESULT:     -11.6      2.199      4.629
REMARK  Name = 
REMARK  6 active torsions:
REMARK  status: ('A' for Active; 'I' for Inactive)
REMARK    1  A    between atoms: C_5  and  S_8
REMARK    2  A    between atoms: S_8  and  N_11
REMARK    3  A    between atoms: C_16  and  C_17
REMARK    4  A    between atoms: N_19  and  C_20
REMARK    5  A    between atoms: C_27  and  C_29
REMARK    6  A    between atoms: C_32  and  C_35
REMARK                            x       y       z     vdW  Elec       q    Type
REMARK                         _______ _______ _______ _____ _____    ______ ____
ROOT
ATOM     11  N   UNL     1      -3.384   2.651  25.045  0.00  0.00    -0.145 NA
ATOM     12  C   UNL     1      -4.173   2.672  25.284  0.00  0.00    +0.118 C 
ATOM     13  C   UNL     1      -4.614   1.975  25.311  0.00  0.00    +0.113 C 
ATOM     14  N   UNL     1      -4.265   1.257  25.099  0.00  0.00    -0.273 N 
ATOM     15  C   UNL     1      -3.476   1.238  24.860  0.00  0.00    +0.121 C 
ATOM     16  C   UNL     1      -3.035   1.934  24.833  0.00  0.00    +0.177 C 
ATOM     27  C   UNL     1      -4.705   0.561  25.126  0.00  0.00    +0.249 C 
ATOM     28  O   UNL     1      -5.495   0.581  25.365  0.00  0.00    -0.270 OA
ENDROOT
BRANCH  27  29
ATOM     29  C   UNL     1      -4.358  -0.156  24.914  0.00  0.00    +0.054 A 
ATOM     30  C   UNL     1      -4.385  -0.413  24.130  0.00  0.00    +0.005 A 
ATOM     31  C   UNL     1      -4.037  -1.131  23.920  0.00  0.00    +0.010 A 
ATOM     32  C   UNL     1      -3.661  -1.591  24.491  0.00  0.00    +0.068 A 
ATOM     33  C   UNL     1      -3.634  -1.334  25.275  0.00  0.00    +0.010 A 
ATOM     34  C   UNL     1      -3.981  -0.617  25.487  0.00  0.00    +0.005 A 
BRANCH  32  35
ATOM     35  C   UNL     1      -3.313  -2.309  24.280  0.00  0.00    +0.100 C 
ATOM     36  N   UNL     1      -2.963  -3.026  24.070  0.00  0.00    -0.191 NA
ENDBRANCH  32  35
ENDBRANCH  27  29
BRANCH  11   8
ATOM      8  S   UNL     1      -2.942   3.349  25.018  0.00  0.00    +0.064 S 
ATOM      9  O   UNL     1      -2.795   3.287  25.827  0.00  0.00    -0.153 OA
ATOM     10  O   UNL     1      -3.090   3.410  24.208  0.00  0.00    -0.153 OA
BRANCH   8   5
ATOM      1  F   UNL     1      -1.179   6.136  24.909  0.00  0.00    -0.204 F 
ATOM      2  C   UNL     1      -1.621   5.438  24.936  0.00  0.00    +0.140 A 
ATOM      3  C   UNL     1      -1.717   5.040  25.652  0.00  0.00    +0.031 A 
ATOM      4  C   UNL     1      -2.158   4.343  25.679  0.00  0.00    +0.022 A 
ATOM      5  C   UNL     1      -2.502   4.045  24.991  0.00  0.00    +0.122 A 
ATOM      6  C   UNL     1      -2.405   4.444  24.276  0.00  0.00    +0.022 A 
ATOM      7  C   UNL     1      -1.964   5.141  24.249  0.00  0.00    +0.031 A 
ENDBRANCH   8   5
ENDBRANCH  11   8
BRANCH  16  17
ATOM     17  C   UNL     1      -2.246   1.914  24.593  0.00  0.00    +0.260 C 
ATOM     18  O   UNL     1      -2.018   2.282  23.890  0.00  0.00    -0.272 OA
ATOM     19  N   UNL     1      -1.684   1.526  25.056  0.00  0.00    -0.197 NA
BRANCH  19  20
ATOM     20  C   UNL     1      -0.895   1.505  24.816  0.00  0.00    +0.173 C 
ATOM     21  C   UNL     1      -0.707   1.423  24.018  0.00  0.00    +0.033 C 
ATOM     22  C   UNL     1       0.081   1.402  23.779  0.00  0.00    +0.026 C 
ATOM     23  C   UNL     1       0.684   1.463  24.341  0.00  0.00    +0.115 C 
ATOM     24  N   UNL     1       0.497   1.545  25.139  0.00  0.00    -0.204 NA
ATOM     25  C   UNL     1      -0.292   1.566  25.378  0.00  0.00    +0.261 C 
ATOM     26  O   UNL     1      -0.480   1.648  26.177  0.00  0.00    -0.271 OA
ENDBRANCH  19  20
ENDBRANCH  16  17
TORSDOF 6
ENDMDL
