MODEL 1
REMARK VINA RESULT:      -9.5      0.000      0.000
REMARK  Name = 
REMARK  2 active torsions:
REMARK  status: ('A' for Active; 'I' for Inactive)
REMARK    1  A    between atoms: N_7  and  C_8
REMARK    2  A    between atoms: C_8  and  C_9
REMARK                            x       y       z     vdW  Elec       q    Type
REMARK                         _______ _______ _______ _____ _____    ______ ____
ROOT
ATOM      1  O   UNL     1      -5.481   2.025  24.672  0.00  0.00    -0.219 OA
ATOM      2  C   UNL     1      -4.722   1.705  24.620  0.00  0.00    +0.197 C 
ATOM      3  C   UNL     1      -4.167   2.164  24.217  0.00  0.00    +0.176 C 
ATOM      4  O   UNL     1      -3.372   1.999  24.074  0.00  0.00    -0.350 OA
ATOM      5  C   UNL     1      -2.935   1.336  24.297  0.00  0.00    +0.160 C 
ATOM      6  C   UNL     1      -3.186   0.673  24.718  0.00  0.00    +0.105 C 
ATOM      7  N   UNL     1      -3.936   0.509  25.022  0.00  0.00    -0.264 NA
ATOM     16  C   UNL     1      -4.620   0.969  24.978  0.00  0.00    +0.108 C 
ENDROOT
BRANCH   7   8
ATOM      8  C   UNL     1      -4.011  -0.208  25.421  0.00  0.00    +0.102 C 
BRANCH   8   9
ATOM      9  C   UNL     1      -3.944  -0.919  25.008  0.00  0.00    +0.021 A 
ATOM     10  C   UNL     1      -4.279  -0.994  24.257  0.00  0.00    -0.001 A 
ATOM     11  C   UNL     1      -4.212  -1.705  23.844  0.00  0.00    -0.000 A 
ATOM     12  C   UNL     1      -3.810  -2.341  24.182  0.00  0.00    +0.002 A 
ATOM     13  C   UNL     1      -3.475  -2.267  24.932  0.00  0.00    +0.029 A 
ATOM     14  C   UNL     1      -3.543  -1.556  25.345  0.00  0.00    +0.137 A 
ATOM     15  F   UNL     1      -3.208  -1.481  26.096  0.00  0.00    -0.204 F 
ENDBRANCH   8   9
ENDBRANCH   7   8
TORSDOF 2
ENDMDL
MODEL 2
REMARK VINA RESULT:      -9.3      0.554      1.327
REMARK  Name = 
REMARK  2 active torsions:
REMARK  status: ('A' for Active; 'I' for Inactive)
REMARK    1  A    between atoms: N_7  and  C_8
REMARK    2  A    between atoms: C_8  and  C_9
REMARK                            x       y       z     vdW  Elec       q    Type
REMARK                         _______ _______ _______ _____ _____    ______ ____
ROOT
ATOM      1  O   UNL     1      -1.710   1.299  24.543  0.00  0.00    -0.219 OA
ATOM      2  C   UNL     1      -2.534   1.295  24.524  0.00  0.00    +0.197 C 
ATOM      3  C   UNL     1      -2.886   1.931  24.133  0.00  0.00    +0.176 C 
ATOM      4  O   UNL     1      -3.689   2.084  24.021  0.00  0.00    -0.350 OA
ATOM      5  C   UNL     1      -4.338   1.639  24.271  0.00  0.00    +0.160 C 
ATOM      6  C   UNL     1      -4.344   0.932  24.695  0.00  0.00    +0.105 C 
ATOM      7  N   UNL     1      -3.703   0.494  24.975  0.00  0.00    -0.264 NA
ATOM     16  C   UNL     1      -2.897   0.655  24.898  0.00  0.00    +0.108 C 
ENDROOT
BRANCH   7   8
ATOM      8  C   UNL     1      -3.892  -0.196  25.384  0.00  0.00    +0.102 C 
BRANCH   8   9
ATOM      9  C   UNL     1      -3.867  -0.925  24.998  0.00  0.00    +0.021 A 
ATOM     10  C   UNL     1      -4.200  -1.006  24.246  0.00  0.00    -0.001 A 
ATOM     11  C   UNL     1      -4.175  -1.734  23.860  0.00  0.00    -0.000 A 
ATOM     12  C   UNL     1      -3.817  -2.382  24.225  0.00  0.00    +0.002 A 
ATOM     13  C   UNL     1      -3.484  -2.301  24.975  0.00  0.00    +0.029 A 
ATOM     14  C   UNL     1      -3.509  -1.573  25.361  0.00  0.00    +0.137 A 
ATOM     15  F   UNL     1      -3.176  -1.492  26.112  0.00  0.00    -0.204 F 
ENDBRANCH   8   9
ENDBRANCH   7   8
TORSDOF 2
ENDMDL
MODEL 3
REMARK VINA RESULT:      -9.0      1.912      2.608
REMARK  Name = 
REMARK  2 active torsions:
REMARK  status: ('A' for Active; 'I' for Inactive)
REMARK    1  A    between atoms: N_7  and  C_8
REMARK    2  A    between atoms: C_8  and  C_9
REMARK                            x       y       z     vdW  Elec       q    Type
REMARK                         _______ _______ _______ _____ _____    ______ ____
ROOT
ATOM      1  O   UNL     1      -0.154  -1.036  24.562  0.00  0.00    -0.219 OA
ATOM      2  C   UNL     1      -0.804  -0.556  24.730  0.00  0.00    +0.197 C 
ATOM      3  C   UNL     1      -0.694   0.252  24.606  0.00  0.00    +0.176 C 
ATOM      4  O   UNL     1      -1.232   0.867  24.721  0.00  0.00    -0.350 OA
ATOM      5  C   UNL     1      -2.012   0.826  24.988  0.00  0.00    +0.160 C 
ATOM      6  C   UNL     1      -2.446   0.160  25.206  0.00  0.00    +0.105 C 
ATOM      7  N   UNL     1      -2.209  -0.631  25.211  0.00  0.00    -0.264 NA
ATOM     16  C   UNL     1      -1.478  -0.950  24.999  0.00  0.00    +0.108 C 
ENDROOT
BRANCH   7   8
ATOM      8  C   UNL     1      -2.777  -1.173  25.461  0.00  0.00    +0.102 C 
BRANCH   8   9
ATOM      9  C   UNL     1      -3.276  -1.531  24.910  0.00  0.00    +0.021 A 
ATOM     10  C   UNL     1      -3.703  -1.066  24.377  0.00  0.00    -0.001 A 
ATOM     11  C   UNL     1      -4.203  -1.424  23.826  0.00  0.00    -0.000 A 
ATOM     12  C   UNL     1      -4.275  -2.246  23.808  0.00  0.00    +0.002 A 
ATOM     13  C   UNL     1      -3.848  -2.709  24.339  0.00  0.00    +0.029 A 
ATOM     14  C   UNL     1      -3.349  -2.352  24.890  0.00  0.00    +0.137 A 
ATOM     15  F   UNL     1      -2.922  -2.817  25.423  0.00  0.00    -0.204 F 
ENDBRANCH   8   9
ENDBRANCH   7   8
TORSDOF 2
ENDMDL
MODEL 4
REMARK VINA RESULT:      -8.5      3.088      3.701
REMARK  Name = 
REMARK  2 active torsions:
REMARK  status: ('A' for Active; 'I' for Inactive)
REMARK    1  A    between atoms: N_7  and  C_8
REMARK    2  A    between atoms: C_8  and  C_9
REMARK                            x       y       z     vdW  Elec       q    Type
REMARK                         _______ _______ _______ _____ _____    ______ ____
ROOT
ATOM      1  O   UNL     1      -1.485   2.756  25.443  0.00  0.00    -0.219 OA
ATOM      2  C   UNL     1      -1.926   2.581  24.768  0.00  0.00    +0.197 C 
ATOM      3  C   UNL     1      -1.543   2.120  24.201  0.00  0.00    +0.176 C 
ATOM      4  O   UNL     1      -1.832   1.855  23.475  0.00  0.00    -0.350 OA
ATOM      5  C   UNL     1      -2.574   1.985  23.137  0.00  0.00    +0.160 C 
ATOM      6  C   UNL     1      -3.209   2.412  23.442  0.00  0.00    +0.105 C 
ATOM      7  N   UNL     1      -3.262   2.816  24.160  0.00  0.00    -0.264 NA
ATOM     16  C   UNL     1      -2.690   2.891  24.751  0.00  0.00    +0.108 C 
ENDROOT
BRANCH   7   8
ATOM      8  C   UNL     1      -3.980   3.193  24.307  0.00  0.00    +0.102 C 
BRANCH   8   9
ATOM      9  C   UNL     1      -4.567   2.809  24.741  0.00  0.00    +0.021 A 
ATOM     10  C   UNL     1      -4.776   2.032  24.555  0.00  0.00    -0.001 A 
ATOM     11  C   UNL     1      -5.363   1.647  24.989  0.00  0.00    -0.000 A 
ATOM     12  C   UNL     1      -5.740   2.040  25.609  0.00  0.00    +0.002 A 
ATOM     13  C   UNL     1      -5.532   2.815  25.795  0.00  0.00    +0.029 A 
ATOM     14  C   UNL     1      -4.945   3.200  25.361  0.00  0.00    +0.137 A 
ATOM     15  F   UNL     1      -4.736   3.977  25.547  0.00  0.00    -0.204 F 
ENDBRANCH   8   9
ENDBRANCH   7   8
TORSDOF 2
ENDMDL
