REMARK  Name = 
REMARK  6 active torsions:
REMARK  status: ('A' for Active; 'I' for Inactive)
REMARK    1  A    between atoms: C_2  and  C_3
REMARK    2  A    between atoms: C_5  and  C_6
REMARK    3  A    between atoms: C_6  and  C_7
REMARK    4  A    between atoms: C_7  and  N_11
REMARK    5  A    between atoms: N_11  and  C_12
REMARK    6  A    between atoms: C_12  and  C_13
REMARK                            x       y       z     vdW  Elec       q    Type
REMARK                         _______ _______ _______ _____ _____    ______ ____
ROOT
ATOM      7  C   UNL     1       1.841  -2.304   0.000  0.00  0.00    +0.120 C 
ATOM      8  C   UNL     1       2.425  -2.888   0.000  0.00  0.00    +0.161 C 
ATOM      9  O   UNL     1       1.841  -3.471   0.000  0.00  0.00    -0.351 OA
ATOM     10  C   UNL     1       1.258  -2.888   0.000  0.00  0.00    +0.161 C 
ENDROOT
BRANCH   7   6
ATOM      6  C   UNL     1       1.258  -1.721   0.000  0.00  0.00    +0.070 C 
BRANCH   6   5
ATOM      3  C   UNL     1      -0.872  -1.864   0.000  0.00  0.00    +0.187 A 
ATOM      4  C   UNL     1      -0.180  -1.415   0.000  0.00  0.00    +0.056 A 
ATOM      5  C   UNL     1       0.461  -1.934   0.000  0.00  0.00    +0.102 A 
ATOM     19  N   UNL     1       0.166  -2.704   0.000  0.00  0.00    -0.082 NA
ATOM     20  O   UNL     1      -0.658  -2.661   0.000  0.00  0.00    -0.355 OA
BRANCH   3   2
ATOM      1  O   UNL     1      -2.283  -2.088   0.000  0.00  0.00    -0.212 OA
ATOM      2  C   UNL     1      -1.642  -1.569   0.000  0.00  0.00    +0.249 C 
ENDBRANCH   3   2
ENDBRANCH   6   5
ENDBRANCH   7   6
BRANCH   7  11
ATOM     11  N   UNL     1       2.425  -1.721   0.000  0.00  0.00    -0.211 NA
BRANCH  11  12
ATOM     12  C   UNL     1       2.211  -0.924   0.000  0.00  0.00    +0.115 C 
BRANCH  12  13
ATOM     13  C   UNL     1       2.795  -0.341   0.000  0.00  0.00    -0.002 A 
ATOM     14  C   UNL     1       2.581   0.456   0.000  0.00  0.00    +0.018 A 
ATOM     15  C   UNL     1       3.164   1.040   0.000  0.00  0.00    +0.099 A 
ATOM     16  N   UNL     1       3.961   0.826   0.000  0.00  0.00    -0.242 NA
ATOM     17  C   UNL     1       4.175   0.029   0.000  0.00  0.00    +0.099 A 
ATOM     18  C   UNL     1       3.591  -0.554   0.000  0.00  0.00    +0.018 A 
ENDBRANCH  12  13
ENDBRANCH  11  12
ENDBRANCH   7  11
TORSDOF 6
