MODEL 1
REMARK VINA RESULT:      -9.1      0.000      0.000
REMARK  Name = 
REMARK  8 active torsions:
REMARK  status: ('A' for Active; 'I' for Inactive)
REMARK    1  A    between atoms: O_2  and  C_3
REMARK    2  A    between atoms: C_3  and  C_4
REMARK    3  A    between atoms: C_4  and  N_5
REMARK    4  A    between atoms: C_11  and  C_13
REMARK    5  A    between atoms: C_13  and  C_14
REMARK    6  A    between atoms: C_16  and  C_17
REMARK    7  A    between atoms: C_20  and  C_21
REMARK    8  A    between atoms: C_21  and  C_22
REMARK                            x       y       z     vdW  Elec       q    Type
REMARK                         _______ _______ _______ _____ _____    ______ ____
ROOT
ATOM     13  C   UNL     1      -1.139   0.114  25.238  0.00  0.00    +0.089 C 
ENDROOT
BRANCH  13  11
ATOM      5  N   UNL     1      -0.539   3.021  25.046  0.00  0.00    -0.268 NA
ATOM      6  C   UNL     1      -0.779   2.525  25.660  0.00  0.00    +0.094 C 
ATOM      7  C   UNL     1      -0.899   1.722  25.520  0.00  0.00    +0.111 C 
ATOM      8  N   UNL     1      -0.779   1.413  24.765  0.00  0.00    -0.277 N 
ATOM      9  C   UNL     1      -0.539   1.908  24.150  0.00  0.00    +0.111 C 
ATOM     10  C   UNL     1      -0.420   2.711  24.291  0.00  0.00    +0.094 C 
ATOM     11  C   UNL     1      -0.899   0.609  24.624  0.00  0.00    +0.226 C 
ATOM     12  O   UNL     1      -0.779   0.300  23.869  0.00  0.00    -0.275 OA
BRANCH   5   4
ATOM      4  C   UNL     1      -0.419   3.825  25.187  0.00  0.00    +0.105 C 
BRANCH   4   3
ATOM      3  C   UNL     1      -1.024   4.364  25.034  0.00  0.00    +0.160 C 
BRANCH   3   2
ATOM      1  C   UNL     1      -1.487   5.717  25.042  0.00  0.00    +0.174 C 
ATOM      2  O   UNL     1      -0.864   5.175  25.040  0.00  0.00    -0.350 OA
ENDBRANCH   3   2
ENDBRANCH   4   3
ENDBRANCH   5   4
ENDBRANCH  13  11
BRANCH  13  14
ATOM     14  C   UNL     1      -1.770  -0.406  25.127  0.00  0.00    +0.027 C 
ATOM     15  C   UNL     1      -2.522  -0.111  24.955  0.00  0.00    +0.005 C 
ATOM     16  C   UNL     1      -3.153  -0.631  24.844  0.00  0.00    +0.005 C 
ATOM     20  C   UNL     1      -3.032  -1.446  24.904  0.00  0.00    +0.037 C 
ATOM     24  C   UNL     1      -2.281  -1.739  25.076  0.00  0.00    -0.034 C 
ATOM     25  C   UNL     1      -1.650  -1.219  25.187  0.00  0.00    -0.048 C 
ATOM     26  C   UNL     1      -0.899  -1.514  25.359  0.00  0.00    +0.026 C 
BRANCH  16  17
ATOM     17  C   UNL     1      -3.904  -0.337  24.672  0.00  0.00    +0.000 C 
ATOM     18  C   UNL     1      -4.169  -0.313  23.892  0.00  0.00    +0.000 C 
ATOM     19  C   UNL     1      -4.391  -0.068  25.282  0.00  0.00    +0.000 C 
ENDBRANCH  16  17
BRANCH  20  21
ATOM     21  C   UNL     1      -3.663  -1.965  24.793  0.00  0.00    +0.110 C 
BRANCH  21  22
ATOM     22  C   UNL     1      -3.518  -2.763  24.639  0.00  0.00    +0.073 C 
ATOM     23  N   UNL     1      -3.373  -3.560  24.485  0.00  0.00    -0.196 NA
ENDBRANCH  21  22
ENDBRANCH  20  21
ENDBRANCH  13  14
TORSDOF 8
ENDMDL
MODEL 2
REMARK VINA RESULT:      -9.1      1.929      5.616
REMARK  Name = 
REMARK  8 active torsions:
REMARK  status: ('A' for Active; 'I' for Inactive)
REMARK    1  A    between atoms: O_2  and  C_3
REMARK    2  A    between atoms: C_3  and  C_4
REMARK    3  A    between atoms: C_4  and  N_5
REMARK    4  A    between atoms: C_11  and  C_13
REMARK    5  A    between atoms: C_13  and  C_14
REMARK    6  A    between atoms: C_16  and  C_17
REMARK    7  A    between atoms: C_20  and  C_21
REMARK    8  A    between atoms: C_21  and  C_22
REMARK                            x       y       z     vdW  Elec       q    Type
REMARK                         _______ _______ _______ _____ _____    ______ ____
ROOT
ATOM     13  C   UNL     1      -3.478   2.145  24.793  0.00  0.00    +0.089 C 
ENDROOT
BRANCH  13  11
ATOM      5  N   UNL     1      -4.028  -0.738  24.311  0.00  0.00    -0.268 NA
ATOM      6  C   UNL     1      -4.078  -0.249  24.974  0.00  0.00    +0.094 C 
ATOM      7  C   UNL     1      -3.878   0.548  24.913  0.00  0.00    +0.111 C 
ATOM      8  N   UNL     1      -3.628   0.858  24.191  0.00  0.00    -0.277 N 
ATOM      9  C   UNL     1      -3.578   0.368  23.529  0.00  0.00    +0.111 C 
ATOM     10  C   UNL     1      -3.778  -0.429  23.589  0.00  0.00    +0.094 C 
ATOM     11  C   UNL     1      -3.428   1.656  24.130  0.00  0.00    +0.226 C 
ATOM     12  O   UNL     1      -3.178   1.965  23.408  0.00  0.00    -0.275 OA
BRANCH   5   4
ATOM      4  C   UNL     1      -4.228  -1.536  24.372  0.00  0.00    +0.105 C 
BRANCH   4   3
ATOM      3  C   UNL     1      -3.637  -2.103  24.474  0.00  0.00    +0.160 C 
BRANCH   3   2
ATOM      1  C   UNL     1      -3.259  -3.471  24.645  0.00  0.00    +0.174 C 
ATOM      2  O   UNL     1      -3.826  -2.906  24.441  0.00  0.00    -0.350 OA
ENDBRANCH   3   2
ENDBRANCH   4   3
ENDBRANCH   5   4
ENDBRANCH  13  11
BRANCH  13  14
ATOM     14  C   UNL     1      -2.896   2.714  24.930  0.00  0.00    +0.027 C 
ATOM     15  C   UNL     1      -2.111   2.483  25.039  0.00  0.00    +0.005 C 
ATOM     16  C   UNL     1      -1.530   3.052  25.177  0.00  0.00    +0.005 C 
ATOM     20  C   UNL     1      -1.733   3.852  25.206  0.00  0.00    +0.037 C 
ATOM     24  C   UNL     1      -2.518   4.081  25.098  0.00  0.00    -0.034 C 
ATOM     25  C   UNL     1      -3.100   3.512  24.960  0.00  0.00    -0.048 C 
ATOM     26  C   UNL     1      -3.884   3.743  24.852  0.00  0.00    +0.026 C 
BRANCH  16  17
ATOM     17  C   UNL     1      -0.745   2.823  25.285  0.00  0.00    +0.000 C 
ATOM     18  C   UNL     1      -0.239   2.766  24.637  0.00  0.00    +0.000 C 
ATOM     19  C   UNL     1      -0.467   2.650  26.043  0.00  0.00    +0.000 C 
ENDBRANCH  16  17
BRANCH  20  21
ATOM     21  C   UNL     1      -1.153   4.420  25.344  0.00  0.00    +0.110 C 
BRANCH  21  22
ATOM     22  C   UNL     1      -1.289   5.208  25.139  0.00  0.00    +0.073 C 
ATOM     23  N   UNL     1      -1.426   5.996  24.935  0.00  0.00    -0.196 NA
ENDBRANCH  21  22
ENDBRANCH  20  21
ENDBRANCH  13  14
TORSDOF 8
ENDMDL
MODEL 3
REMARK VINA RESULT:      -8.9      1.664      5.102
REMARK  Name = 
REMARK  8 active torsions:
REMARK  status: ('A' for Active; 'I' for Inactive)
REMARK    1  A    between atoms: O_2  and  C_3
REMARK    2  A    between atoms: C_3  and  C_4
REMARK    3  A    between atoms: C_4  and  N_5
REMARK    4  A    between atoms: C_11  and  C_13
REMARK    5  A    between atoms: C_13  and  C_14
REMARK    6  A    between atoms: C_16  and  C_17
REMARK    7  A    between atoms: C_20  and  C_21
REMARK    8  A    between atoms: C_21  and  C_22
REMARK                            x       y       z     vdW  Elec       q    Type
REMARK                         _______ _______ _______ _____ _____    ______ ____
ROOT
ATOM     13  C   UNL     1      -0.820   1.459  25.647  0.00  0.00    +0.089 C 
ENDROOT
BRANCH  13  11
ATOM      5  N   UNL     1      -1.478  -1.339  24.884  0.00  0.00    -0.268 NA
ATOM      6  C   UNL     1      -1.634  -0.875  25.548  0.00  0.00    +0.094 C 
ATOM      7  C   UNL     1      -1.363  -0.098  25.581  0.00  0.00    +0.111 C 
ATOM      8  N   UNL     1      -0.935   0.217  24.950  0.00  0.00    -0.277 N 
ATOM      9  C   UNL     1      -0.779  -0.247  24.287  0.00  0.00    +0.111 C 
ATOM     10  C   UNL     1      -1.050  -1.024  24.254  0.00  0.00    +0.094 C 
ATOM     11  C   UNL     1      -0.663   0.995  24.983  0.00  0.00    +0.226 C 
ATOM     12  O   UNL     1      -0.235   1.309  24.353  0.00  0.00    -0.275 OA
BRANCH   5   4
ATOM      4  C   UNL     1      -1.750  -2.118  24.851  0.00  0.00    +0.105 C 
BRANCH   4   3
ATOM      3  C   UNL     1      -2.520  -2.275  24.604  0.00  0.00    +0.160 C 
BRANCH   3   2
ATOM      1  C   UNL     1      -3.590  -3.203  24.408  0.00  0.00    +0.174 C 
ATOM      2  O   UNL     1      -2.800  -3.052  24.595  0.00  0.00    -0.350 OA
ENDBRANCH   3   2
ENDBRANCH   4   3
ENDBRANCH   5   4
ENDBRANCH  13  11
BRANCH  13  14
ATOM     14  C   UNL     1      -1.109   2.227  25.555  0.00  0.00    +0.027 C 
ATOM     15  C   UNL     1      -1.870   2.347  25.260  0.00  0.00    +0.005 C 
ATOM     16  C   UNL     1      -2.160   3.114  25.168  0.00  0.00    +0.005 C 
ATOM     20  C   UNL     1      -1.688   3.761  25.372  0.00  0.00    +0.037 C 
ATOM     24  C   UNL     1      -0.928   3.639  25.668  0.00  0.00    -0.034 C 
ATOM     25  C   UNL     1      -0.639   2.872  25.759  0.00  0.00    -0.048 C 
ATOM     26  C   UNL     1       0.122   2.751  26.055  0.00  0.00    +0.026 C 
BRANCH  16  17
ATOM     17  C   UNL     1      -2.920   3.236  24.873  0.00  0.00    +0.000 C 
ATOM     18  C   UNL     1      -3.547   3.372  25.390  0.00  0.00    +0.000 C 
ATOM     19  C   UNL     1      -3.053   3.223  24.058  0.00  0.00    +0.000 C 
ENDBRANCH  16  17
BRANCH  20  21
ATOM     21  C   UNL     1      -1.977   4.527  25.281  0.00  0.00    +0.110 C 
BRANCH  21  22
ATOM     22  C   UNL     1      -1.459   5.146  25.110  0.00  0.00    +0.073 C 
ATOM     23  N   UNL     1      -0.941   5.766  24.939  0.00  0.00    -0.196 NA
ENDBRANCH  21  22
ENDBRANCH  20  21
ENDBRANCH  13  14
TORSDOF 8
ENDMDL
MODEL 4
REMARK VINA RESULT:      -8.9      2.464      4.396
REMARK  Name = 
REMARK  8 active torsions:
REMARK  status: ('A' for Active; 'I' for Inactive)
REMARK    1  A    between atoms: O_2  and  C_3
REMARK    2  A    between atoms: C_3  and  C_4
REMARK    3  A    between atoms: C_4  and  N_5
REMARK    4  A    between atoms: C_11  and  C_13
REMARK    5  A    between atoms: C_13  and  C_14
REMARK    6  A    between atoms: C_16  and  C_17
REMARK    7  A    between atoms: C_20  and  C_21
REMARK    8  A    between atoms: C_21  and  C_22
REMARK                            x       y       z     vdW  Elec       q    Type
REMARK                         _______ _______ _______ _____ _____    ______ ____
ROOT
ATOM     13  C   UNL     1      -2.404   1.306  24.157  0.00  0.00    +0.089 C 
ENDROOT
BRANCH  13  11
ATOM      5  N   UNL     1       0.191   0.016  23.487  0.00  0.00    -0.268 NA
ATOM      6  C   UNL     1      -0.368   0.438  23.051  0.00  0.00    +0.094 C 
ATOM      7  C   UNL     1      -1.046   0.727  23.419  0.00  0.00    +0.111 C 
ATOM      8  N   UNL     1      -1.167   0.595  24.225  0.00  0.00    -0.277 N 
ATOM      9  C   UNL     1      -0.608   0.173  24.660  0.00  0.00    +0.111 C 
ATOM     10  C   UNL     1       0.070  -0.116  24.292  0.00  0.00    +0.094 C 
ATOM     11  C   UNL     1      -1.846   0.885  24.593  0.00  0.00    +0.226 C 
ATOM     12  O   UNL     1      -1.966   0.752  25.398  0.00  0.00    -0.275 OA
BRANCH   5   4
ATOM      4  C   UNL     1       0.870  -0.273  23.118  0.00  0.00    +0.105 C 
BRANCH   4   3
ATOM      3  C   UNL     1       1.525   0.217  23.019  0.00  0.00    +0.160 C 
BRANCH   3   2
ATOM      1  C   UNL     1       2.865   0.411  22.560  0.00  0.00    +0.174 C 
ATOM      2  O   UNL     1       2.189  -0.060  22.613  0.00  0.00    -0.350 OA
ENDBRANCH   3   2
ENDBRANCH   4   3
ENDBRANCH   5   4
ENDBRANCH  13  11
BRANCH  13  14
ATOM     14  C   UNL     1      -2.845   1.903  24.519  0.00  0.00    +0.027 C 
ATOM     15  C   UNL     1      -2.463   2.557  24.846  0.00  0.00    +0.005 C 
ATOM     16  C   UNL     1      -2.904   3.154  25.207  0.00  0.00    +0.005 C 
ATOM     20  C   UNL     1      -3.727   3.096  25.241  0.00  0.00    +0.037 C 
ATOM     24  C   UNL     1      -4.108   2.441  24.914  0.00  0.00    -0.034 C 
ATOM     25  C   UNL     1      -3.667   1.845  24.552  0.00  0.00    -0.048 C 
ATOM     26  C   UNL     1      -4.048   1.191  24.226  0.00  0.00    +0.026 C 
BRANCH  16  17
ATOM     17  C   UNL     1      -2.524   3.808  25.534  0.00  0.00    +0.000 C 
ATOM     18  C   UNL     1      -2.289   4.433  25.051  0.00  0.00    +0.000 C 
ATOM     19  C   UNL     1      -2.378   3.837  26.346  0.00  0.00    +0.000 C 
ENDBRANCH  16  17
BRANCH  20  21
ATOM     21  C   UNL     1      -4.168   3.691  25.602  0.00  0.00    +0.110 C 
BRANCH  21  22
ATOM     22  C   UNL     1      -4.989   3.622  25.657  0.00  0.00    +0.073 C 
ATOM     23  N   UNL     1      -5.809   3.553  25.711  0.00  0.00    -0.196 NA
ENDBRANCH  21  22
ENDBRANCH  20  21
ENDBRANCH  13  14
TORSDOF 8
ENDMDL
MODEL 5
REMARK VINA RESULT:      -8.8      1.472      2.199
REMARK  Name = 
REMARK  8 active torsions:
REMARK  status: ('A' for Active; 'I' for Inactive)
REMARK    1  A    between atoms: O_2  and  C_3
REMARK    2  A    between atoms: C_3  and  C_4
REMARK    3  A    between atoms: C_4  and  N_5
REMARK    4  A    between atoms: C_11  and  C_13
REMARK    5  A    between atoms: C_13  and  C_14
REMARK    6  A    between atoms: C_16  and  C_17
REMARK    7  A    between atoms: C_20  and  C_21
REMARK    8  A    between atoms: C_21  and  C_22
REMARK                            x       y       z     vdW  Elec       q    Type
REMARK                         _______ _______ _______ _____ _____    ______ ____
ROOT
ATOM     13  C   UNL     1      -3.741   0.792  24.666  0.00  0.00    +0.089 C 
ENDROOT
BRANCH  13  11
ATOM      5  N   UNL     1      -2.757   3.595  24.807  0.00  0.00    -0.268 NA
ATOM      6  C   UNL     1      -3.109   3.084  25.350  0.00  0.00    +0.094 C 
ATOM      7  C   UNL     1      -3.319   2.321  25.122  0.00  0.00    +0.111 C 
ATOM      8  N   UNL     1      -3.178   2.067  24.351  0.00  0.00    -0.277 N 
ATOM      9  C   UNL     1      -2.826   2.577  23.807  0.00  0.00    +0.111 C 
ATOM     10  C   UNL     1      -2.616   3.341  24.035  0.00  0.00    +0.094 C 
ATOM     11  C   UNL     1      -3.389   1.302  24.123  0.00  0.00    +0.226 C 
ATOM     12  O   UNL     1      -3.247   1.049  23.351  0.00  0.00    -0.275 OA
BRANCH   5   4
ATOM      4  C   UNL     1      -2.546   4.360  25.035  0.00  0.00    +0.105 C 
BRANCH   4   3
ATOM      3  C   UNL     1      -1.753   4.552  25.148  0.00  0.00    +0.160 C 
BRANCH   3   2
ATOM      1  C   UNL     1      -0.817   5.611  24.931  0.00  0.00    +0.174 C 
ATOM      2  O   UNL     1      -1.529   5.341  25.248  0.00  0.00    -0.350 OA
ENDBRANCH   3   2
ENDBRANCH   4   3
ENDBRANCH   5   4
ENDBRANCH  13  11
BRANCH  13  14
ATOM     14  C   UNL     1      -3.525  -0.005  24.684  0.00  0.00    +0.027 C 
ATOM     15  C   UNL     1      -2.743  -0.216  24.843  0.00  0.00    +0.005 C 
ATOM     16  C   UNL     1      -2.527  -1.012  24.861  0.00  0.00    +0.005 C 
ATOM     20  C   UNL     1      -3.093  -1.597  24.721  0.00  0.00    +0.037 C 
ATOM     24  C   UNL     1      -3.874  -1.384  24.562  0.00  0.00    -0.034 C 
ATOM     25  C   UNL     1      -4.090  -0.588  24.544  0.00  0.00    -0.048 C 
ATOM     26  C   UNL     1      -4.871  -0.376  24.386  0.00  0.00    +0.026 C 
BRANCH  16  17
ATOM     17  C   UNL     1      -1.746  -1.225  25.020  0.00  0.00    +0.000 C 
ATOM     18  C   UNL     1      -1.472  -1.241  25.797  0.00  0.00    +0.000 C 
ATOM     19  C   UNL     1      -1.239  -1.422  24.399  0.00  0.00    +0.000 C 
ENDBRANCH  16  17
BRANCH  20  21
ATOM     21  C   UNL     1      -2.878  -2.392  24.739  0.00  0.00    +0.110 C 
BRANCH  21  22
ATOM     22  C   UNL     1      -3.404  -2.969  24.471  0.00  0.00    +0.073 C 
ATOM     23  N   UNL     1      -3.931  -3.545  24.204  0.00  0.00    -0.196 NA
ENDBRANCH  21  22
ENDBRANCH  20  21
ENDBRANCH  13  14
TORSDOF 8
ENDMDL
MODEL 6
REMARK VINA RESULT:      -8.8      2.201      3.661
REMARK  Name = 
REMARK  8 active torsions:
REMARK  status: ('A' for Active; 'I' for Inactive)
REMARK    1  A    between atoms: O_2  and  C_3
REMARK    2  A    between atoms: C_3  and  C_4
REMARK    3  A    between atoms: C_4  and  N_5
REMARK    4  A    between atoms: C_11  and  C_13
REMARK    5  A    between atoms: C_13  and  C_14
REMARK    6  A    between atoms: C_16  and  C_17
REMARK    7  A    between atoms: C_20  and  C_21
REMARK    8  A    between atoms: C_21  and  C_22
REMARK                            x       y       z     vdW  Elec       q    Type
REMARK                         _______ _______ _______ _____ _____    ______ ____
ROOT
ATOM     13  C   UNL     1      -1.730   1.205  24.479  0.00  0.00    +0.089 C 
ENDROOT
BRANCH  13  11
ATOM      5  N   UNL     1       0.704   0.017  23.250  0.00  0.00    -0.268 NA
ATOM      6  C   UNL     1       0.198   0.633  23.038  0.00  0.00    +0.094 C 
ATOM      7  C   UNL     1      -0.444   0.824  23.518  0.00  0.00    +0.111 C 
ATOM      8  N   UNL     1      -0.581   0.399  24.211  0.00  0.00    -0.277 N 
ATOM      9  C   UNL     1      -0.076  -0.217  24.424  0.00  0.00    +0.111 C 
ATOM     10  C   UNL     1       0.567  -0.408  23.944  0.00  0.00    +0.094 C 
ATOM     11  C   UNL     1      -1.224   0.589  24.692  0.00  0.00    +0.226 C 
ATOM     12  O   UNL     1      -1.361   0.164  25.385  0.00  0.00    -0.275 OA
BRANCH   5   4
ATOM      4  C   UNL     1       1.347  -0.174  22.770  0.00  0.00    +0.105 C 
BRANCH   4   3
ATOM      3  C   UNL     1       2.050   0.253  22.833  0.00  0.00    +0.160 C 
BRANCH   3   2
ATOM      1  C   UNL     1       3.408   0.463  22.438  0.00  0.00    +0.174 C 
ATOM      2  O   UNL     1       2.683   0.082  22.332  0.00  0.00    -0.350 OA
ENDBRANCH   3   2
ENDBRANCH   4   3
ENDBRANCH   5   4
ENDBRANCH  13  11
BRANCH  13  14
ATOM     14  C   UNL     1      -2.543   1.134  24.604  0.00  0.00    +0.027 C 
ATOM     15  C   UNL     1      -2.905   0.394  24.550  0.00  0.00    +0.005 C 
ATOM     16  C   UNL     1      -3.717   0.323  24.675  0.00  0.00    +0.005 C 
ATOM     20  C   UNL     1      -4.168   0.991  24.854  0.00  0.00    +0.037 C 
ATOM     24  C   UNL     1      -3.805   1.730  24.907  0.00  0.00    -0.034 C 
ATOM     25  C   UNL     1      -2.992   1.801  24.782  0.00  0.00    -0.048 C 
ATOM     26  C   UNL     1      -2.631   2.540  24.836  0.00  0.00    +0.026 C 
BRANCH  16  17
ATOM     17  C   UNL     1      -4.080  -0.416  24.622  0.00  0.00    +0.000 C 
ATOM     18  C   UNL     1      -4.173  -0.880  25.297  0.00  0.00    +0.000 C 
ATOM     19  C   UNL     1      -4.349  -0.691  23.891  0.00  0.00    +0.000 C 
ENDBRANCH  16  17
BRANCH  20  21
ATOM     21  C   UNL     1      -4.979   0.920  24.978  0.00  0.00    +0.110 C 
BRANCH  21  22
ATOM     22  C   UNL     1      -5.435   1.593  25.125  0.00  0.00    +0.073 C 
ATOM     23  N   UNL     1      -5.891   2.264  25.272  0.00  0.00    -0.196 NA
ENDBRANCH  21  22
ENDBRANCH  20  21
ENDBRANCH  13  14
TORSDOF 8
ENDMDL
