MODEL 1
REMARK VINA RESULT:     -10.7      0.000      0.000
REMARK  Name = 
REMARK  7 active torsions:
REMARK  status: ('A' for Active; 'I' for Inactive)
REMARK    1  A    between atoms: O_2  and  C_3
REMARK    2  A    between atoms: C_3  and  C_5
REMARK    3  A    between atoms: C_10  and  C_12
REMARK    4  A    between atoms: C_14  and  N_22
REMARK    5  A    between atoms: C_17  and  C_19
REMARK    6  A    between atoms: C_19  and  S_20
REMARK    7  A    between atoms: N_25  and  C_26
REMARK                            x       y       z     vdW  Elec       q    Type
REMARK                         _______ _______ _______ _____ _____    ______ ____
ROOT
ATOM     12  C   UNL     1      -1.925   1.614  24.925  0.00  0.00    +0.154 C 
ATOM     13  C   UNL     1      -2.507   1.049  25.075  0.00  0.00    +0.053 C 
ATOM     14  C   UNL     1      -2.208   0.311  24.860  0.00  0.00    +0.119 C 
ATOM     15  C   UNL     1      -1.440   0.419  24.577  0.00  0.00    +0.116 C 
ATOM     16  N   UNL     1      -1.265   1.225  24.617  0.00  0.00    -0.270 N 
ATOM     17  C   UNL     1      -0.555   1.579  24.389  0.00  0.00    +0.237 C 
ATOM     18  O   UNL     1      -0.460   2.395  24.461  0.00  0.00    -0.274 OA
ENDROOT
BRANCH  12  10
ATOM      5  C   UNL     1      -2.765   3.654  24.832  0.00  0.00    +0.175 C 
ATOM      6  C   UNL     1      -3.461   3.838  24.430  0.00  0.00    +0.033 C 
ATOM      7  C   UNL     1      -3.753   3.144  24.095  0.00  0.00    +0.024 C 
ATOM      8  C   UNL     1      -3.238   2.530  24.289  0.00  0.00    +0.094 C 
ATOM      9  N   UNL     1      -2.627   2.844  24.745  0.00  0.00    -0.270 N 
ATOM     10  C   UNL     1      -1.990   2.425  25.059  0.00  0.00    +0.244 C 
ATOM     11  O   UNL     1      -1.418   2.817  25.506  0.00  0.00    -0.273 OA
BRANCH   5   3
ATOM      3  C   UNL     1      -2.290   4.185  25.248  0.00  0.00    +0.335 C 
ATOM      4  O   UNL     1      -2.323   4.209  26.073  0.00  0.00    -0.248 OA
BRANCH   3   2
ATOM      1  C   UNL     1      -1.571   5.417  25.171  0.00  0.00    +0.256 C 
ATOM      2  O   UNL     1      -1.782   4.691  24.841  0.00  0.00    -0.443 OA
ENDBRANCH   3   2
ENDBRANCH   5   3
ENDBRANCH  12  10
BRANCH  14  22
ATOM     22  N   UNL     1      -2.606  -0.409  24.919  0.00  0.00    -0.187 NA
ATOM     23  C   UNL     1      -2.579  -0.839  25.623  0.00  0.00    +0.344 C 
ATOM     24  O   UNL     1      -2.154  -0.549  26.267  0.00  0.00    -0.249 OA
ATOM     25  N   UNL     1      -2.978  -1.559  25.681  0.00  0.00    -0.159 NA
BRANCH  25  26
ATOM     26  C   UNL     1      -3.403  -1.849  25.036  0.00  0.00    +0.102 A 
ATOM     27  C   UNL     1      -3.200  -2.575  24.702  0.00  0.00    +0.158 A 
ATOM     28  F   UNL     1      -2.572  -3.012  25.012  0.00  0.00    -0.203 F 
ATOM     29  C   UNL     1      -3.625  -2.865  24.057  0.00  0.00    +0.061 A 
ATOM     30  C   UNL     1      -4.253  -2.430  23.747  0.00  0.00    +0.142 A 
ATOM     31  F   UNL     1      -4.678  -2.720  23.102  0.00  0.00    -0.204 F 
ATOM     32  C   UNL     1      -4.456  -1.703  24.082  0.00  0.00    +0.031 A 
ATOM     33  C   UNL     1      -4.031  -1.413  24.727  0.00  0.00    +0.021 A 
ENDBRANCH  25  26
ENDBRANCH  14  22
BRANCH  17  19
ATOM     19  C   UNL     1       0.058   1.117  24.089  0.00  0.00    +0.143 C 
BRANCH  19  20
ATOM     20  S   UNL     1       0.779   1.465  23.892  0.00  0.00    -0.130 S 
ATOM     21  C   UNL     1       1.379   1.009  23.555  0.00  0.00    +0.070 C 
ENDBRANCH  19  20
ENDBRANCH  17  19
TORSDOF 7
ENDMDL
MODEL 2
REMARK VINA RESULT:     -10.1      1.828      2.906
REMARK  Name = 
REMARK  7 active torsions:
REMARK  status: ('A' for Active; 'I' for Inactive)
REMARK    1  A    between atoms: O_2  and  C_3
REMARK    2  A    between atoms: C_3  and  C_5
REMARK    3  A    between atoms: C_10  and  C_12
REMARK    4  A    between atoms: C_14  and  N_22
REMARK    5  A    between atoms: C_17  and  C_19
REMARK    6  A    between atoms: C_19  and  S_20
REMARK    7  A    between atoms: N_25  and  C_26
REMARK                            x       y       z     vdW  Elec       q    Type
REMARK                         _______ _______ _______ _____ _____    ______ ____
ROOT
ATOM     12  C   UNL     1      -2.671   2.110  24.680  0.00  0.00    +0.154 C 
ATOM     13  C   UNL     1      -2.507   1.336  24.451  0.00  0.00    +0.053 C 
ATOM     14  C   UNL     1      -3.206   0.900  24.503  0.00  0.00    +0.119 C 
ATOM     15  C   UNL     1      -3.803   1.406  24.765  0.00  0.00    +0.116 C 
ATOM     16  N   UNL     1      -3.472   2.155  24.874  0.00  0.00    -0.270 N 
ATOM     17  C   UNL     1      -3.873   2.828  25.133  0.00  0.00    +0.237 C 
ATOM     18  O   UNL     1      -3.468   3.542  25.216  0.00  0.00    -0.274 OA
ENDROOT
BRANCH  12  10
ATOM      5  C   UNL     1      -0.862   3.238  25.255  0.00  0.00    +0.175 C 
ATOM      6  C   UNL     1      -0.287   2.940  25.765  0.00  0.00    +0.033 C 
ATOM      7  C   UNL     1      -0.518   2.183  25.996  0.00  0.00    +0.024 C 
ATOM      8  C   UNL     1      -1.237   2.013  25.629  0.00  0.00    +0.094 C 
ATOM      9  N   UNL     1      -1.450   2.665  25.171  0.00  0.00    -0.270 N 
ATOM     10  C   UNL     1      -2.131   2.732  24.710  0.00  0.00    +0.244 C 
ATOM     11  O   UNL     1      -2.271   3.422  24.279  0.00  0.00    -0.273 OA
BRANCH   5   3
ATOM      3  C   UNL     1      -0.852   3.979  24.893  0.00  0.00    +0.335 C 
ATOM      4  O   UNL     1      -0.619   4.050  24.104  0.00  0.00    -0.248 OA
BRANCH   3   2
ATOM      1  C   UNL     1      -0.896   5.401  25.028  0.00  0.00    +0.256 C 
ATOM      2  O   UNL     1      -1.076   4.650  25.318  0.00  0.00    -0.443 OA
ENDBRANCH   3   2
ENDBRANCH   5   3
ENDBRANCH  12  10
BRANCH  14  22
ATOM     22  N   UNL     1      -3.292   0.099  24.325  0.00  0.00    -0.187 NA
ATOM     23  C   UNL     1      -3.436  -0.137  23.547  0.00  0.00    +0.344 C 
ATOM     24  O   UNL     1      -3.492   0.428  22.948  0.00  0.00    -0.249 OA
ATOM     25  N   UNL     1      -3.522  -0.938  23.369  0.00  0.00    -0.159 NA
BRANCH  25  26
ATOM     26  C   UNL     1      -3.465  -1.503  23.967  0.00  0.00    +0.102 A 
ATOM     27  C   UNL     1      -4.119  -1.967  24.158  0.00  0.00    +0.158 A 
ATOM     28  F   UNL     1      -4.830  -1.868  23.751  0.00  0.00    -0.203 F 
ATOM     29  C   UNL     1      -4.063  -2.532  24.757  0.00  0.00    +0.061 A 
ATOM     30  C   UNL     1      -3.352  -2.632  25.165  0.00  0.00    +0.142 A 
ATOM     31  F   UNL     1      -3.296  -3.197  25.763  0.00  0.00    -0.204 F 
ATOM     32  C   UNL     1      -2.698  -2.166  24.973  0.00  0.00    +0.031 A 
ATOM     33  C   UNL     1      -2.755  -1.602  24.375  0.00  0.00    +0.021 A 
ENDBRANCH  25  26
ENDBRANCH  14  22
BRANCH  17  19
ATOM     19  C   UNL     1      -4.678   2.788  25.307  0.00  0.00    +0.143 C 
BRANCH  19  20
ATOM     20  S   UNL     1      -5.070   3.451  25.602  0.00  0.00    -0.130 S 
ATOM     21  C   UNL     1      -5.892   3.444  25.676  0.00  0.00    +0.070 C 
ENDBRANCH  19  20
ENDBRANCH  17  19
TORSDOF 7
ENDMDL
MODEL 3
REMARK VINA RESULT:      -9.7      2.468      5.019
REMARK  Name = 
REMARK  7 active torsions:
REMARK  status: ('A' for Active; 'I' for Inactive)
REMARK    1  A    between atoms: O_2  and  C_3
REMARK    2  A    between atoms: C_3  and  C_5
REMARK    3  A    between atoms: C_10  and  C_12
REMARK    4  A    between atoms: C_14  and  N_22
REMARK    5  A    between atoms: C_17  and  C_19
REMARK    6  A    between atoms: C_19  and  S_20
REMARK    7  A    between atoms: N_25  and  C_26
REMARK                            x       y       z     vdW  Elec       q    Type
REMARK                         _______ _______ _______ _____ _____    ______ ____
ROOT
ATOM     12  C   UNL     1      -1.706   0.245  24.852  0.00  0.00    +0.154 C 
ATOM     13  C   UNL     1      -1.917   0.960  25.205  0.00  0.00    +0.053 C 
ATOM     14  C   UNL     1      -1.317   1.507  25.054  0.00  0.00    +0.119 C 
ATOM     15  C   UNL     1      -0.736   1.130  24.606  0.00  0.00    +0.116 C 
ATOM     16  N   UNL     1      -0.976   0.350  24.481  0.00  0.00    -0.270 N 
ATOM     17  C   UNL     1      -0.558  -0.224  24.060  0.00  0.00    +0.237 C 
ATOM     18  O   UNL     1      -0.869  -0.984  23.981  0.00  0.00    -0.274 OA
ENDROOT
BRANCH  12  10
ATOM      5  C   UNL     1      -3.441  -1.098  24.603  0.00  0.00    +0.175 C 
ATOM      6  C   UNL     1      -4.172  -0.843  24.320  0.00  0.00    +0.033 C 
ATOM      7  C   UNL     1      -4.117  -0.036  24.162  0.00  0.00    +0.024 C 
ATOM      8  C   UNL     1      -3.352   0.209  24.347  0.00  0.00    +0.094 C 
ATOM      9  N   UNL     1      -2.933  -0.447  24.620  0.00  0.00    -0.270 N 
ATOM     10  C   UNL     1      -2.146  -0.452  24.866  0.00  0.00    +0.244 C 
ATOM     11  O   UNL     1      -1.800  -1.154  25.127  0.00  0.00    -0.273 OA
BRANCH   5   3
ATOM      3  C   UNL     1      -3.249  -1.867  24.830  0.00  0.00    +0.335 C 
ATOM      4  O   UNL     1      -3.166  -2.053  25.630  0.00  0.00    -0.248 OA
BRANCH   3   2
ATOM      1  C   UNL     1      -3.379  -3.227  24.410  0.00  0.00    +0.256 C 
ATOM      2  O   UNL     1      -3.141  -2.452  24.258  0.00  0.00    -0.443 OA
ENDBRANCH   3   2
ENDBRANCH   5   3
ENDBRANCH  12  10
BRANCH  14  22
ATOM     22  N   UNL     1      -1.303   2.292  25.305  0.00  0.00    -0.187 NA
ATOM     23  C   UNL     1      -0.818   2.514  25.935  0.00  0.00    +0.344 C 
ATOM     24  O   UNL     1      -0.347   1.951  26.312  0.00  0.00    -0.249 OA
ATOM     25  N   UNL     1      -0.803   3.300  26.187  0.00  0.00    -0.159 NA
BRANCH  25  26
ATOM     26  C   UNL     1      -1.274   3.863  25.810  0.00  0.00    +0.102 A 
ATOM     27  C   UNL     1      -0.927   4.430  25.322  0.00  0.00    +0.158 A 
ATOM     28  F   UNL     1      -0.109   4.434  25.210  0.00  0.00    -0.203 F 
ATOM     29  C   UNL     1      -1.397   4.993  24.945  0.00  0.00    +0.061 A 
ATOM     30  C   UNL     1      -2.214   4.989  25.056  0.00  0.00    +0.142 A 
ATOM     31  F   UNL     1      -2.685   5.552  24.679  0.00  0.00    -0.204 F 
ATOM     32  C   UNL     1      -2.561   4.422  25.544  0.00  0.00    +0.031 A 
ATOM     33  C   UNL     1      -2.091   3.859  25.921  0.00  0.00    +0.021 A 
ENDBRANCH  25  26
ENDBRANCH  14  22
BRANCH  17  19
ATOM     19  C   UNL     1       0.168  -0.038  23.718  0.00  0.00    +0.143 C 
BRANCH  19  20
ATOM     20  S   UNL     1       0.500  -0.540  23.155  0.00  0.00    -0.130 S 
ATOM     21  C   UNL     1       1.199  -0.325  22.771  0.00  0.00    +0.070 C 
ENDBRANCH  19  20
ENDBRANCH  17  19
TORSDOF 7
ENDMDL
MODEL 4
REMARK VINA RESULT:      -9.0      1.714      2.148
REMARK  Name = 
REMARK  7 active torsions:
REMARK  status: ('A' for Active; 'I' for Inactive)
REMARK    1  A    between atoms: O_2  and  C_3
REMARK    2  A    between atoms: C_3  and  C_5
REMARK    3  A    between atoms: C_10  and  C_12
REMARK    4  A    between atoms: C_14  and  N_22
REMARK    5  A    between atoms: C_17  and  C_19
REMARK    6  A    between atoms: C_19  and  S_20
REMARK    7  A    between atoms: N_25  and  C_26
REMARK                            x       y       z     vdW  Elec       q    Type
REMARK                         _______ _______ _______ _____ _____    ______ ____
ROOT
ATOM     12  C   UNL     1      -3.386   1.707  25.157  0.00  0.00    +0.154 C 
ATOM     13  C   UNL     1      -3.458   0.895  25.283  0.00  0.00    +0.053 C 
ATOM     14  C   UNL     1      -2.765   0.533  25.019  0.00  0.00    +0.119 C 
ATOM     15  C   UNL     1      -2.265   1.121  24.729  0.00  0.00    +0.116 C 
ATOM     16  N   UNL     1      -2.649   1.847  24.814  0.00  0.00    -0.270 N 
ATOM     17  C   UNL     1      -2.348   2.584  24.595  0.00  0.00    +0.237 C 
ATOM     18  O   UNL     1      -2.797   3.265  24.715  0.00  0.00    -0.274 OA
ENDROOT
BRANCH  12  10
ATOM      5  C   UNL     1      -5.373   2.653  25.333  0.00  0.00    +0.175 C 
ATOM      6  C   UNL     1      -6.071   2.289  25.087  0.00  0.00    +0.033 C 
ATOM      7  C   UNL     1      -5.878   1.547  24.782  0.00  0.00    +0.024 C 
ATOM      8  C   UNL     1      -5.060   1.453  24.841  0.00  0.00    +0.094 C 
ATOM      9  N   UNL     1      -4.748   2.136  25.181  0.00  0.00    -0.270 N 
ATOM     10  C   UNL     1      -3.952   2.278  25.341  0.00  0.00    +0.244 C 
ATOM     11  O   UNL     1      -3.721   2.992  25.685  0.00  0.00    -0.273 OA
BRANCH   5   3
ATOM      3  C   UNL     1      -5.311   3.403  25.672  0.00  0.00    +0.335 C 
ATOM      4  O   UNL     1      -5.166   3.479  26.482  0.00  0.00    -0.248 OA
BRANCH   3   2
ATOM      1  C   UNL     1      -5.755   4.751  25.511  0.00  0.00    +0.256 C 
ATOM      2  O   UNL     1      -5.394   4.076  25.204  0.00  0.00    -0.443 OA
ENDBRANCH   3   2
ENDBRANCH   5   3
ENDBRANCH  12  10
BRANCH  14  22
ATOM     22  N   UNL     1      -2.602  -0.275  25.041  0.00  0.00    -0.187 NA
ATOM     23  C   UNL     1      -1.933  -0.550  25.439  0.00  0.00    +0.344 C 
ATOM     24  O   UNL     1      -1.429  -0.017  25.816  0.00  0.00    -0.249 OA
ATOM     25  N   UNL     1      -1.770  -1.359  25.461  0.00  0.00    -0.159 NA
BRANCH  25  26
ATOM     26  C   UNL     1      -2.274  -1.892  25.085  0.00  0.00    +0.102 A 
ATOM     27  C   UNL     1      -2.008  -2.322  24.434  0.00  0.00    +0.158 A 
ATOM     28  F   UNL     1      -1.236  -2.220  24.159  0.00  0.00    -0.203 F 
ATOM     29  C   UNL     1      -2.512  -2.856  24.058  0.00  0.00    +0.061 A 
ATOM     30  C   UNL     1      -3.283  -2.959  24.332  0.00  0.00    +0.142 A 
ATOM     31  F   UNL     1      -3.787  -3.492  23.956  0.00  0.00    -0.204 F 
ATOM     32  C   UNL     1      -3.550  -2.528  24.984  0.00  0.00    +0.031 A 
ATOM     33  C   UNL     1      -3.046  -1.994  25.360  0.00  0.00    +0.021 A 
ENDBRANCH  25  26
ENDBRANCH  14  22
BRANCH  17  19
ATOM     19  C   UNL     1      -1.598   2.639  24.257  0.00  0.00    +0.143 C 
BRANCH  19  20
ATOM     20  S   UNL     1      -1.202   3.362  24.246  0.00  0.00    -0.130 S 
ATOM     21  C   UNL     1      -0.385   3.383  24.125  0.00  0.00    +0.070 C 
ENDBRANCH  19  20
ENDBRANCH  17  19
TORSDOF 7
ENDMDL
MODEL 5
REMARK VINA RESULT:      -8.7      2.551      4.230
REMARK  Name = 
REMARK  7 active torsions:
REMARK  status: ('A' for Active; 'I' for Inactive)
REMARK    1  A    between atoms: O_2  and  C_3
REMARK    2  A    between atoms: C_3  and  C_5
REMARK    3  A    between atoms: C_10  and  C_12
REMARK    4  A    between atoms: C_14  and  N_22
REMARK    5  A    between atoms: C_17  and  C_19
REMARK    6  A    between atoms: C_19  and  S_20
REMARK    7  A    between atoms: N_25  and  C_26
REMARK                            x       y       z     vdW  Elec       q    Type
REMARK                         _______ _______ _______ _____ _____    ______ ____
ROOT
ATOM     12  C   UNL     1      -1.772   1.923  24.424  0.00  0.00    +0.154 C 
ATOM     13  C   UNL     1      -2.560   1.680  24.431  0.00  0.00    +0.053 C 
ATOM     14  C   UNL     1      -3.022   2.320  24.671  0.00  0.00    +0.119 C 
ATOM     15  C   UNL     1      -2.519   2.959  24.813  0.00  0.00    +0.116 C 
ATOM     16  N   UNL     1      -1.746   2.713  24.661  0.00  0.00    -0.270 N 
ATOM     17  C   UNL     1      -1.067   3.177  24.732  0.00  0.00    +0.237 C 
ATOM     18  O   UNL     1      -0.328   2.854  24.560  0.00  0.00    -0.274 OA
ENDROOT
BRANCH  12  10
ATOM      5  C   UNL     1      -0.396   0.195  24.421  0.00  0.00    +0.175 C 
ATOM      6  C   UNL     1      -0.507  -0.472  24.893  0.00  0.00    +0.033 C 
ATOM      7  C   UNL     1      -1.194  -0.360  25.334  0.00  0.00    +0.024 C 
ATOM      8  C   UNL     1      -1.509   0.376  25.135  0.00  0.00    +0.094 C 
ATOM      9  N   UNL     1      -1.016   0.720  24.571  0.00  0.00    -0.270 N 
ATOM     10  C   UNL     1      -1.122   1.457  24.218  0.00  0.00    +0.244 C 
ATOM     11  O   UNL     1      -0.580   1.730  23.659  0.00  0.00    -0.273 OA
BRANCH   5   3
ATOM      3  C   UNL     1       0.225   0.318  23.892  0.00  0.00    +0.335 C 
ATOM      4  O   UNL     1       0.868   0.787  24.111  0.00  0.00    -0.248 OA
BRANCH   3   2
ATOM      1  C   UNL     1       0.908  -0.203  22.750  0.00  0.00    +0.256 C 
ATOM      2  O   UNL     1       0.205  -0.029  23.144  0.00  0.00    -0.443 OA
ENDBRANCH   3   2
ENDBRANCH   5   3
ENDBRANCH  12  10
BRANCH  14  22
ATOM     22  N   UNL     1      -3.843   2.321  24.754  0.00  0.00    -0.187 NA
ATOM     23  C   UNL     1      -4.318   2.613  24.146  0.00  0.00    +0.344 C 
ATOM     24  O   UNL     1      -3.973   2.904  23.456  0.00  0.00    -0.249 OA
ATOM     25  N   UNL     1      -5.139   2.614  24.229  0.00  0.00    -0.159 NA
BRANCH  25  26
ATOM     26  C   UNL     1      -5.485   2.323  24.919  0.00  0.00    +0.102 A 
ATOM     27  C   UNL     1      -5.798   2.845  25.475  0.00  0.00    +0.158 A 
ATOM     28  F   UNL     1      -5.767   3.659  25.341  0.00  0.00    -0.203 F 
ATOM     29  C   UNL     1      -6.144   2.554  26.165  0.00  0.00    +0.061 A 
ATOM     30  C   UNL     1      -6.176   1.741  26.300  0.00  0.00    +0.142 A 
ATOM     31  F   UNL     1      -6.521   1.449  26.990  0.00  0.00    -0.204 F 
ATOM     32  C   UNL     1      -5.861   1.218  25.743  0.00  0.00    +0.031 A 
ATOM     33  C   UNL     1      -5.516   1.509  25.053  0.00  0.00    +0.021 A 
ENDBRANCH  25  26
ENDBRANCH  14  22
BRANCH  17  19
ATOM     19  C   UNL     1      -1.128   3.962  24.976  0.00  0.00    +0.143 C 
BRANCH  19  20
ATOM     20  S   UNL     1      -0.512   4.490  24.825  0.00  0.00    -0.130 S 
ATOM     21  C   UNL     1      -0.642   5.303  24.886  0.00  0.00    +0.070 C 
ENDBRANCH  19  20
ENDBRANCH  17  19
TORSDOF 7
ENDMDL
MODEL 6
REMARK VINA RESULT:      -8.7      2.643      4.555
REMARK  Name = 
REMARK  7 active torsions:
REMARK  status: ('A' for Active; 'I' for Inactive)
REMARK    1  A    between atoms: O_2  and  C_3
REMARK    2  A    between atoms: C_3  and  C_5
REMARK    3  A    between atoms: C_10  and  C_12
REMARK    4  A    between atoms: C_14  and  N_22
REMARK    5  A    between atoms: C_17  and  C_19
REMARK    6  A    between atoms: C_19  and  S_20
REMARK    7  A    between atoms: N_25  and  C_26
REMARK                            x       y       z     vdW  Elec       q    Type
REMARK                         _______ _______ _______ _____ _____    ______ ____
ROOT
ATOM     12  C   UNL     1      -1.856   0.385  24.139  0.00  0.00    +0.154 C 
ATOM     13  C   UNL     1      -2.259   1.104  24.119  0.00  0.00    +0.053 C 
ATOM     14  C   UNL     1      -3.035   0.969  24.368  0.00  0.00    +0.119 C 
ATOM     15  C   UNL     1      -3.111   0.166  24.541  0.00  0.00    +0.116 C 
ATOM     16  N   UNL     1      -2.382  -0.195  24.399  0.00  0.00    -0.270 N 
ATOM     17  C   UNL     1      -2.210  -0.996  24.500  0.00  0.00    +0.237 C 
ATOM     18  O   UNL     1      -1.453  -1.279  24.335  0.00  0.00    -0.274 OA
ENDROOT
BRANCH  12  10
ATOM      5  C   UNL     1       0.319   0.749  24.031  0.00  0.00    +0.175 C 
ATOM      6  C   UNL     1       0.689   1.390  24.396  0.00  0.00    +0.033 C 
ATOM      7  C   UNL     1       0.110   1.832  24.781  0.00  0.00    +0.024 C 
ATOM      8  C   UNL     1      -0.618   1.465  24.655  0.00  0.00    +0.094 C 
ATOM      9  N   UNL     1      -0.489   0.796  24.191  0.00  0.00    -0.270 N 
ATOM     10  C   UNL     1      -1.066   0.266  23.934  0.00  0.00    +0.244 C 
ATOM     11  O   UNL     1      -0.854  -0.383  23.470  0.00  0.00    -0.273 OA
BRANCH   5   3
ATOM      3  C   UNL     1       0.691   0.164  23.584  0.00  0.00    +0.335 C 
ATOM      4  O   UNL     1       0.878  -0.563  23.929  0.00  0.00    -0.248 OA
BRANCH   3   2
ATOM      1  C   UNL     1       1.530  -0.066  22.450  0.00  0.00    +0.256 C 
ATOM      2  O   UNL     1       0.878   0.304  22.793  0.00  0.00    -0.443 OA
ENDBRANCH   3   2
ENDBRANCH   5   3
ENDBRANCH  12  10
BRANCH  14  22
ATOM     22  N   UNL     1      -3.629   1.537  24.432  0.00  0.00    -0.187 NA
ATOM     23  C   UNL     1      -3.808   2.021  23.788  0.00  0.00    +0.344 C 
ATOM     24  O   UNL     1      -3.394   1.935  23.080  0.00  0.00    -0.249 OA
ATOM     25  N   UNL     1      -4.403   2.589  23.852  0.00  0.00    -0.159 NA
BRANCH  25  26
ATOM     26  C   UNL     1      -4.818   2.675  24.560  0.00  0.00    +0.102 A 
ATOM     27  C   UNL     1      -4.705   3.346  25.025  0.00  0.00    +0.158 A 
ATOM     28  F   UNL     1      -4.177   3.933  24.783  0.00  0.00    -0.203 F 
ATOM     29  C   UNL     1      -5.120   3.432  25.733  0.00  0.00    +0.061 A 
ATOM     30  C   UNL     1      -5.647   2.846  25.976  0.00  0.00    +0.142 A 
ATOM     31  F   UNL     1      -6.062   2.931  26.683  0.00  0.00    -0.204 F 
ATOM     32  C   UNL     1      -5.760   2.174  25.510  0.00  0.00    +0.031 A 
ATOM     33  C   UNL     1      -5.345   2.088  24.802  0.00  0.00    +0.021 A 
ENDBRANCH  25  26
ENDBRANCH  14  22
BRANCH  17  19
ATOM     19  C   UNL     1      -2.795  -1.513  24.766  0.00  0.00    +0.143 C 
BRANCH  19  20
ATOM     20  S   UNL     1      -2.673  -2.328  24.729  0.00  0.00    -0.130 S 
ATOM     21  C   UNL     1      -3.300  -2.845  24.875  0.00  0.00    +0.070 C 
ENDBRANCH  19  20
ENDBRANCH  17  19
TORSDOF 7
ENDMDL
