REMARK  Name = 
REMARK  4 active torsions:
REMARK  status: ('A' for Active; 'I' for Inactive)
REMARK    1  A    between atoms: C_2  and  N_3
REMARK    2  A    between atoms: N_6  and  C_7
REMARK    3  A    between atoms: C_11  and  N_15
REMARK    4  A    between atoms: C_18  and  C_22
REMARK                            x       y       z     vdW  Elec       q    Type
REMARK                         _______ _______ _______ _____ _____    ______ ____
ROOT
ATOM      7  C   UNL     1       6.286   1.204   0.000  0.00  0.00    +0.156 C 
ATOM      8  C   UNL     1       6.372   2.025   0.000  0.00  0.00    +0.166 C 
ATOM      9  O   UNL     1       7.179   2.196   0.000  0.00  0.00    -0.350 OA
ATOM     10  C   UNL     1       7.592   1.482   0.000  0.00  0.00    +0.166 C 
ATOM     11  C   UNL     1       8.345   1.146   0.000  0.00  0.00    +0.154 C 
ATOM     12  C   UNL     1       8.259   0.326   0.000  0.00  0.00    +0.166 C 
ATOM     13  O   UNL     1       7.452   0.154   0.000  0.00  0.00    -0.350 OA
ATOM     14  C   UNL     1       7.040   0.869   0.000  0.00  0.00    +0.166 C 
ENDROOT
BRANCH  11  15
ATOM     15  N   UNL     1       9.060   1.559   0.000  0.00  0.00    -0.200 NA
ATOM     16  C   UNL     1       9.774   1.146   0.000  0.00  0.00    +0.236 A 
ATOM     17  N   UNL     1      10.489   1.559   0.000  0.00  0.00    -0.217 NA
ATOM     18  C   UNL     1      11.203   1.146   0.000  0.00  0.00    +0.063 A 
ATOM     19  C   UNL     1      11.203   0.321   0.000  0.00  0.00    +0.035 A 
ATOM     20  C   UNL     1      10.489  -0.091   0.000  0.00  0.00    +0.103 A 
ATOM     21  N   UNL     1       9.774   0.321   0.000  0.00  0.00    -0.211 NA
BRANCH  18  22
ATOM     22  C   UNL     1      11.918   1.559   0.000  0.00  0.00    +0.036 C 
ATOM     23  C   UNL     1      12.632   1.971   0.000  0.00  0.00    +0.006 C 
ATOM     24  C   UNL     1      12.330   0.844   0.000  0.00  0.00    +0.006 C 
ATOM     25  C   UNL     1      11.505   2.273   0.000  0.00  0.00    +0.006 C 
ENDBRANCH  18  22
ENDBRANCH  11  15
BRANCH   7   6
ATOM      3  N   UNL     1       4.143   0.792   0.000  0.00  0.00    -0.187 NA
ATOM      4  C   UNL     1       4.857   1.204   0.000  0.00  0.00    +0.339 C 
ATOM      5  O   UNL     1       4.857   2.029   0.000  0.00  0.00    -0.249 OA
ATOM      6  N   UNL     1       5.572   0.792   0.000  0.00  0.00    -0.184 NA
BRANCH   3   2
ATOM      1  C   UNL     1       2.714   0.792   0.000  0.00  0.00    +0.025 C 
ATOM      2  C   UNL     1       3.428   1.204   0.000  0.00  0.00    +0.117 C 
ENDBRANCH   3   2
ENDBRANCH   7   6
TORSDOF 4
