REMARK  Name = 
REMARK  10 active torsions:
REMARK  status: ('A' for Active; 'I' for Inactive)
REMARK    1  A    between atoms: O_2  and  C_3
REMARK    2  A    between atoms: C_8  and  N_9
REMARK    3  A    between atoms: C_15  and  C_17
REMARK    4  A    between atoms: C_17  and  C_18
REMARK    5  A    between atoms: C_20  and  C_21
REMARK    6  A    between atoms: C_21  and  N_22
REMARK    7  A    between atoms: C_24  and  C_25
REMARK    8  A    between atoms: C_25  and  N_26
REMARK    9  A    between atoms: N_26  and  C_28
REMARK   10  A    between atoms: C_28  and  C_29
REMARK                            x       y       z     vdW  Elec       q    Type
REMARK                         _______ _______ _______ _____ _____    ______ ____
ROOT
ATOM     18  C   UNL     1       4.891  -4.091   0.000  0.00  0.00    +0.157 C 
ATOM     19  O   UNL     1       5.558  -4.576   0.000  0.00  0.00    -0.351 OA
ATOM     20  C   UNL     1       5.303  -5.361   0.000  0.00  0.00    +0.172 C 
ATOM     37  C   UNL     1       4.478  -5.361   0.000  0.00  0.00    +0.213 C 
ATOM     38  O   UNL     1       3.993  -6.028   0.000  0.00  0.00    -0.218 OA
ATOM     39  C   UNL     1       4.223  -4.576   0.000  0.00  0.00    +0.212 C 
ATOM     40  O   UNL     1       3.438  -4.321   0.000  0.00  0.00    -0.218 OA
ENDROOT
BRANCH  18  17
ATOM     17  C   UNL     1       4.891  -3.266   0.000  0.00  0.00    +0.117 C 
BRANCH  17  15
ATOM      9  N   UNL     1       4.176  -0.379   0.000  0.00  0.00    -0.302 N 
ATOM     10  C   UNL     1       4.891  -0.791   0.000  0.00  0.00    +0.112 C 
ATOM     11  C   UNL     1       4.891  -1.616   0.000  0.00  0.00    +0.115 C 
ATOM     12  N   UNL     1       4.176  -2.029   0.000  0.00  0.00    -0.276 N 
ATOM     13  C   UNL     1       3.462  -1.616   0.000  0.00  0.00    +0.115 C 
ATOM     14  C   UNL     1       3.462  -0.791   0.000  0.00  0.00    +0.112 C 
ATOM     15  C   UNL     1       4.176  -2.853   0.000  0.00  0.00    +0.228 C 
ATOM     16  O   UNL     1       3.462  -3.266   0.000  0.00  0.00    -0.275 OA
BRANCH   9   8
ATOM      3  C   UNL     1       3.462   0.859   0.000  0.00  0.00    +0.152 A 
ATOM      4  C   UNL     1       3.462   1.684   0.000  0.00  0.00    +0.038 A 
ATOM      5  C   UNL     1       4.176   2.096   0.000  0.00  0.00    +0.003 A 
ATOM      6  C   UNL     1       4.891   1.684   0.000  0.00  0.00    +0.001 A 
ATOM      7  C   UNL     1       4.891   0.859   0.000  0.00  0.00    +0.018 A 
ATOM      8  C   UNL     1       4.176   0.447   0.000  0.00  0.00    +0.082 A 
BRANCH   3   2
ATOM      1  C   UNL     1       2.033   0.859   0.000  0.00  0.00    +0.253 C 
ATOM      2  O   UNL     1       2.747   0.447   0.000  0.00  0.00    -0.470 OA
ENDBRANCH   3   2
ENDBRANCH   9   8
ENDBRANCH  17  15
ENDBRANCH  18  17
BRANCH  20  21
ATOM     21  C   UNL     1       5.788  -6.028   0.000  0.00  0.00    +0.161 C 
BRANCH  21  22
ATOM     22  N   UNL     1       5.452  -6.782   0.000  0.00  0.00    -0.228 N 
ATOM     23  C   UNL     1       5.865  -7.496   0.000  0.00  0.00    +0.115 A 
ATOM     24  C   UNL     1       5.313  -8.109   0.000  0.00  0.00    +0.117 A 
ATOM     35  N   UNL     1       4.559  -7.774   0.000  0.00  0.00    -0.132 NA
ATOM     36  N   UNL     1       4.646  -6.953   0.000  0.00  0.00    -0.064 NA
BRANCH  24  25
ATOM     25  C   UNL     1       5.484  -8.916   0.000  0.00  0.00    +0.122 C 
BRANCH  25  26
ATOM     26  N   UNL     1       4.871  -9.468   0.000  0.00  0.00    -0.263 NA
ATOM     27  C   UNL     1       4.087  -9.213   0.000  0.00  0.00    +0.090 C 
BRANCH  26  28
ATOM     28  C   UNL     1       5.043 -10.275   0.000  0.00  0.00    +0.099 C 
BRANCH  28  29
ATOM     29  C   UNL     1       4.430 -10.827   0.000  0.00  0.00    -0.006 A 
ATOM     30  C   UNL     1       4.601 -11.634   0.000  0.00  0.00    -0.003 A 
ATOM     31  C   UNL     1       3.988 -12.186   0.000  0.00  0.00    -0.000 A 
ATOM     32  C   UNL     1       3.204 -11.931   0.000  0.00  0.00    -0.000 A 
ATOM     33  C   UNL     1       3.032 -11.124   0.000  0.00  0.00    -0.000 A 
ATOM     34  C   UNL     1       3.645 -10.572   0.000  0.00  0.00    -0.003 A 
ENDBRANCH  28  29
ENDBRANCH  26  28
ENDBRANCH  25  26
ENDBRANCH  24  25
ENDBRANCH  21  22
ENDBRANCH  20  21
TORSDOF 10
