REMARK  Name = 
REMARK  5 active torsions:
REMARK  status: ('A' for Active; 'I' for Inactive)
REMARK    1  A    between atoms: C_2  and  C_3
REMARK    2  A    between atoms: C_10  and  C_11
REMARK    3  A    between atoms: C_11  and  N_12
REMARK    4  A    between atoms: N_12  and  S_13
REMARK    5  A    between atoms: S_13  and  C_16
REMARK                            x       y       z     vdW  Elec       q    Type
REMARK                         _______ _______ _______ _____ _____    ______ ____
ROOT
ATOM      3  C   UNL     1       1.661  -1.343   0.000  0.00  0.00    +0.016 C 
ATOM      4  C   UNL     1       1.814  -2.106   0.000  0.00  0.00    +0.072 C 
ATOM      5  N   UNL     1       1.065  -1.759   0.000  0.00  0.00    -0.273 NA
ATOM      6  C   UNL     1       1.205  -0.720   0.000  0.00  0.00    +0.072 C 
ATOM      7  C   UNL     1       0.961  -0.114   0.000  0.00  0.00    +0.017 C 
ATOM      8  C   UNL     1       0.923  -1.010   0.000  0.00  0.00    +0.004 C 
ATOM      9  C   UNL     1       0.119  -1.362   0.000  0.00  0.00    +0.018 C 
ATOM     10  C   UNL     1       0.226  -2.118   0.000  0.00  0.00    +0.077 C 
ENDROOT
BRANCH   3   2
ATOM      1  C   UNL     1       2.184  -0.013   0.000  0.00  0.00    +0.000 C 
ATOM      2  C   UNL     1       2.307  -0.828   0.000  0.00  0.00    +0.001 C 
ENDBRANCH   3   2
BRANCH  10  11
ATOM     11  C   UNL     1      -0.179  -2.836   0.000  0.00  0.00    +0.131 C 
BRANCH  11  12
ATOM     12  N   UNL     1       0.241  -3.546   0.000  0.00  0.00    -0.076 NA
BRANCH  12  13
ATOM     13  S   UNL     1      -0.163  -4.265   0.000  0.00  0.00    +0.083 S 
ATOM     14  O   UNL     1      -0.882  -3.860   0.000  0.00  0.00    -0.151 OA
ATOM     15  O   UNL     1       0.556  -4.670   0.000  0.00  0.00    -0.151 OA
BRANCH  13  16
ATOM     16  C   UNL     1      -0.568  -4.984   0.000  0.00  0.00    +0.153 A 
ATOM     17  C   UNL     1      -0.225  -5.734   0.000  0.00  0.00    +0.027 A 
ATOM     18  C   UNL     1      -0.832  -6.293   0.000  0.00  0.00    +0.009 A 
ATOM     19  C   UNL     1      -1.550  -5.888   0.000  0.00  0.00    +0.037 A 
ATOM     20  S   UNL     1      -1.388  -5.079   0.000  0.00  0.00    -0.067 S 
ENDBRANCH  13  16
ENDBRANCH  12  13
ENDBRANCH  11  12
ENDBRANCH  10  11
TORSDOF 5
