MODEL 1
REMARK VINA RESULT:     -13.9      0.000      0.000
REMARK  Name = 
REMARK  3 active torsions:
REMARK  status: ('A' for Active; 'I' for Inactive)
REMARK    1  A    between atoms: O_2  and  C_3
REMARK    2  A    between atoms: C_6  and  C_9
REMARK    3  A    between atoms: C_17  and  C_19
REMARK                            x       y       z     vdW  Elec       q    Type
REMARK                         _______ _______ _______ _____ _____    ______ ____
ROOT
ATOM      9  C   UNL     1      -3.314   2.101  24.995  0.00  0.00    +0.012 A 
ATOM     10  C   UNL     1      -2.832   1.448  24.849  0.00  0.00    +0.041 A 
ATOM     11  C   UNL     1      -1.949   1.227  24.723  0.00  0.00    +0.058 C 
ATOM     12  C   UNL     1      -1.308   1.513  24.697  0.00  0.00    +0.011 C 
ATOM     13  C   UNL     1      -1.641   0.773  24.624  0.00  0.00    +0.043 C 
ATOM     14  C   UNL     1      -1.850  -0.186  24.506  0.00  0.00    +0.096 C 
ATOM     15  N   UNL     1      -2.680  -0.160  24.597  0.00  0.00    -0.276 N 
ATOM     16  C   UNL     1      -2.135   0.298  24.607  0.00  0.00    +0.099 C 
ATOM     17  C   UNL     1      -3.459  -0.431  24.640  0.00  0.00    +0.249 C 
ATOM     18  O   UNL     1      -4.074   0.101  24.782  0.00  0.00    -0.270 OA
ATOM     25  C   UNL     1      -2.566   0.994  24.754  0.00  0.00    +0.110 C 
ATOM     26  N   UNL     1      -3.166   0.698  24.774  0.00  0.00    -0.299 N 
ATOM     27  C   UNL     1      -3.982   0.600  24.846  0.00  0.00    +0.261 A 
ATOM     28  O   UNL     1      -4.530  -0.015  24.814  0.00  0.00    -0.267 OA
ATOM     29  C   UNL     1      -4.464   1.253  24.992  0.00  0.00    +0.061 A 
ATOM     30  C   UNL     1      -4.130   2.004  25.067  0.00  0.00    +0.006 A 
ENDROOT
BRANCH   9   6
ATOM      3  C   UNL     1      -2.312   4.354  25.220  0.00  0.00    +0.139 A 
ATOM      4  C   UNL     1      -2.388   3.869  25.882  0.00  0.00    +0.037 A 
ATOM      5  C   UNL     1      -2.722   3.118  25.807  0.00  0.00    +0.003 A 
ATOM      6  C   UNL     1      -2.980   2.852  25.070  0.00  0.00    +0.001 A 
ATOM      7  C   UNL     1      -2.904   3.338  24.408  0.00  0.00    +0.003 A 
ATOM      8  C   UNL     1      -2.570   4.089  24.482  0.00  0.00    +0.037 A 
BRANCH   3   2
ATOM      1  C   UNL     1      -1.205   5.240  25.040  0.00  0.00    +0.252 C 
ATOM      2  O   UNL     1      -1.978   5.104  25.294  0.00  0.00    -0.471 OA
ENDBRANCH   3   2
ENDBRANCH   9   6
BRANCH  17  19
ATOM     19  C   UNL     1      -3.622  -1.233  24.539  0.00  0.00    +0.057 A 
ATOM     20  C   UNL     1      -3.964  -1.501  23.838  0.00  0.00    +0.025 A 
ATOM     21  C   UNL     1      -4.127  -2.304  23.738  0.00  0.00    +0.099 A 
ATOM     22  N   UNL     1      -3.948  -2.839  24.340  0.00  0.00    -0.242 NA
ATOM     23  C   UNL     1      -3.606  -2.572  25.041  0.00  0.00    +0.099 A 
ATOM     24  C   UNL     1      -3.442  -1.769  25.141  0.00  0.00    +0.025 A 
ENDBRANCH  17  19
TORSDOF 3
ENDMDL
MODEL 2
REMARK VINA RESULT:     -13.7      1.617      4.844
REMARK  Name = 
REMARK  3 active torsions:
REMARK  status: ('A' for Active; 'I' for Inactive)
REMARK    1  A    between atoms: O_2  and  C_3
REMARK    2  A    between atoms: C_6  and  C_9
REMARK    3  A    between atoms: C_17  and  C_19
REMARK                            x       y       z     vdW  Elec       q    Type
REMARK                         _______ _______ _______ _____ _____    ______ ____
ROOT
ATOM      9  C   UNL     1      -2.131   0.027  25.223  0.00  0.00    +0.012 A 
ATOM     10  C   UNL     1      -2.471   0.701  24.890  0.00  0.00    +0.041 A 
ATOM     11  C   UNL     1      -3.193   0.960  24.383  0.00  0.00    +0.058 C 
ATOM     12  C   UNL     1      -3.761   0.702  24.062  0.00  0.00    +0.011 C 
ATOM     13  C   UNL     1      -3.406   1.428  24.167  0.00  0.00    +0.043 C 
ATOM     14  C   UNL     1      -3.133   2.378  24.181  0.00  0.00    +0.096 C 
ATOM     15  N   UNL     1      -2.437   2.317  24.639  0.00  0.00    -0.276 N 
ATOM     16  C   UNL     1      -2.942   1.882  24.388  0.00  0.00    +0.099 C 
ATOM     17  C   UNL     1      -1.755   2.555  25.037  0.00  0.00    +0.249 C 
ATOM     18  O   UNL     1      -1.290   1.996  25.430  0.00  0.00    -0.270 OA
ATOM     25  C   UNL     1      -2.649   1.167  24.697  0.00  0.00    +0.110 C 
ATOM     26  N   UNL     1      -2.115   1.438  24.995  0.00  0.00    -0.299 N 
ATOM     27  C   UNL     1      -1.418   1.501  25.432  0.00  0.00    +0.261 A 
ATOM     28  O   UNL     1      -0.894   2.092  25.668  0.00  0.00    -0.267 OA
ATOM     29  C   UNL     1      -1.078   0.827  25.764  0.00  0.00    +0.061 A 
ATOM     30  C   UNL     1      -1.434   0.090  25.660  0.00  0.00    +0.006 A 
ENDROOT
BRANCH   9   6
ATOM      3  C   UNL     1      -3.201  -2.183  24.909  0.00  0.00    +0.139 A 
ATOM      4  C   UNL     1      -2.614  -1.931  24.387  0.00  0.00    +0.037 A 
ATOM      5  C   UNL     1      -2.258  -1.194  24.492  0.00  0.00    +0.003 A 
ATOM      6  C   UNL     1      -2.488  -0.709  25.118  0.00  0.00    +0.001 A 
ATOM      7  C   UNL     1      -3.074  -0.961  25.641  0.00  0.00    +0.003 A 
ATOM      8  C   UNL     1      -3.431  -1.698  25.536  0.00  0.00    +0.037 A 
BRANCH   3   2
ATOM      1  C   UNL     1      -3.988  -3.075  24.119  0.00  0.00    +0.252 C 
ATOM      2  O   UNL     1      -3.557  -2.919  24.805  0.00  0.00    -0.471 OA
ENDBRANCH   3   2
ENDBRANCH   9   6
BRANCH  17  19
ATOM     19  C   UNL     1      -1.537   3.350  25.042  0.00  0.00    +0.057 A 
ATOM     20  C   UNL     1      -0.917   3.611  24.565  0.00  0.00    +0.025 A 
ATOM     21  C   UNL     1      -0.699   4.408  24.571  0.00  0.00    +0.099 A 
ATOM     22  N   UNL     1      -1.101   4.941  25.054  0.00  0.00    -0.242 NA
ATOM     23  C   UNL     1      -1.721   4.681  25.531  0.00  0.00    +0.099 A 
ATOM     24  C   UNL     1      -1.939   3.885  25.526  0.00  0.00    +0.025 A 
ENDBRANCH  17  19
TORSDOF 3
ENDMDL
