MODEL 1
REMARK VINA RESULT:     -11.7      0.000      0.000
REMARK  Name = 
REMARK  8 active torsions:
REMARK  status: ('A' for Active; 'I' for Inactive)
REMARK    1  A    between atoms: O_2  and  C_3
REMARK    2  A    between atoms: C_8  and  C_10
REMARK    3  A    between atoms: N_12  and  C_13
REMARK    4  A    between atoms: C_13  and  C_14
REMARK    5  A    between atoms: C_16  and  C_17
REMARK    6  A    between atoms: C_21  and  N_22
REMARK    7  A    between atoms: N_25  and  C_28
REMARK    8  A    between atoms: C_30  and  C_34
REMARK                            x       y       z     vdW  Elec       q    Type
REMARK                         _______ _______ _______ _____ _____    ______ ____
ROOT
ATOM     14  C   UNL     1      -4.006   2.408  25.288  0.00  0.00    +0.154 C 
ATOM     15  O   UNL     1      -4.431   3.104  25.418  0.00  0.00    -0.350 OA
ATOM     16  C   UNL     1      -5.231   2.941  25.295  0.00  0.00    +0.180 C 
ATOM     19  C   UNL     1      -5.301   2.145  25.089  0.00  0.00    +0.198 C 
ATOM     20  O   UNL     1      -6.003   1.749  24.917  0.00  0.00    -0.219 OA
ATOM     21  C   UNL     1      -4.544   1.816  25.085  0.00  0.00    +0.120 C 
ENDROOT
BRANCH  21  22
ATOM     22  N   UNL     1      -4.358   1.031  24.908  0.00  0.00    -0.267 NA
ATOM     23  C   UNL     1      -4.385   0.458  25.501  0.00  0.00    +0.094 C 
ATOM     24  C   UNL     1      -4.199  -0.326  25.325  0.00  0.00    +0.108 C 
ATOM     25  N   UNL     1      -3.986  -0.537  24.556  0.00  0.00    -0.305 N 
ATOM     26  C   UNL     1      -3.959   0.037  23.964  0.00  0.00    +0.108 C 
ATOM     27  C   UNL     1      -4.145   0.821  24.139  0.00  0.00    +0.094 C 
BRANCH  25  28
ATOM     28  C   UNL     1      -3.800  -1.320  24.379  0.00  0.00    +0.048 A 
ATOM     29  C   UNL     1      -3.061  -1.625  24.583  0.00  0.00    +0.018 A 
ATOM     30  C   UNL     1      -2.874  -2.409  24.407  0.00  0.00    +0.073 A 
ATOM     31  C   UNL     1      -3.427  -2.889  24.026  0.00  0.00    +0.004 A 
ATOM     32  C   UNL     1      -4.166  -2.585  23.822  0.00  0.00    +0.001 A 
ATOM     33  C   UNL     1      -4.352  -1.800  23.998  0.00  0.00    +0.015 A 
BRANCH  30  34
ATOM     34  C   UNL     1      -2.135  -2.713  24.611  0.00  0.00    +0.419 C 
ATOM     35  F   UNL     1      -1.396  -3.017  24.815  0.00  0.00    -0.166 F 
ATOM     36  F   UNL     1      -1.838  -2.483  23.877  0.00  0.00    -0.166 F 
ATOM     37  F   UNL     1      -2.433  -2.943  25.345  0.00  0.00    -0.166 F 
ENDBRANCH  30  34
ENDBRANCH  25  28
ENDBRANCH  21  22
BRANCH  16  17
ATOM     17  C   UNL     1      -5.851   3.480  25.365  0.00  0.00    +0.214 C 
ATOM     18  O   UNL     1      -5.727   4.203  25.745  0.00  0.00    -0.218 OA
ENDBRANCH  16  17
BRANCH  14  13
ATOM     13  C   UNL     1      -3.189   2.320  25.350  0.00  0.00    +0.146 C 
BRANCH  13  12
ATOM     10  C   UNL     1      -1.888   2.908  25.288  0.00  0.00    +0.266 C 
ATOM     11  O   UNL     1      -1.590   2.296  25.753  0.00  0.00    -0.268 OA
ATOM     12  N   UNL     1      -2.688   2.920  25.087  0.00  0.00    -0.199 NA
BRANCH  10   8
ATOM      3  C   UNL     1      -1.023   4.890  24.990  0.00  0.00    +0.139 A 
ATOM      4  C   UNL     1      -0.387   4.710  24.498  0.00  0.00    +0.038 A 
ATOM      5  C   UNL     1      -0.251   3.928  24.269  0.00  0.00    +0.015 A 
ATOM      6  C   UNL     1      -0.751   3.328  24.532  0.00  0.00    +0.062 A 
ATOM      7 CL   UNL     1      -0.615   2.548  24.303  0.00  0.00    -0.082 Cl
ATOM      8  C   UNL     1      -1.388   3.508  25.025  0.00  0.00    +0.069 A 
ATOM      9  C   UNL     1      -1.524   4.290  25.254  0.00  0.00    +0.042 A 
BRANCH   3   2
ATOM      1  C   UNL     1      -1.832   6.068  24.954  0.00  0.00    +0.252 C 
ATOM      2  O   UNL     1      -1.160   5.671  25.219  0.00  0.00    -0.471 OA
ENDBRANCH   3   2
ENDBRANCH  10   8
ENDBRANCH  13  12
ENDBRANCH  14  13
TORSDOF 8
ENDMDL
MODEL 2
REMARK VINA RESULT:     -10.9      3.197      6.281
REMARK  Name = 
REMARK  8 active torsions:
REMARK  status: ('A' for Active; 'I' for Inactive)
REMARK    1  A    between atoms: O_2  and  C_3
REMARK    2  A    between atoms: C_8  and  C_10
REMARK    3  A    between atoms: N_12  and  C_13
REMARK    4  A    between atoms: C_13  and  C_14
REMARK    5  A    between atoms: C_16  and  C_17
REMARK    6  A    between atoms: C_21  and  N_22
REMARK    7  A    between atoms: N_25  and  C_28
REMARK    8  A    between atoms: C_30  and  C_34
REMARK                            x       y       z     vdW  Elec       q    Type
REMARK                         _______ _______ _______ _____ _____    ______ ____
ROOT
ATOM     14  C   UNL     1      -0.195   0.031  24.175  0.00  0.00    +0.154 C 
ATOM     15  O   UNL     1       0.302  -0.490  23.774  0.00  0.00    -0.350 OA
ATOM     16  C   UNL     1       0.826  -0.044  23.318  0.00  0.00    +0.180 C 
ATOM     19  C   UNL     1       0.652   0.754  23.439  0.00  0.00    +0.198 C 
ATOM     20  O   UNL     1       1.041   1.392  23.091  0.00  0.00    -0.219 OA
ATOM     21  C   UNL     1       0.021   0.800  23.968  0.00  0.00    +0.120 C 
ENDROOT
BRANCH  21  22
ATOM     22  N   UNL     1      -0.332   1.494  24.243  0.00  0.00    -0.267 NA
ATOM     23  C   UNL     1      -0.940   1.846  23.810  0.00  0.00    +0.094 C 
ATOM     24  C   UNL     1      -1.292   2.539  24.084  0.00  0.00    +0.108 C 
ATOM     25  N   UNL     1      -1.037   2.881  24.791  0.00  0.00    -0.305 N 
ATOM     26  C   UNL     1      -0.429   2.529  25.222  0.00  0.00    +0.108 C 
ATOM     27  C   UNL     1      -0.076   1.835  24.949  0.00  0.00    +0.094 C 
BRANCH  25  28
ATOM     28  C   UNL     1      -1.389   3.574  25.065  0.00  0.00    +0.048 A 
ATOM     29  C   UNL     1      -2.114   3.541  25.457  0.00  0.00    +0.018 A 
ATOM     30  C   UNL     1      -2.467   4.235  25.732  0.00  0.00    +0.073 A 
ATOM     31  C   UNL     1      -2.095   4.962  25.614  0.00  0.00    +0.004 A 
ATOM     32  C   UNL     1      -1.370   4.995  25.222  0.00  0.00    +0.001 A 
ATOM     33  C   UNL     1      -1.017   4.301  24.947  0.00  0.00    +0.015 A 
BRANCH  30  34
ATOM     34  C   UNL     1      -3.192   4.201  26.124  0.00  0.00    +0.419 C 
ATOM     35  F   UNL     1      -3.917   4.168  26.516  0.00  0.00    -0.166 F 
ATOM     36  F   UNL     1      -3.585   4.222  25.399  0.00  0.00    -0.166 F 
ATOM     37  F   UNL     1      -2.799   4.181  26.849  0.00  0.00    -0.166 F 
ENDBRANCH  30  34
ENDBRANCH  25  28
ENDBRANCH  21  22
BRANCH  16  17
ATOM     17  C   UNL     1       1.419  -0.343  22.829  0.00  0.00    +0.214 C 
ATOM     18  O   UNL     1       1.221  -0.687  22.105  0.00  0.00    -0.218 OA
ENDBRANCH  16  17
BRANCH  14  13
ATOM     13  C   UNL     1      -0.802  -0.179  24.692  0.00  0.00    +0.146 C 
BRANCH  13  12
ATOM     10  C   UNL     1      -1.908  -1.036  24.981  0.00  0.00    +0.266 C 
ATOM     11  O   UNL     1      -1.786  -0.921  25.789  0.00  0.00    -0.268 OA
ATOM     12  N   UNL     1      -1.416  -0.665  24.433  0.00  0.00    -0.199 NA
BRANCH  10   8
ATOM      3  C   UNL     1      -3.847  -1.674  24.208  0.00  0.00    +0.139 A 
ATOM      4  C   UNL     1      -3.751  -2.493  24.201  0.00  0.00    +0.038 A 
ATOM      5  C   UNL     1      -3.039  -2.827  24.455  0.00  0.00    +0.015 A 
ATOM      6  C   UNL     1      -2.425  -2.341  24.715  0.00  0.00    +0.062 A 
ATOM      7 CL   UNL     1      -1.715  -2.675  24.968  0.00  0.00    -0.082 Cl
ATOM      8  C   UNL     1      -2.521  -1.522  24.722  0.00  0.00    +0.069 A 
ATOM      9  C   UNL     1      -3.233  -1.188  24.468  0.00  0.00    +0.042 A 
BRANCH   3   2
ATOM      1  C   UNL     1      -4.782  -0.593  24.222  0.00  0.00    +0.252 C 
ATOM      2  O   UNL     1      -4.558  -1.340  23.954  0.00  0.00    -0.471 OA
ENDBRANCH   3   2
ENDBRANCH  10   8
ENDBRANCH  13  12
ENDBRANCH  14  13
TORSDOF 8
ENDMDL
MODEL 3
REMARK VINA RESULT:     -10.8      1.579      3.581
REMARK  Name = 
REMARK  8 active torsions:
REMARK  status: ('A' for Active; 'I' for Inactive)
REMARK    1  A    between atoms: O_2  and  C_3
REMARK    2  A    between atoms: C_8  and  C_10
REMARK    3  A    between atoms: N_12  and  C_13
REMARK    4  A    between atoms: C_13  and  C_14
REMARK    5  A    between atoms: C_16  and  C_17
REMARK    6  A    between atoms: C_21  and  N_22
REMARK    7  A    between atoms: N_25  and  C_28
REMARK    8  A    between atoms: C_30  and  C_34
REMARK                            x       y       z     vdW  Elec       q    Type
REMARK                         _______ _______ _______ _____ _____    ______ ____
ROOT
ATOM     14  C   UNL     1      -1.872   2.648  24.461  0.00  0.00    +0.154 C 
ATOM     15  O   UNL     1      -1.555   3.405  24.550  0.00  0.00    -0.350 OA
ATOM     16  C   UNL     1      -0.787   3.327  24.843  0.00  0.00    +0.180 C 
ATOM     19  C   UNL     1      -0.629   2.523  24.934  0.00  0.00    +0.198 C 
ATOM     20  O   UNL     1       0.075   2.196  25.212  0.00  0.00    -0.219 OA
ATOM     21  C   UNL     1      -1.299   2.103  24.698  0.00  0.00    +0.120 C 
ENDROOT
BRANCH  21  22
ATOM     22  N   UNL     1      -1.382   1.282  24.699  0.00  0.00    -0.267 NA
ATOM     23  C   UNL     1      -1.568   0.887  25.400  0.00  0.00    +0.094 C 
ATOM     24  C   UNL     1      -1.651   0.067  25.401  0.00  0.00    +0.108 C 
ATOM     25  N   UNL     1      -1.548  -0.360  24.702  0.00  0.00    -0.305 N 
ATOM     26  C   UNL     1      -1.362   0.035  24.002  0.00  0.00    +0.108 C 
ATOM     27  C   UNL     1      -1.279   0.856  24.000  0.00  0.00    +0.094 C 
BRANCH  25  28
ATOM     28  C   UNL     1      -1.631  -1.180  24.702  0.00  0.00    +0.048 A 
ATOM     29  C   UNL     1      -2.381  -1.518  24.655  0.00  0.00    +0.018 A 
ATOM     30  C   UNL     1      -2.465  -2.340  24.655  0.00  0.00    +0.073 A 
ATOM     31  C   UNL     1      -1.797  -2.822  24.704  0.00  0.00    +0.004 A 
ATOM     32  C   UNL     1      -1.046  -2.484  24.752  0.00  0.00    +0.001 A 
ATOM     33  C   UNL     1      -0.963  -1.662  24.751  0.00  0.00    +0.015 A 
BRANCH  30  34
ATOM     34  C   UNL     1      -3.215  -2.678  24.607  0.00  0.00    +0.419 C 
ATOM     35  F   UNL     1      -3.966  -3.017  24.559  0.00  0.00    -0.166 F 
ATOM     36  F   UNL     1      -3.181  -2.639  23.784  0.00  0.00    -0.166 F 
ATOM     37  F   UNL     1      -3.250  -2.718  25.431  0.00  0.00    -0.166 F 
ENDBRANCH  30  34
ENDBRANCH  25  28
ENDBRANCH  21  22
BRANCH  16  17
ATOM     17  C   UNL     1      -0.269   3.946  25.014  0.00  0.00    +0.214 C 
ATOM     18  O   UNL     1      -0.537   4.727  24.988  0.00  0.00    -0.218 OA
ENDBRANCH  16  17
BRANCH  14  13
ATOM     13  C   UNL     1      -2.626   2.468  24.184  0.00  0.00    +0.146 C 
BRANCH  13  12
ATOM     10  C   UNL     1      -4.044   2.562  24.341  0.00  0.00    +0.266 C 
ATOM     11  O   UNL     1      -4.144   2.392  23.541  0.00  0.00    -0.268 OA
ATOM     12  N   UNL     1      -3.285   2.601  24.663  0.00  0.00    -0.199 NA
BRANCH  10   8
ATOM      3  C   UNL     1      -5.510   3.584  25.595  0.00  0.00    +0.139 A 
ATOM      4  C   UNL     1      -6.017   2.961  25.780  0.00  0.00    +0.038 A 
ATOM      5  C   UNL     1      -5.867   2.204  25.486  0.00  0.00    +0.015 A 
ATOM      6  C   UNL     1      -5.209   2.072  25.006  0.00  0.00    +0.062 A 
ATOM      7 CL   UNL     1      -5.059   1.316  24.712  0.00  0.00    -0.082 Cl
ATOM      8  C   UNL     1      -4.701   2.695  24.820  0.00  0.00    +0.069 A 
ATOM      9  C   UNL     1      -4.851   3.452  25.115  0.00  0.00    +0.042 A 
BRANCH   3   2
ATOM      1  C   UNL     1      -6.214   4.825  25.517  0.00  0.00    +0.252 C 
ATOM      2  O   UNL     1      -5.660   4.340  25.889  0.00  0.00    -0.471 OA
ENDBRANCH   3   2
ENDBRANCH  10   8
ENDBRANCH  13  12
ENDBRANCH  14  13
TORSDOF 8
ENDMDL
MODEL 4
REMARK VINA RESULT:     -10.4      2.877      5.585
REMARK  Name = 
REMARK  8 active torsions:
REMARK  status: ('A' for Active; 'I' for Inactive)
REMARK    1  A    between atoms: O_2  and  C_3
REMARK    2  A    between atoms: C_8  and  C_10
REMARK    3  A    between atoms: N_12  and  C_13
REMARK    4  A    between atoms: C_13  and  C_14
REMARK    5  A    between atoms: C_16  and  C_17
REMARK    6  A    between atoms: C_21  and  N_22
REMARK    7  A    between atoms: N_25  and  C_28
REMARK    8  A    between atoms: C_30  and  C_34
REMARK                            x       y       z     vdW  Elec       q    Type
REMARK                         _______ _______ _______ _____ _____    ______ ____
ROOT
ATOM     14  C   UNL     1      -0.760   1.337  24.928  0.00  0.00    +0.154 C 
ATOM     15  O   UNL     1       0.024   1.311  24.674  0.00  0.00    -0.350 OA
ATOM     16  C   UNL     1       0.187   2.016  24.278  0.00  0.00    +0.180 C 
ATOM     19  C   UNL     1      -0.496   2.478  24.287  0.00  0.00    +0.198 C 
ATOM     20  O   UNL     1      -0.579   3.227  23.953  0.00  0.00    -0.219 OA
ATOM     21  C   UNL     1      -1.082   2.059  24.689  0.00  0.00    +0.120 C 
ENDROOT
BRANCH  21  22
ATOM     22  N   UNL     1      -1.854   2.316  24.828  0.00  0.00    -0.267 NA
ATOM     23  C   UNL     1      -2.437   2.195  24.256  0.00  0.00    +0.094 C 
ATOM     24  C   UNL     1      -3.208   2.452  24.395  0.00  0.00    +0.108 C 
ATOM     25  N   UNL     1      -3.397   2.830  25.104  0.00  0.00    -0.305 N 
ATOM     26  C   UNL     1      -2.813   2.950  25.675  0.00  0.00    +0.108 C 
ATOM     27  C   UNL     1      -2.041   2.693  25.537  0.00  0.00    +0.094 C 
BRANCH  25  28
ATOM     28  C   UNL     1      -4.168   3.087  25.243  0.00  0.00    +0.048 A 
ATOM     29  C   UNL     1      -4.759   2.540  25.420  0.00  0.00    +0.018 A 
ATOM     30  C   UNL     1      -5.531   2.797  25.559  0.00  0.00    +0.073 A 
ATOM     31  C   UNL     1      -5.712   3.601  25.521  0.00  0.00    +0.004 A 
ATOM     32  C   UNL     1      -5.120   4.148  25.344  0.00  0.00    +0.001 A 
ATOM     33  C   UNL     1      -4.348   3.891  25.205  0.00  0.00    +0.015 A 
BRANCH  30  34
ATOM     34  C   UNL     1      -6.123   2.249  25.735  0.00  0.00    +0.419 C 
ATOM     35  F   UNL     1      -6.714   1.702  25.912  0.00  0.00    -0.166 F 
ATOM     36  F   UNL     1      -5.961   2.335  26.540  0.00  0.00    -0.166 F 
ATOM     37  F   UNL     1      -6.284   2.164  24.931  0.00  0.00    -0.166 F 
ENDBRANCH  30  34
ENDBRANCH  25  28
ENDBRANCH  21  22
BRANCH  16  17
ATOM     17  C   UNL     1       0.908   2.222  23.933  0.00  0.00    +0.214 C 
ATOM     18  O   UNL     1       1.509   1.659  23.866  0.00  0.00    -0.218 OA
ENDBRANCH  16  17
BRANCH  14  13
ATOM     13  C   UNL     1      -1.154   0.747  25.348  0.00  0.00    +0.146 C 
BRANCH  13  12
ATOM     10  C   UNL     1      -1.520  -0.631  25.444  0.00  0.00    +0.266 C 
ATOM     11  O   UNL     1      -1.546  -0.567  26.265  0.00  0.00    -0.268 OA
ATOM     12  N   UNL     1      -1.324   0.026  24.985  0.00  0.00    -0.199 NA
BRANCH  10   8
ATOM      3  C   UNL     1      -2.599  -2.195  24.368  0.00  0.00    +0.139 A 
ATOM      4  C   UNL     1      -2.032  -2.793  24.352  0.00  0.00    +0.038 A 
ATOM      5  C   UNL     1      -1.293  -2.670  24.701  0.00  0.00    +0.015 A 
ATOM      6  C   UNL     1      -1.123  -1.950  25.064  0.00  0.00    +0.062 A 
ATOM      7 CL   UNL     1      -0.385  -1.828  25.412  0.00  0.00    -0.082 Cl
ATOM      8  C   UNL     1      -1.691  -1.351  25.080  0.00  0.00    +0.069 A 
ATOM      9  C   UNL     1      -2.429  -1.474  24.732  0.00  0.00    +0.042 A 
BRANCH   3   2
ATOM      1  C   UNL     1      -3.854  -2.877  24.334  0.00  0.00    +0.252 C 
ATOM      2  O   UNL     1      -3.337  -2.317  24.020  0.00  0.00    -0.471 OA
ENDBRANCH   3   2
ENDBRANCH  10   8
ENDBRANCH  13  12
ENDBRANCH  14  13
TORSDOF 8
ENDMDL
MODEL 5
REMARK VINA RESULT:     -10.4      2.440      5.269
REMARK  Name = 
REMARK  8 active torsions:
REMARK  status: ('A' for Active; 'I' for Inactive)
REMARK    1  A    between atoms: O_2  and  C_3
REMARK    2  A    between atoms: C_8  and  C_10
REMARK    3  A    between atoms: N_12  and  C_13
REMARK    4  A    between atoms: C_13  and  C_14
REMARK    5  A    between atoms: C_16  and  C_17
REMARK    6  A    between atoms: C_21  and  N_22
REMARK    7  A    between atoms: N_25  and  C_28
REMARK    8  A    between atoms: C_30  and  C_34
REMARK                            x       y       z     vdW  Elec       q    Type
REMARK                         _______ _______ _______ _____ _____    ______ ____
ROOT
ATOM     14  C   UNL     1      -4.925   1.560  25.004  0.00  0.00    +0.154 C 
ATOM     15  O   UNL     1      -5.679   1.323  25.240  0.00  0.00    -0.350 OA
ATOM     16  C   UNL     1      -5.993   1.915  25.722  0.00  0.00    +0.180 C 
ATOM     19  C   UNL     1      -5.433   2.517  25.784  0.00  0.00    +0.198 C 
ATOM     20  O   UNL     1      -5.517   3.216  26.214  0.00  0.00    -0.219 OA
ATOM     21  C   UNL     1      -4.772   2.298  25.340  0.00  0.00    +0.120 C 
ENDROOT
BRANCH  21  22
ATOM     22  N   UNL     1      -4.081   2.739  25.248  0.00  0.00    -0.267 NA
ATOM     23  C   UNL     1      -3.980   3.213  24.580  0.00  0.00    +0.094 C 
ATOM     24  C   UNL     1      -3.289   3.654  24.488  0.00  0.00    +0.108 C 
ATOM     25  N   UNL     1      -2.699   3.621  25.064  0.00  0.00    -0.305 N 
ATOM     26  C   UNL     1      -2.800   3.147  25.732  0.00  0.00    +0.108 C 
ATOM     27  C   UNL     1      -3.491   2.706  25.824  0.00  0.00    +0.094 C 
BRANCH  25  28
ATOM     28  C   UNL     1      -2.008   4.061  24.973  0.00  0.00    +0.048 A 
ATOM     29  C   UNL     1      -1.332   3.707  24.661  0.00  0.00    +0.018 A 
ATOM     30  C   UNL     1      -0.640   4.148  24.570  0.00  0.00    +0.073 A 
ATOM     31  C   UNL     1      -0.625   4.943  24.790  0.00  0.00    +0.004 A 
ATOM     32  C   UNL     1      -1.301   5.297  25.101  0.00  0.00    +0.001 A 
ATOM     33  C   UNL     1      -1.993   4.857  25.193  0.00  0.00    +0.015 A 
BRANCH  30  34
ATOM     34  C   UNL     1       0.037   3.794  24.258  0.00  0.00    +0.419 C 
ATOM     35  F   UNL     1       0.714   3.439  23.947  0.00  0.00    -0.166 F 
ATOM     36  F   UNL     1      -0.058   4.226  23.562  0.00  0.00    -0.166 F 
ATOM     37  F   UNL     1       0.131   3.362  24.955  0.00  0.00    -0.166 F 
ENDBRANCH  30  34
ENDBRANCH  25  28
ENDBRANCH  21  22
BRANCH  16  17
ATOM     17  C   UNL     1      -6.736   1.906  26.079  0.00  0.00    +0.214 C 
ATOM     18  O   UNL     1      -6.879   1.406  26.721  0.00  0.00    -0.218 OA
ENDBRANCH  16  17
BRANCH  14  13
ATOM     13  C   UNL     1      -4.414   1.134  24.517  0.00  0.00    +0.146 C 
BRANCH  13  12
ATOM     10  C   UNL     1      -3.784  -0.106  24.188  0.00  0.00    +0.266 C 
ATOM     11  O   UNL     1      -3.624   0.177  23.430  0.00  0.00    -0.268 OA
ATOM     12  N   UNL     1      -4.179   0.373  24.732  0.00  0.00    -0.199 NA
BRANCH  10   8
ATOM      3  C   UNL     1      -2.620  -1.738  25.050  0.00  0.00    +0.139 A 
ATOM      4  C   UNL     1      -3.078  -2.388  24.833  0.00  0.00    +0.038 A 
ATOM      5  C   UNL     1      -3.773  -2.278  24.400  0.00  0.00    +0.015 A 
ATOM      6  C   UNL     1      -4.007  -1.517  24.186  0.00  0.00    +0.062 A 
ATOM      7 CL   UNL     1      -4.701  -1.407  23.753  0.00  0.00    -0.082 Cl
ATOM      8  C   UNL     1      -3.549  -0.866  24.403  0.00  0.00    +0.069 A 
ATOM      9  C   UNL     1      -2.854  -0.977  24.835  0.00  0.00    +0.042 A 
BRANCH   3   2
ATOM      1  C   UNL     1      -1.199  -1.883  25.095  0.00  0.00    +0.252 C 
ATOM      2  O   UNL     1      -1.926  -1.849  25.482  0.00  0.00    -0.471 OA
ENDBRANCH   3   2
ENDBRANCH  10   8
ENDBRANCH  13  12
ENDBRANCH  14  13
TORSDOF 8
ENDMDL
MODEL 6
REMARK VINA RESULT:     -10.2      2.228      3.748
REMARK  Name = 
REMARK  8 active torsions:
REMARK  status: ('A' for Active; 'I' for Inactive)
REMARK    1  A    between atoms: O_2  and  C_3
REMARK    2  A    between atoms: C_8  and  C_10
REMARK    3  A    between atoms: N_12  and  C_13
REMARK    4  A    between atoms: C_13  and  C_14
REMARK    5  A    between atoms: C_16  and  C_17
REMARK    6  A    between atoms: C_21  and  N_22
REMARK    7  A    between atoms: N_25  and  C_28
REMARK    8  A    between atoms: C_30  and  C_34
REMARK                            x       y       z     vdW  Elec       q    Type
REMARK                         _______ _______ _______ _____ _____    ______ ____
ROOT
ATOM     14  C   UNL     1       0.265   1.362  24.522  0.00  0.00    +0.154 C 
ATOM     15  O   UNL     1       0.952   1.626  24.150  0.00  0.00    -0.350 OA
ATOM     16  C   UNL     1       1.155   1.076  23.569  0.00  0.00    +0.180 C 
ATOM     19  C   UNL     1       0.593   0.472  23.582  0.00  0.00    +0.198 C 
ATOM     20  O   UNL     1       0.583  -0.192  23.093  0.00  0.00    -0.219 OA
ATOM     21  C   UNL     1       0.043   0.649  24.171  0.00  0.00    +0.120 C 
ENDROOT
BRANCH  21  22
ATOM     22  N   UNL     1      -0.614   0.192  24.373  0.00  0.00    -0.267 NA
ATOM     23  C   UNL     1      -1.337   0.319  23.995  0.00  0.00    +0.094 C 
ATOM     24  C   UNL     1      -1.993  -0.137  24.197  0.00  0.00    +0.108 C 
ATOM     25  N   UNL     1      -1.928  -0.720  24.778  0.00  0.00    -0.305 N 
ATOM     26  C   UNL     1      -1.206  -0.847  25.155  0.00  0.00    +0.108 C 
ATOM     27  C   UNL     1      -0.548  -0.391  24.954  0.00  0.00    +0.094 C 
BRANCH  25  28
ATOM     28  C   UNL     1      -2.584  -1.176  24.980  0.00  0.00    +0.048 A 
ATOM     29  C   UNL     1      -2.982  -1.607  24.399  0.00  0.00    +0.018 A 
ATOM     30  C   UNL     1      -3.639  -2.064  24.602  0.00  0.00    +0.073 A 
ATOM     31  C   UNL     1      -3.898  -2.090  25.385  0.00  0.00    +0.004 A 
ATOM     32  C   UNL     1      -3.500  -1.659  25.965  0.00  0.00    +0.001 A 
ATOM     33  C   UNL     1      -2.844  -1.203  25.763  0.00  0.00    +0.015 A 
BRANCH  30  34
ATOM     34  C   UNL     1      -4.036  -2.494  24.021  0.00  0.00    +0.419 C 
ATOM     35  F   UNL     1      -4.434  -2.925  23.441  0.00  0.00    -0.166 F 
ATOM     36  F   UNL     1      -4.550  -1.860  23.903  0.00  0.00    -0.166 F 
ATOM     37  F   UNL     1      -3.522  -3.129  24.140  0.00  0.00    -0.166 F 
ENDBRANCH  30  34
ENDBRANCH  25  28
ENDBRANCH  21  22
BRANCH  16  17
ATOM     17  C   UNL     1       1.806   1.122  23.064  0.00  0.00    +0.214 C 
ATOM     18  O   UNL     1       2.539   1.361  23.358  0.00  0.00    -0.218 OA
ENDBRANCH  16  17
BRANCH  14  13
ATOM     13  C   UNL     1      -0.131   1.743  25.136  0.00  0.00    +0.146 C 
BRANCH  13  12
ATOM     10  C   UNL     1      -0.809   2.916  25.591  0.00  0.00    +0.266 C 
ATOM     11  O   UNL     1      -0.553   2.766  26.360  0.00  0.00    -0.268 OA
ATOM     12  N   UNL     1      -0.597   2.405  24.979  0.00  0.00    -0.199 NA
BRANCH  10   8
ATOM      3  C   UNL     1      -2.565   4.181  25.308  0.00  0.00    +0.139 A 
ATOM      4  C   UNL     1      -2.210   4.900  25.116  0.00  0.00    +0.038 A 
ATOM      5  C   UNL     1      -1.387   4.959  25.083  0.00  0.00    +0.015 A 
ATOM      6  C   UNL     1      -0.920   4.297  25.241  0.00  0.00    +0.062 A 
ATOM      7 CL   UNL     1      -0.098   4.356  25.208  0.00  0.00    -0.082 Cl
ATOM      8  C   UNL     1      -1.275   3.577  25.433  0.00  0.00    +0.069 A 
ATOM      9  C   UNL     1      -2.098   3.519  25.466  0.00  0.00    +0.042 A 
BRANCH   3   2
ATOM      1  C   UNL     1      -3.808   3.847  24.688  0.00  0.00    +0.252 C 
ATOM      2  O   UNL     1      -3.387   4.123  25.341  0.00  0.00    -0.471 OA
ENDBRANCH   3   2
ENDBRANCH  10   8
ENDBRANCH  13  12
ENDBRANCH  14  13
TORSDOF 8
ENDMDL
