REMARK  Name = 
REMARK  9 active torsions:
REMARK  status: ('A' for Active; 'I' for Inactive)
REMARK    1  A    between atoms: C_2  and  C_3
REMARK    2  A    between atoms: C_3  and  C_4
REMARK    3  A    between atoms: C_4  and  C_5
REMARK    4  A    between atoms: C_7  and  C_8
REMARK    5  A    between atoms: C_8  and  C_9
REMARK    6  A    between atoms: C_14  and  C_15
REMARK    7  A    between atoms: C_15  and  C_16
REMARK    8  A    between atoms: N_18  and  C_19
REMARK    9  A    between atoms: C_19  and  C_20
REMARK                            x       y       z     vdW  Elec       q    Type
REMARK                         _______ _______ _______ _____ _____    ______ ____
ROOT
ATOM      9  C   UNL     1      -0.715  -2.888   0.000  0.00  0.00    +0.024 C 
ATOM     10  C   UNL     1      -1.429  -2.475   0.000  0.00  0.00    +0.089 C 
ATOM     11  N   UNL     1      -1.429  -1.650   0.000  0.00  0.00    -0.218 NA
ATOM     12  C   UNL     1      -0.715  -1.238   0.000  0.00  0.00    +0.089 C 
ATOM     13  C   UNL     1       0.000  -1.650   0.000  0.00  0.00    +0.019 C 
ATOM     14  C   UNL     1       0.000  -2.475   0.000  0.00  0.00    +0.012 C 
ENDROOT
BRANCH   9   8
ATOM      8  C   UNL     1      -0.715  -3.712   0.000  0.00  0.00    +0.051 C 
BRANCH   8   7
ATOM      5  C   UNL     1      -2.735  -4.402   0.000  0.00  0.00    +0.154 A 
ATOM      6  C   UNL     1      -2.183  -3.789   0.000  0.00  0.00    +0.054 A 
ATOM      7  C   UNL     1      -1.429  -4.125   0.000  0.00  0.00    +0.100 A 
ATOM     27  N   UNL     1      -1.515  -4.946   0.000  0.00  0.00    -0.082 NA
ATOM     28  O   UNL     1      -2.322  -5.117   0.000  0.00  0.00    -0.358 OA
BRANCH   5   4
ATOM      4  C   UNL     1      -3.555  -4.316   0.000  0.00  0.00    +0.067 C 
BRANCH   4   3
ATOM      3  C   UNL     1      -4.040  -4.984   0.000  0.00  0.00    +0.008 C 
BRANCH   3   2
ATOM      1  C   UNL     1      -5.346  -5.565   0.000  0.00  0.00    +0.000 C 
ATOM      2  C   UNL     1      -4.861  -4.897   0.000  0.00  0.00    +0.000 C 
ENDBRANCH   3   2
ENDBRANCH   4   3
ENDBRANCH   5   4
ENDBRANCH   8   7
ENDBRANCH   9   8
BRANCH  14  15
ATOM     15  C   UNL     1       0.715  -2.888   0.000  0.00  0.00    +0.087 C 
BRANCH  15  16
ATOM     16  C   UNL     1       1.429  -2.475   0.000  0.00  0.00    +0.242 C 
ATOM     17  O   UNL     1       1.429  -1.650   0.000  0.00  0.00    -0.273 OA
ATOM     18  N   UNL     1       2.143  -2.888   0.000  0.00  0.00    -0.201 NA
BRANCH  18  19
ATOM     19  C   UNL     1       2.858  -2.475   0.000  0.00  0.00    +0.141 C 
BRANCH  19  20
ATOM     20  C   UNL     1       3.572  -2.888   0.000  0.00  0.00    -0.000 A 
ATOM     21  C   UNL     1       4.287  -2.475   0.000  0.00  0.00    -0.000 A 
ATOM     22  C   UNL     1       5.001  -2.888   0.000  0.00  0.00    +0.029 A 
ATOM     23  C   UNL     1       5.001  -3.712   0.000  0.00  0.00    +0.140 A 
ATOM     24  F   UNL     1       5.716  -4.125   0.000  0.00  0.00    -0.204 F 
ATOM     25  C   UNL     1       4.287  -4.125   0.000  0.00  0.00    +0.029 A 
ATOM     26  C   UNL     1       3.572  -3.712   0.000  0.00  0.00    -0.000 A 
ENDBRANCH  19  20
ENDBRANCH  18  19
ENDBRANCH  15  16
ENDBRANCH  14  15
TORSDOF 9
