MODEL 1
REMARK VINA RESULT:     -11.5      0.000      0.000
REMARK  Name = 
REMARK  7 active torsions:
REMARK  status: ('A' for Active; 'I' for Inactive)
REMARK    1  A    between atoms: O_2  and  C_3
REMARK    2  A    between atoms: C_9  and  C_10
REMARK    3  A    between atoms: C_10  and  C_11
REMARK    4  A    between atoms: C_16  and  C_17
REMARK    5  A    between atoms: C_17  and  C_18
REMARK    6  A    between atoms: C_21  and  C_23
REMARK    7  A    between atoms: C_23  and  C_24
REMARK                            x       y       z     vdW  Elec       q    Type
REMARK                         _______ _______ _______ _____ _____    ______ ____
ROOT
ATOM     11  C   UNL     1      -1.641   1.345  24.834  0.00  0.00    +0.026 C 
ATOM     12  C   UNL     1      -2.052   0.631  24.850  0.00  0.00    +0.094 C 
ATOM     13  N   UNL     1      -1.643  -0.082  24.773  0.00  0.00    -0.279 N 
ATOM     14  C   UNL     1      -0.824  -0.079  24.681  0.00  0.00    +0.093 C 
ATOM     15  C   UNL     1      -0.413   0.635  24.665  0.00  0.00    +0.022 C 
ATOM     16  C   UNL     1      -0.821   1.348  24.741  0.00  0.00    +0.015 C 
ATOM     21  C   UNL     1      -2.055  -0.797  24.789  0.00  0.00    +0.231 C 
ATOM     22  O   UNL     1      -1.646  -1.509  24.713  0.00  0.00    -0.274 OA
ENDROOT
BRANCH  11  10
ATOM     10  C   UNL     1      -2.049   2.058  24.911  0.00  0.00    +0.047 C 
BRANCH  10   9
ATOM      3  C   UNL     1      -4.660   3.469  25.129  0.00  0.00    +0.138 A 
ATOM      4  C   UNL     1      -4.575   3.264  24.334  0.00  0.00    +0.033 A 
ATOM      5  C   UNL     1      -3.902   2.860  24.080  0.00  0.00    -0.016 A 
ATOM      6  C   UNL     1      -3.311   2.661  24.622  0.00  0.00    +0.009 A 
ATOM      7  C   UNL     1      -3.396   2.866  25.417  0.00  0.00    +0.004 A 
ATOM      8  C   UNL     1      -4.069   3.270  25.671  0.00  0.00    +0.037 A 
ATOM      9  C   UNL     1      -2.639   2.257  24.369  0.00  0.00    +0.053 C 
ATOM     29  N   UNL     1      -2.555   2.052  23.575  0.00  0.00    -0.274 NA
ATOM     30  C   UNL     1      -3.145   2.252  23.033  0.00  0.00    +0.130 C 
ATOM     31  C   UNL     1      -3.818   2.655  23.286  0.00  0.00    +0.053 C 
BRANCH   3   2
ATOM      1  C   UNL     1      -5.938   3.465  25.764  0.00  0.00    +0.252 C 
ATOM      2  O   UNL     1      -5.332   3.872  25.382  0.00  0.00    -0.471 OA
ENDBRANCH   3   2
ENDBRANCH  10   9
ENDBRANCH  11  10
BRANCH  16  17
ATOM     17  C   UNL     1      -0.409   2.063  24.725  0.00  0.00    +0.114 C 
BRANCH  17  18
ATOM     18  C   UNL     1       0.400   2.076  24.881  0.00  0.00    +0.365 C 
ATOM     19  O   UNL     1       0.941   1.963  24.267  0.00  0.00    -0.246 OA
ATOM     20  O   UNL     1       0.671   2.203  25.651  0.00  0.00    -0.246 OA
ENDBRANCH  17  18
ENDBRANCH  16  17
BRANCH  21  23
ATOM     23  C   UNL     1      -2.875  -0.799  24.882  0.00  0.00    +0.118 C 
BRANCH  23  24
ATOM     24  C   UNL     1      -3.320  -1.435  24.603  0.00  0.00    +0.016 A 
ATOM     25  C   UNL     1      -3.838  -1.420  23.962  0.00  0.00    +0.003 A 
ATOM     26  C   UNL     1      -4.163  -2.174  23.878  0.00  0.00    +0.007 A 
ATOM     27  C   UNL     1      -3.846  -2.655  24.469  0.00  0.00    +0.035 A 
ATOM     28  S   UNL     1      -3.324  -2.198  24.917  0.00  0.00    -0.090 S 
ENDBRANCH  23  24
ENDBRANCH  21  23
TORSDOF 7
ENDMDL
MODEL 2
REMARK VINA RESULT:     -10.8      1.552      3.494
REMARK  Name = 
REMARK  7 active torsions:
REMARK  status: ('A' for Active; 'I' for Inactive)
REMARK    1  A    between atoms: O_2  and  C_3
REMARK    2  A    between atoms: C_9  and  C_10
REMARK    3  A    between atoms: C_10  and  C_11
REMARK    4  A    between atoms: C_16  and  C_17
REMARK    5  A    between atoms: C_17  and  C_18
REMARK    6  A    between atoms: C_21  and  C_23
REMARK    7  A    between atoms: C_23  and  C_24
REMARK                            x       y       z     vdW  Elec       q    Type
REMARK                         _______ _______ _______ _____ _____    ______ ____
ROOT
ATOM     11  C   UNL     1      -3.285  -0.310  24.849  0.00  0.00    +0.026 C 
ATOM     12  C   UNL     1      -2.619   0.107  25.095  0.00  0.00    +0.094 C 
ATOM     13  N   UNL     1      -1.897  -0.284  25.185  0.00  0.00    -0.279 N 
ATOM     14  C   UNL     1      -1.844  -1.092  25.030  0.00  0.00    +0.093 C 
ATOM     15  C   UNL     1      -2.511  -1.509  24.785  0.00  0.00    +0.022 C 
ATOM     16  C   UNL     1      -3.232  -1.119  24.694  0.00  0.00    +0.015 C 
ATOM     21  C   UNL     1      -1.229   0.134  25.431  0.00  0.00    +0.231 C 
ATOM     22  O   UNL     1      -0.509  -0.256  25.522  0.00  0.00    -0.274 OA
ENDROOT
BRANCH  11  10
ATOM     10  C   UNL     1      -4.007   0.080  24.758  0.00  0.00    +0.047 C 
BRANCH  10   9
ATOM      3  C   UNL     1      -5.458   2.627  25.265  0.00  0.00    +0.138 A 
ATOM      4  C   UNL     1      -5.014   2.748  24.580  0.00  0.00    +0.033 A 
ATOM      5  C   UNL     1      -4.540   2.142  24.281  0.00  0.00    -0.016 A 
ATOM      6  C   UNL     1      -4.510   1.414  24.669  0.00  0.00    +0.009 A 
ATOM      7  C   UNL     1      -4.954   1.293  25.354  0.00  0.00    +0.004 A 
ATOM      8  C   UNL     1      -5.428   1.899  25.652  0.00  0.00    +0.037 A 
ATOM      9  C   UNL     1      -4.037   0.808  24.371  0.00  0.00    +0.053 C 
ATOM     29  N   UNL     1      -3.593   0.929  23.687  0.00  0.00    -0.274 NA
ATOM     30  C   UNL     1      -3.623   1.658  23.299  0.00  0.00    +0.130 C 
ATOM     31  C   UNL     1      -4.097   2.264  23.597  0.00  0.00    +0.053 C 
BRANCH   3   2
ATOM      1  C   UNL     1      -5.615   3.986  25.675  0.00  0.00    +0.252 C 
ATOM      2  O   UNL     1      -5.931   3.233  25.562  0.00  0.00    -0.471 OA
ENDBRANCH   3   2
ENDBRANCH  10   9
ENDBRANCH  11  10
BRANCH  16  17
ATOM     17  C   UNL     1      -3.900  -1.537  24.448  0.00  0.00    +0.114 C 
BRANCH  17  18
ATOM     18  C   UNL     1      -3.856  -2.352  24.330  0.00  0.00    +0.365 C 
ATOM     19  O   UNL     1      -3.779  -2.859  24.976  0.00  0.00    -0.246 OA
ATOM     20  O   UNL     1      -3.889  -2.661  23.565  0.00  0.00    -0.246 OA
ENDBRANCH  17  18
ENDBRANCH  16  17
BRANCH  21  23
ATOM     23  C   UNL     1      -1.284   0.943  25.586  0.00  0.00    +0.118 C 
BRANCH  23  24
ATOM     24  C   UNL     1      -0.644   1.437  25.422  0.00  0.00    +0.016 A 
ATOM     25  C   UNL     1      -0.208   1.451  24.722  0.00  0.00    +0.003 A 
ATOM     26  C   UNL     1       0.378   2.027  24.797  0.00  0.00    +0.007 A 
ATOM     27  C   UNL     1       0.304   2.370  25.544  0.00  0.00    +0.035 A 
ATOM     28  S   UNL     1      -0.327   2.006  25.931  0.00  0.00    -0.090 S 
ENDBRANCH  23  24
ENDBRANCH  21  23
TORSDOF 7
ENDMDL
MODEL 3
REMARK VINA RESULT:     -10.7      1.321      3.619
REMARK  Name = 
REMARK  7 active torsions:
REMARK  status: ('A' for Active; 'I' for Inactive)
REMARK    1  A    between atoms: O_2  and  C_3
REMARK    2  A    between atoms: C_9  and  C_10
REMARK    3  A    between atoms: C_10  and  C_11
REMARK    4  A    between atoms: C_16  and  C_17
REMARK    5  A    between atoms: C_17  and  C_18
REMARK    6  A    between atoms: C_21  and  C_23
REMARK    7  A    between atoms: C_23  and  C_24
REMARK                            x       y       z     vdW  Elec       q    Type
REMARK                         _______ _______ _______ _____ _____    ______ ____
ROOT
ATOM     11  C   UNL     1      -3.851   2.050  25.060  0.00  0.00    +0.026 C 
ATOM     12  C   UNL     1      -3.796   1.241  24.912  0.00  0.00    +0.094 C 
ATOM     13  N   UNL     1      -4.480   0.798  24.780  0.00  0.00    -0.279 N 
ATOM     14  C   UNL     1      -5.218   1.165  24.796  0.00  0.00    +0.093 C 
ATOM     15  C   UNL     1      -5.274   1.974  24.944  0.00  0.00    +0.022 C 
ATOM     16  C   UNL     1      -4.591   2.417  25.076  0.00  0.00    +0.015 C 
ATOM     21  C   UNL     1      -4.425  -0.012  24.632  0.00  0.00    +0.231 C 
ATOM     22  O   UNL     1      -5.108  -0.454  24.500  0.00  0.00    -0.274 OA
ENDROOT
BRANCH  11  10
ATOM     10  C   UNL     1      -3.168   2.493  25.192  0.00  0.00    +0.047 C 
BRANCH  10   9
ATOM      3  C   UNL     1      -0.218   2.471  25.578  0.00  0.00    +0.138 A 
ATOM      4  C   UNL     1      -0.344   2.385  24.767  0.00  0.00    +0.033 A 
ATOM      5  C   UNL     1      -1.113   2.369  24.467  0.00  0.00    -0.016 A 
ATOM      6  C   UNL     1      -1.757   2.439  24.979  0.00  0.00    +0.009 A 
ATOM      7  C   UNL     1      -1.631   2.525  25.790  0.00  0.00    +0.004 A 
ATOM      8  C   UNL     1      -0.862   2.541  26.090  0.00  0.00    +0.037 A 
ATOM      9  C   UNL     1      -2.525   2.423  24.680  0.00  0.00    +0.053 C 
ATOM     29  N   UNL     1      -2.650   2.337  23.870  0.00  0.00    -0.274 NA
ATOM     30  C   UNL     1      -2.006   2.267  23.358  0.00  0.00    +0.130 C 
ATOM     31  C   UNL     1      -1.238   2.283  23.657  0.00  0.00    +0.053 C 
BRANCH   3   2
ATOM      1  C   UNL     1       0.677   2.610  26.682  0.00  0.00    +0.252 C 
ATOM      2  O   UNL     1       0.550   2.487  25.877  0.00  0.00    -0.471 OA
ENDBRANCH   3   2
ENDBRANCH  10   9
ENDBRANCH  11  10
BRANCH  16  17
ATOM     17  C   UNL     1      -4.646   3.227  25.224  0.00  0.00    +0.114 C 
BRANCH  17  18
ATOM     18  C   UNL     1      -5.300   3.529  25.625  0.00  0.00    +0.365 C 
ATOM     19  O   UNL     1      -5.433   3.324  26.413  0.00  0.00    -0.246 OA
ATOM     20  O   UNL     1      -5.824   4.036  25.237  0.00  0.00    -0.246 OA
ENDBRANCH  17  18
ENDBRANCH  16  17
BRANCH  21  23
ATOM     23  C   UNL     1      -3.685  -0.378  24.616  0.00  0.00    +0.118 C 
BRANCH  23  24
ATOM     24  C   UNL     1      -3.634  -1.202  24.604  0.00  0.00    +0.016 A 
ATOM     25  C   UNL     1      -3.832  -1.691  23.970  0.00  0.00    +0.003 A 
ATOM     26  C   UNL     1      -3.696  -2.472  24.198  0.00  0.00    +0.007 A 
ATOM     27  C   UNL     1      -3.413  -2.466  24.973  0.00  0.00    +0.035 A 
ATOM     28  S   UNL     1      -3.375  -1.681  25.224  0.00  0.00    -0.090 S 
ENDBRANCH  23  24
ENDBRANCH  21  23
TORSDOF 7
ENDMDL
MODEL 4
REMARK VINA RESULT:     -10.7      1.766      5.030
REMARK  Name = 
REMARK  7 active torsions:
REMARK  status: ('A' for Active; 'I' for Inactive)
REMARK    1  A    between atoms: O_2  and  C_3
REMARK    2  A    between atoms: C_9  and  C_10
REMARK    3  A    between atoms: C_10  and  C_11
REMARK    4  A    between atoms: C_16  and  C_17
REMARK    5  A    between atoms: C_17  and  C_18
REMARK    6  A    between atoms: C_21  and  C_23
REMARK    7  A    between atoms: C_23  and  C_24
REMARK                            x       y       z     vdW  Elec       q    Type
REMARK                         _______ _______ _______ _____ _____    ______ ____
ROOT
ATOM     11  C   UNL     1      -4.146   1.073  24.799  0.00  0.00    +0.026 C 
ATOM     12  C   UNL     1      -3.366   1.315  24.690  0.00  0.00    +0.094 C 
ATOM     13  N   UNL     1      -3.161   2.108  24.797  0.00  0.00    -0.279 N 
ATOM     14  C   UNL     1      -3.738   2.656  25.012  0.00  0.00    +0.093 C 
ATOM     15  C   UNL     1      -4.518   2.414  25.121  0.00  0.00    +0.022 C 
ATOM     16  C   UNL     1      -4.723   1.622  25.014  0.00  0.00    +0.015 C 
ATOM     21  C   UNL     1      -2.380   2.350  24.689  0.00  0.00    +0.231 C 
ATOM     22  O   UNL     1      -2.176   3.142  24.796  0.00  0.00    -0.274 OA
ENDROOT
BRANCH  11  10
ATOM     10  C   UNL     1      -4.351   0.281  24.692  0.00  0.00    +0.047 C 
BRANCH  10   9
ATOM      3  C   UNL     1      -3.741  -2.589  24.196  0.00  0.00    +0.138 A 
ATOM      4  C   UNL     1      -3.437  -2.416  24.944  0.00  0.00    +0.033 A 
ATOM      5  C   UNL     1      -3.513  -1.655  25.255  0.00  0.00    -0.016 A 
ATOM      6  C   UNL     1      -3.894  -1.067  24.818  0.00  0.00    +0.009 A 
ATOM      7  C   UNL     1      -4.198  -1.240  24.071  0.00  0.00    +0.004 A 
ATOM      8  C   UNL     1      -4.122  -2.001  23.759  0.00  0.00    +0.037 A 
ATOM      9  C   UNL     1      -3.970  -0.307  25.128  0.00  0.00    +0.053 C 
ATOM     29  N   UNL     1      -3.667  -0.134  25.875  0.00  0.00    -0.274 NA
ATOM     30  C   UNL     1      -3.286  -0.722  26.312  0.00  0.00    +0.130 C 
ATOM     31  C   UNL     1      -3.210  -1.482  26.002  0.00  0.00    +0.053 C 
BRANCH   3   2
ATOM      1  C   UNL     1      -2.926  -3.625  23.647  0.00  0.00    +0.252 C 
ATOM      2  O   UNL     1      -3.665  -3.349  23.886  0.00  0.00    -0.471 OA
ENDBRANCH   3   2
ENDBRANCH  10   9
ENDBRANCH  11  10
BRANCH  16  17
ATOM     17  C   UNL     1      -5.504   1.380  25.122  0.00  0.00    +0.114 C 
BRANCH  17  18
ATOM     18  C   UNL     1      -6.087   1.935  25.298  0.00  0.00    +0.365 C 
ATOM     19  O   UNL     1      -6.194   2.189  26.076  0.00  0.00    -0.246 OA
ATOM     20  O   UNL     1      -6.565   2.237  24.696  0.00  0.00    -0.246 OA
ENDBRANCH  17  18
ENDBRANCH  16  17
BRANCH  21  23
ATOM     23  C   UNL     1      -1.804   1.800  24.473  0.00  0.00    +0.118 C 
BRANCH  23  24
ATOM     24  C   UNL     1      -1.012   1.938  24.662  0.00  0.00    +0.016 A 
ATOM     25  C   UNL     1      -0.680   1.902  25.415  0.00  0.00    +0.003 A 
ATOM     26  C   UNL     1       0.124   2.077  25.349  0.00  0.00    +0.007 A 
ATOM     27  C   UNL     1       0.288   2.222  24.553  0.00  0.00    +0.035 A 
ATOM     28  S   UNL     1      -0.414   2.136  24.128  0.00  0.00    -0.090 S 
ENDBRANCH  23  24
ENDBRANCH  21  23
TORSDOF 7
ENDMDL
MODEL 5
REMARK VINA RESULT:     -10.2      1.695      4.338
REMARK  Name = 
REMARK  7 active torsions:
REMARK  status: ('A' for Active; 'I' for Inactive)
REMARK    1  A    between atoms: O_2  and  C_3
REMARK    2  A    between atoms: C_9  and  C_10
REMARK    3  A    between atoms: C_10  and  C_11
REMARK    4  A    between atoms: C_16  and  C_17
REMARK    5  A    between atoms: C_17  and  C_18
REMARK    6  A    between atoms: C_21  and  C_23
REMARK    7  A    between atoms: C_23  and  C_24
REMARK                            x       y       z     vdW  Elec       q    Type
REMARK                         _______ _______ _______ _____ _____    ______ ____
ROOT
ATOM     11  C   UNL     1      -3.108  -0.054  24.744  0.00  0.00    +0.026 C 
ATOM     12  C   UNL     1      -3.563   0.624  24.859  0.00  0.00    +0.094 C 
ATOM     13  N   UNL     1      -4.386   0.581  24.813  0.00  0.00    -0.279 N 
ATOM     14  C   UNL     1      -4.753  -0.141  24.653  0.00  0.00    +0.093 C 
ATOM     15  C   UNL     1      -4.298  -0.818  24.538  0.00  0.00    +0.022 C 
ATOM     16  C   UNL     1      -3.475  -0.776  24.583  0.00  0.00    +0.015 C 
ATOM     21  C   UNL     1      -4.842   1.259  24.929  0.00  0.00    +0.231 C 
ATOM     22  O   UNL     1      -5.664   1.216  24.883  0.00  0.00    -0.274 OA
ENDROOT
BRANCH  11  10
ATOM     10  C   UNL     1      -2.286  -0.011  24.790  0.00  0.00    +0.047 C 
BRANCH  10   9
ATOM      3  C   UNL     1      -0.109   1.882  25.516  0.00  0.00    +0.138 A 
ATOM      4  C   UNL     1      -0.292   2.036  24.726  0.00  0.00    +0.033 A 
ATOM      5  C   UNL     1      -0.882   1.601  24.347  0.00  0.00    -0.016 A 
ATOM      6  C   UNL     1      -1.290   1.012  24.758  0.00  0.00    +0.009 A 
ATOM      7  C   UNL     1      -1.106   0.858  25.547  0.00  0.00    +0.004 A 
ATOM      8  C   UNL     1      -0.516   1.293  25.927  0.00  0.00    +0.037 A 
ATOM      9  C   UNL     1      -1.879   0.577  24.379  0.00  0.00    +0.053 C 
ATOM     29  N   UNL     1      -2.062   0.731  23.590  0.00  0.00    -0.274 NA
ATOM     30  C   UNL     1      -1.655   1.321  23.179  0.00  0.00    +0.130 C 
ATOM     31  C   UNL     1      -1.066   1.755  23.558  0.00  0.00    +0.053 C 
BRANCH   3   2
ATOM      1  C   UNL     1       0.329   2.669  26.625  0.00  0.00    +0.252 C 
ATOM      2  O   UNL     1       0.481   2.317  25.895  0.00  0.00    -0.471 OA
ENDBRANCH   3   2
ENDBRANCH  10   9
ENDBRANCH  11  10
BRANCH  16  17
ATOM     17  C   UNL     1      -3.020  -1.454  24.468  0.00  0.00    +0.114 C 
BRANCH  17  18
ATOM     18  C   UNL     1      -3.364  -2.199  24.542  0.00  0.00    +0.365 C 
ATOM     19  O   UNL     1      -3.694  -2.570  23.883  0.00  0.00    -0.246 OA
ATOM     20  O   UNL     1      -3.379  -2.575  25.277  0.00  0.00    -0.246 OA
ENDBRANCH  17  18
ENDBRANCH  16  17
BRANCH  21  23
ATOM     23  C   UNL     1      -4.474   1.980  25.089  0.00  0.00    +0.118 C 
BRANCH  23  24
ATOM     24  C   UNL     1      -4.929   2.638  25.291  0.00  0.00    +0.016 A 
ATOM     25  C   UNL     1      -5.582   2.641  25.794  0.00  0.00    +0.003 A 
ATOM     26  C   UNL     1      -5.867   3.414  25.838  0.00  0.00    +0.007 A 
ATOM     27  C   UNL     1      -5.389   3.890  25.362  0.00  0.00    +0.035 A 
ATOM     28  S   UNL     1      -4.809   3.410  25.023  0.00  0.00    -0.090 S 
ENDBRANCH  23  24
ENDBRANCH  21  23
TORSDOF 7
ENDMDL
MODEL 6
REMARK VINA RESULT:     -10.2      2.178      5.165
REMARK  Name = 
REMARK  7 active torsions:
REMARK  status: ('A' for Active; 'I' for Inactive)
REMARK    1  A    between atoms: O_2  and  C_3
REMARK    2  A    between atoms: C_9  and  C_10
REMARK    3  A    between atoms: C_10  and  C_11
REMARK    4  A    between atoms: C_16  and  C_17
REMARK    5  A    between atoms: C_17  and  C_18
REMARK    6  A    between atoms: C_21  and  C_23
REMARK    7  A    between atoms: C_23  and  C_24
REMARK                            x       y       z     vdW  Elec       q    Type
REMARK                         _______ _______ _______ _____ _____    ______ ____
ROOT
ATOM     11  C   UNL     1      -3.922   2.046  25.123  0.00  0.00    +0.026 C 
ATOM     12  C   UNL     1      -3.360   2.618  25.312  0.00  0.00    +0.094 C 
ATOM     13  N   UNL     1      -3.601   3.370  25.555  0.00  0.00    -0.279 N 
ATOM     14  C   UNL     1      -4.404   3.547  25.609  0.00  0.00    +0.093 C 
ATOM     15  C   UNL     1      -4.967   2.975  25.420  0.00  0.00    +0.022 C 
ATOM     16  C   UNL     1      -4.726   2.224  25.177  0.00  0.00    +0.015 C 
ATOM     21  C   UNL     1      -3.038   3.942  25.744  0.00  0.00    +0.231 C 
ATOM     22  O   UNL     1      -3.279   4.692  25.987  0.00  0.00    -0.274 OA
ENDROOT
BRANCH  11  10
ATOM     10  C   UNL     1      -3.681   1.295  24.880  0.00  0.00    +0.047 C 
BRANCH  10   9
ATOM      3  C   UNL     1      -1.217  -0.343  24.572  0.00  0.00    +0.138 A 
ATOM      4  C   UNL     1      -1.289   0.097  23.877  0.00  0.00    +0.033 A 
ATOM      5  C   UNL     1      -1.922   0.616  23.780  0.00  0.00    -0.016 A 
ATOM      6  C   UNL     1      -2.485   0.696  24.379  0.00  0.00    +0.009 A 
ATOM      7  C   UNL     1      -2.414   0.257  25.073  0.00  0.00    +0.004 A 
ATOM      8  C   UNL     1      -1.780  -0.263  25.171  0.00  0.00    +0.037 A 
ATOM      9  C   UNL     1      -3.119   1.215  24.282  0.00  0.00    +0.053 C 
ATOM     29  N   UNL     1      -3.190   1.654  23.588  0.00  0.00    -0.274 NA
ATOM     30  C   UNL     1      -2.626   1.574  22.989  0.00  0.00    +0.130 C 
ATOM     31  C   UNL     1      -1.993   1.055  23.086  0.00  0.00    +0.053 C 
BRANCH   3   2
ATOM      1  C   UNL     1      -0.609  -1.438  25.258  0.00  0.00    +0.252 C 
ATOM      2  O   UNL     1      -0.584  -0.862  24.669  0.00  0.00    -0.471 OA
ENDBRANCH   3   2
ENDBRANCH  10   9
ENDBRANCH  11  10
BRANCH  16  17
ATOM     17  C   UNL     1      -5.289   1.651  24.988  0.00  0.00    +0.114 C 
BRANCH  17  18
ATOM     18  C   UNL     1      -6.071   1.746  25.230  0.00  0.00    +0.365 C 
ATOM     19  O   UNL     1      -6.285   1.582  26.010  0.00  0.00    -0.246 OA
ATOM     20  O   UNL     1      -6.642   2.005  24.692  0.00  0.00    -0.246 OA
ENDBRANCH  17  18
ENDBRANCH  16  17
BRANCH  21  23
ATOM     23  C   UNL     1      -2.234   3.764  25.690  0.00  0.00    +0.118 C 
BRANCH  23  24
ATOM     24  C   UNL     1      -1.708   4.321  25.384  0.00  0.00    +0.016 A 
ATOM     25  C   UNL     1      -1.856   5.127  25.289  0.00  0.00    +0.003 A 
ATOM     26  C   UNL     1      -1.181   5.474  24.964  0.00  0.00    +0.007 A 
ATOM     27  C   UNL     1      -0.616   4.882  24.859  0.00  0.00    +0.035 A 
ATOM     28  S   UNL     1      -0.941   4.169  25.118  0.00  0.00    -0.090 S 
ENDBRANCH  23  24
ENDBRANCH  21  23
TORSDOF 7
ENDMDL
MODEL 7
REMARK VINA RESULT:     -10.1      2.027      3.597
REMARK  Name = 
REMARK  7 active torsions:
REMARK  status: ('A' for Active; 'I' for Inactive)
REMARK    1  A    between atoms: O_2  and  C_3
REMARK    2  A    between atoms: C_9  and  C_10
REMARK    3  A    between atoms: C_10  and  C_11
REMARK    4  A    between atoms: C_16  and  C_17
REMARK    5  A    between atoms: C_17  and  C_18
REMARK    6  A    between atoms: C_21  and  C_23
REMARK    7  A    between atoms: C_23  and  C_24
REMARK                            x       y       z     vdW  Elec       q    Type
REMARK                         _______ _______ _______ _____ _____    ______ ____
ROOT
ATOM     11  C   UNL     1      -1.790   0.952  24.923  0.00  0.00    +0.026 C 
ATOM     12  C   UNL     1      -1.651   1.722  25.183  0.00  0.00    +0.094 C 
ATOM     13  N   UNL     1      -0.887   1.957  25.389  0.00  0.00    -0.279 N 
ATOM     14  C   UNL     1      -0.262   1.421  25.334  0.00  0.00    +0.093 C 
ATOM     15  C   UNL     1      -0.401   0.651  25.075  0.00  0.00    +0.022 C 
ATOM     16  C   UNL     1      -1.165   0.416  24.869  0.00  0.00    +0.015 C 
ATOM     21  C   UNL     1      -0.748   2.728  25.649  0.00  0.00    +0.231 C 
ATOM     22  O   UNL     1       0.015   2.962  25.854  0.00  0.00    -0.274 OA
ENDROOT
BRANCH  11  10
ATOM     10  C   UNL     1      -2.553   0.717  24.717  0.00  0.00    +0.047 C 
BRANCH  10   9
ATOM      3  C   UNL     1      -5.345   1.726  24.921  0.00  0.00    +0.138 A 
ATOM      4  C   UNL     1      -5.038   2.038  24.221  0.00  0.00    +0.033 A 
ATOM      5  C   UNL     1      -4.264   1.865  23.995  0.00  0.00    -0.016 A 
ATOM      6  C   UNL     1      -3.795   1.377  24.469  0.00  0.00    +0.009 A 
ATOM      7  C   UNL     1      -4.102   1.065  25.169  0.00  0.00    +0.004 A 
ATOM      8  C   UNL     1      -4.876   1.239  25.395  0.00  0.00    +0.037 A 
ATOM      9  C   UNL     1      -3.022   1.204  24.243  0.00  0.00    +0.053 C 
ATOM     29  N   UNL     1      -2.716   1.516  23.545  0.00  0.00    -0.274 NA
ATOM     30  C   UNL     1      -3.185   2.003  23.070  0.00  0.00    +0.130 C 
ATOM     31  C   UNL     1      -3.958   2.177  23.296  0.00  0.00    +0.053 C 
BRANCH   3   2
ATOM      1  C   UNL     1      -6.264   2.273  25.867  0.00  0.00    +0.252 C 
ATOM      2  O   UNL     1      -6.119   1.899  25.147  0.00  0.00    -0.471 OA
ENDBRANCH   3   2
ENDBRANCH  10   9
ENDBRANCH  11  10
BRANCH  16  17
ATOM     17  C   UNL     1      -1.304  -0.355  24.609  0.00  0.00    +0.114 C 
BRANCH  17  18
ATOM     18  C   UNL     1      -0.697  -0.912  24.630  0.00  0.00    +0.365 C 
ATOM     19  O   UNL     1      -0.182  -0.988  23.989  0.00  0.00    -0.246 OA
ATOM     20  O   UNL     1      -0.604  -1.396  25.293  0.00  0.00    -0.246 OA
ENDBRANCH  17  18
ENDBRANCH  16  17
BRANCH  21  23
ATOM     23  C   UNL     1      -1.373   3.263  25.702  0.00  0.00    +0.118 C 
BRANCH  23  24
ATOM     24  C   UNL     1      -1.284   4.031  25.413  0.00  0.00    +0.016 A 
ATOM     25  C   UNL     1      -0.636   4.318  24.992  0.00  0.00    +0.003 A 
ATOM     26  C   UNL     1      -0.779   5.111  24.813  0.00  0.00    +0.007 A 
ATOM     27  C   UNL     1      -1.516   5.314  25.124  0.00  0.00    +0.035 A 
ATOM     28  S   UNL     1      -1.828   4.646  25.496  0.00  0.00    -0.090 S 
ENDBRANCH  23  24
ENDBRANCH  21  23
TORSDOF 7
ENDMDL
MODEL 8
REMARK VINA RESULT:     -10.0      1.730      2.450
REMARK  Name = 
REMARK  7 active torsions:
REMARK  status: ('A' for Active; 'I' for Inactive)
REMARK    1  A    between atoms: O_2  and  C_3
REMARK    2  A    between atoms: C_9  and  C_10
REMARK    3  A    between atoms: C_10  and  C_11
REMARK    4  A    between atoms: C_16  and  C_17
REMARK    5  A    between atoms: C_17  and  C_18
REMARK    6  A    between atoms: C_21  and  C_23
REMARK    7  A    between atoms: C_23  and  C_24
REMARK                            x       y       z     vdW  Elec       q    Type
REMARK                         _______ _______ _______ _____ _____    ______ ____
ROOT
ATOM     11  C   UNL     1      -2.037   3.213  25.164  0.00  0.00    +0.026 C 
ATOM     12  C   UNL     1      -1.802   2.430  25.269  0.00  0.00    +0.094 C 
ATOM     13  N   UNL     1      -0.999   2.240  25.296  0.00  0.00    -0.279 N 
ATOM     14  C   UNL     1      -0.432   2.834  25.217  0.00  0.00    +0.093 C 
ATOM     15  C   UNL     1      -0.667   3.617  25.112  0.00  0.00    +0.022 C 
ATOM     16  C   UNL     1      -1.469   3.807  25.086  0.00  0.00    +0.015 C 
ATOM     21  C   UNL     1      -0.764   1.456  25.401  0.00  0.00    +0.231 C 
ATOM     22  O   UNL     1       0.038   1.266  25.427  0.00  0.00    -0.274 OA
ENDROOT
BRANCH  11  10
ATOM     10  C   UNL     1      -2.839   3.403  25.138  0.00  0.00    +0.047 C 
BRANCH  10   9
ATOM      3  C   UNL     1      -5.614   2.355  25.361  0.00  0.00    +0.138 A 
ATOM      4  C   UNL     1      -5.360   2.170  24.598  0.00  0.00    +0.033 A 
ATOM      5  C   UNL     1      -4.602   2.385  24.351  0.00  0.00    -0.016 A 
ATOM      6  C   UNL     1      -4.099   2.787  24.868  0.00  0.00    +0.009 A 
ATOM      7  C   UNL     1      -4.353   2.972  25.631  0.00  0.00    +0.004 A 
ATOM      8  C   UNL     1      -5.111   2.756  25.878  0.00  0.00    +0.037 A 
ATOM      9  C   UNL     1      -3.342   3.002  24.621  0.00  0.00    +0.053 C 
ATOM     29  N   UNL     1      -3.088   2.817  23.859  0.00  0.00    -0.274 NA
ATOM     30  C   UNL     1      -3.592   2.416  23.342  0.00  0.00    +0.130 C 
ATOM     31  C   UNL     1      -4.348   2.200  23.589  0.00  0.00    +0.053 C 
BRANCH   3   2
ATOM      1  C   UNL     1      -6.488   1.840  26.366  0.00  0.00    +0.252 C 
ATOM      2  O   UNL     1      -6.371   2.139  25.607  0.00  0.00    -0.471 OA
ENDBRANCH   3   2
ENDBRANCH  10   9
ENDBRANCH  11  10
BRANCH  16  17
ATOM     17  C   UNL     1      -1.704   4.591  24.980  0.00  0.00    +0.114 C 
BRANCH  17  18
ATOM     18  C   UNL     1      -1.137   5.184  24.903  0.00  0.00    +0.365 C 
ATOM     19  O   UNL     1      -1.147   5.834  25.411  0.00  0.00    -0.246 OA
ATOM     20  O   UNL     1      -0.559   5.128  24.316  0.00  0.00    -0.246 OA
ENDBRANCH  17  18
ENDBRANCH  16  17
BRANCH  21  23
ATOM     23  C   UNL     1      -1.332   0.862  25.479  0.00  0.00    +0.118 C 
BRANCH  23  24
ATOM     24  C   UNL     1      -1.141   0.082  25.293  0.00  0.00    +0.016 A 
ATOM     25  C   UNL     1      -0.990  -0.214  24.538  0.00  0.00    +0.003 A 
ATOM     26  C   UNL     1      -0.823  -1.019  24.607  0.00  0.00    +0.007 A 
ATOM     27  C   UNL     1      -0.870  -1.221  25.406  0.00  0.00    +0.035 A 
ATOM     28  S   UNL     1      -1.066  -0.541  25.830  0.00  0.00    -0.090 S 
ENDBRANCH  23  24
ENDBRANCH  21  23
TORSDOF 7
ENDMDL
