MODEL 1
REMARK VINA RESULT:     -11.5      0.000      0.000
REMARK  Name = 
REMARK  7 active torsions:
REMARK  status: ('A' for Active; 'I' for Inactive)
REMARK    1  A    between atoms: O_2  and  C_3
REMARK    2  A    between atoms: C_6  and  C_9
REMARK    3  A    between atoms: C_11  and  C_12
REMARK    4  A    between atoms: C_12  and  C_13
REMARK    5  A    between atoms: C_18  and  C_19
REMARK    6  A    between atoms: C_19  and  N_20
REMARK    7  A    between atoms: N_20  and  C_21
REMARK                            x       y       z     vdW  Elec       q    Type
REMARK                         _______ _______ _______ _____ _____    ______ ____
ROOT
ATOM     13  C   UNL     1      -4.197   2.878  24.953  0.00  0.00    +0.121 C 
ATOM     14  C   UNL     1      -4.532   3.455  25.438  0.00  0.00    +0.033 C 
ATOM     15  C   UNL     1      -4.047   3.996  25.830  0.00  0.00    +0.038 C 
ATOM     16  C   UNL     1      -3.228   3.960  25.736  0.00  0.00    +0.180 C 
ATOM     17  O   UNL     1      -2.744   4.500  26.127  0.00  0.00    -0.220 OA
ATOM     18  C   UNL     1      -2.894   3.382  25.250  0.00  0.00    +0.163 C 
ATOM     28  O   UNL     1      -3.378   2.842  24.859  0.00  0.00    -0.354 OA
ENDROOT
BRANCH  13  12
ATOM     12  C   UNL     1      -4.682   2.337  24.561  0.00  0.00    +0.079 C 
BRANCH  12  11
ATOM      9  C   UNL     1      -4.492   0.245  24.943  0.00  0.00    +0.177 A 
ATOM     10  C   UNL     1      -4.276   0.924  24.528  0.00  0.00    +0.058 A 
ATOM     11  C   UNL     1      -4.721   1.555  24.820  0.00  0.00    +0.103 A 
ATOM     29  N   UNL     1      -5.212   1.265  25.417  0.00  0.00    -0.081 NA
ATOM     30  O   UNL     1      -5.070   0.456  25.493  0.00  0.00    -0.354 OA
BRANCH   9   6
ATOM      3  C   UNL     1      -3.567  -2.025  24.602  0.00  0.00    +0.139 A 
ATOM      4  C   UNL     1      -3.392  -1.607  25.291  0.00  0.00    +0.037 A 
ATOM      5  C   UNL     1      -3.699  -0.851  25.405  0.00  0.00    +0.006 A 
ATOM      6  C   UNL     1      -4.184  -0.512  24.830  0.00  0.00    +0.037 A 
ATOM      7  C   UNL     1      -4.360  -0.930  24.140  0.00  0.00    +0.006 A 
ATOM      8  C   UNL     1      -4.052  -1.686  24.026  0.00  0.00    +0.037 A 
BRANCH   3   2
ATOM      1  C   UNL     1      -2.446  -2.885  24.389  0.00  0.00    +0.252 C 
ATOM      2  O   UNL     1      -3.259  -2.782  24.489  0.00  0.00    -0.471 OA
ENDBRANCH   3   2
ENDBRANCH   9   6
ENDBRANCH  12  11
ENDBRANCH  13  12
BRANCH  18  19
ATOM     19  C   UNL     1      -2.076   3.346  25.157  0.00  0.00    +0.121 C 
BRANCH  19  20
ATOM     20  N   UNL     1      -1.646   2.735  25.507  0.00  0.00    -0.217 NA
BRANCH  20  21
ATOM     21  C   UNL     1      -0.983   2.425  25.126  0.00  0.00    +0.076 C 
ATOM     22  C   UNL     1      -0.829   1.615  25.162  0.00  0.00    +0.035 C 
ATOM     23  C   UNL     1      -0.167   1.304  24.780  0.00  0.00    +0.074 C 
ATOM     24  N   UNL     1       0.341   1.804  24.362  0.00  0.00    -0.271 NA
ATOM     25  C   UNL     1       1.003   1.493  23.981  0.00  0.00    +0.090 C 
ATOM     26  C   UNL     1       0.186   2.613  24.327  0.00  0.00    +0.074 C 
ATOM     27  C   UNL     1      -0.476   2.924  24.709  0.00  0.00    +0.035 C 
ENDBRANCH  20  21
ENDBRANCH  19  20
ENDBRANCH  18  19
TORSDOF 7
ENDMDL
MODEL 2
REMARK VINA RESULT:     -11.5      1.383      3.587
REMARK  Name = 
REMARK  7 active torsions:
REMARK  status: ('A' for Active; 'I' for Inactive)
REMARK    1  A    between atoms: O_2  and  C_3
REMARK    2  A    between atoms: C_6  and  C_9
REMARK    3  A    between atoms: C_11  and  C_12
REMARK    4  A    between atoms: C_12  and  C_13
REMARK    5  A    between atoms: C_18  and  C_19
REMARK    6  A    between atoms: C_19  and  N_20
REMARK    7  A    between atoms: N_20  and  C_21
REMARK                            x       y       z     vdW  Elec       q    Type
REMARK                         _______ _______ _______ _____ _____    ______ ____
ROOT
ATOM     13  C   UNL     1      -0.877   2.773  25.654  0.00  0.00    +0.121 C 
ATOM     14  C   UNL     1      -0.411   3.422  25.449  0.00  0.00    +0.033 C 
ATOM     15  C   UNL     1      -0.768   4.138  25.248  0.00  0.00    +0.038 C 
ATOM     16  C   UNL     1      -1.590   4.205  25.251  0.00  0.00    +0.180 C 
ATOM     17  O   UNL     1      -1.947   4.921  25.050  0.00  0.00    -0.220 OA
ATOM     18  C   UNL     1      -2.056   3.555  25.456  0.00  0.00    +0.163 C 
ATOM     28  O   UNL     1      -1.699   2.840  25.658  0.00  0.00    -0.354 OA
ENDROOT
BRANCH  13  12
ATOM     12  C   UNL     1      -0.520   2.056  25.856  0.00  0.00    +0.079 C 
BRANCH  12  11
ATOM      9  C   UNL     1      -1.025   0.220  24.891  0.00  0.00    +0.177 A 
ATOM     10  C   UNL     1      -1.101   0.748  25.521  0.00  0.00    +0.058 A 
ATOM     11  C   UNL     1      -0.614   1.397  25.369  0.00  0.00    +0.103 A 
ATOM     29  N   UNL     1      -0.238   1.270  24.646  0.00  0.00    -0.081 NA
ATOM     30  O   UNL     1      -0.492   0.543  24.350  0.00  0.00    -0.354 OA
BRANCH   9   6
ATOM      3  C   UNL     1      -2.194  -1.950  24.664  0.00  0.00    +0.139 A 
ATOM      4  C   UNL     1      -2.620  -1.245  24.620  0.00  0.00    +0.037 A 
ATOM      5  C   UNL     1      -2.231  -0.523  24.696  0.00  0.00    +0.006 A 
ATOM      6  C   UNL     1      -1.415  -0.503  24.815  0.00  0.00    +0.037 A 
ATOM      7  C   UNL     1      -0.988  -1.209  24.859  0.00  0.00    +0.006 A 
ATOM      8  C   UNL     1      -1.377  -1.931  24.783  0.00  0.00    +0.037 A 
BRANCH   3   2
ATOM      1  C   UNL     1      -3.408  -2.698  24.574  0.00  0.00    +0.252 C 
ATOM      2  O   UNL     1      -2.583  -2.673  24.588  0.00  0.00    -0.471 OA
ENDBRANCH   3   2
ENDBRANCH   9   6
ENDBRANCH  12  11
ENDBRANCH  13  12
BRANCH  18  19
ATOM     19  C   UNL     1      -2.878   3.622  25.460  0.00  0.00    +0.121 C 
BRANCH  19  20
ATOM     20  N   UNL     1      -3.321   3.300  24.843  0.00  0.00    -0.217 NA
BRANCH  20  21
ATOM     21  C   UNL     1      -4.078   3.007  24.989  0.00  0.00    +0.076 C 
ATOM     22  C   UNL     1      -4.345   2.338  24.585  0.00  0.00    +0.035 C 
ATOM     23  C   UNL     1      -5.103   2.044  24.731  0.00  0.00    +0.074 C 
ATOM     24  N   UNL     1      -5.592   2.418  25.280  0.00  0.00    -0.271 NA
ATOM     25  C   UNL     1      -6.348   2.124  25.426  0.00  0.00    +0.090 C 
ATOM     26  C   UNL     1      -5.325   3.086  25.683  0.00  0.00    +0.074 C 
ATOM     27  C   UNL     1      -4.567   3.380  25.537  0.00  0.00    +0.035 C 
ENDBRANCH  20  21
ENDBRANCH  19  20
ENDBRANCH  18  19
TORSDOF 7
ENDMDL
MODEL 3
REMARK VINA RESULT:     -11.4      1.463      4.288
REMARK  Name = 
REMARK  7 active torsions:
REMARK  status: ('A' for Active; 'I' for Inactive)
REMARK    1  A    between atoms: O_2  and  C_3
REMARK    2  A    between atoms: C_6  and  C_9
REMARK    3  A    between atoms: C_11  and  C_12
REMARK    4  A    between atoms: C_12  and  C_13
REMARK    5  A    between atoms: C_18  and  C_19
REMARK    6  A    between atoms: C_19  and  N_20
REMARK    7  A    between atoms: N_20  and  C_21
REMARK                            x       y       z     vdW  Elec       q    Type
REMARK                         _______ _______ _______ _____ _____    ______ ____
ROOT
ATOM     13  C   UNL     1      -4.638   3.056  25.127  0.00  0.00    +0.121 C 
ATOM     14  C   UNL     1      -5.298   3.315  25.550  0.00  0.00    +0.033 C 
ATOM     15  C   UNL     1      -5.850   2.768  25.827  0.00  0.00    +0.038 C 
ATOM     16  C   UNL     1      -5.743   1.964  25.683  0.00  0.00    +0.180 C 
ATOM     17  O   UNL     1      -6.295   1.417  25.960  0.00  0.00    -0.220 OA
ATOM     18  C   UNL     1      -5.083   1.705  25.260  0.00  0.00    +0.163 C 
ATOM     28  O   UNL     1      -4.531   2.251  24.983  0.00  0.00    -0.354 OA
ENDROOT
BRANCH  13  12
ATOM     12  C   UNL     1      -4.086   3.603  24.850  0.00  0.00    +0.079 C 
BRANCH  12  11
ATOM      9  C   UNL     1      -2.006   3.266  25.197  0.00  0.00    +0.177 A 
ATOM     10  C   UNL     1      -2.692   3.145  24.755  0.00  0.00    +0.058 A 
ATOM     11  C   UNL     1      -3.304   3.569  25.111  0.00  0.00    +0.103 A 
ATOM     29  N   UNL     1      -2.996   3.953  25.773  0.00  0.00    -0.081 NA
ATOM     30  O   UNL     1      -2.194   3.766  25.826  0.00  0.00    -0.354 OA
BRANCH   9   6
ATOM      3  C   UNL     1       0.223   2.303  24.719  0.00  0.00    +0.139 A 
ATOM      4  C   UNL     1      -0.263   1.957  25.289  0.00  0.00    +0.037 A 
ATOM      5  C   UNL     1      -1.005   2.278  25.448  0.00  0.00    +0.006 A 
ATOM      6  C   UNL     1      -1.263   2.945  25.038  0.00  0.00    +0.037 A 
ATOM      7  C   UNL     1      -0.777   3.291  24.467  0.00  0.00    +0.006 A 
ATOM      8  C   UNL     1      -0.035   2.971  24.308  0.00  0.00    +0.037 A 
BRANCH   3   2
ATOM      1  C   UNL     1       1.055   1.431  23.952  0.00  0.00    +0.252 C 
ATOM      2  O   UNL     1       0.966   1.981  24.560  0.00  0.00    -0.471 OA
ENDBRANCH   3   2
ENDBRANCH   9   6
ENDBRANCH  12  11
ENDBRANCH  13  12
BRANCH  18  19
ATOM     19  C   UNL     1      -4.976   0.900  25.115  0.00  0.00    +0.121 C 
BRANCH  19  20
ATOM     20  N   UNL     1      -4.272   0.631  24.777  0.00  0.00    -0.217 NA
BRANCH  20  21
ATOM     21  C   UNL     1      -4.110  -0.177  24.752  0.00  0.00    +0.076 C 
ATOM     22  C   UNL     1      -4.338  -0.622  24.096  0.00  0.00    +0.035 C 
ATOM     23  C   UNL     1      -4.176  -1.431  24.070  0.00  0.00    +0.074 C 
ATOM     24  N   UNL     1      -3.787  -1.795  24.701  0.00  0.00    -0.271 NA
ATOM     25  C   UNL     1      -3.625  -2.603  24.675  0.00  0.00    +0.090 C 
ATOM     26  C   UNL     1      -3.559  -1.349  25.356  0.00  0.00    +0.074 C 
ATOM     27  C   UNL     1      -3.721  -0.540  25.382  0.00  0.00    +0.035 C 
ENDBRANCH  20  21
ENDBRANCH  19  20
ENDBRANCH  18  19
TORSDOF 7
ENDMDL
MODEL 4
REMARK VINA RESULT:     -11.3      1.481      2.142
REMARK  Name = 
REMARK  7 active torsions:
REMARK  status: ('A' for Active; 'I' for Inactive)
REMARK    1  A    between atoms: O_2  and  C_3
REMARK    2  A    between atoms: C_6  and  C_9
REMARK    3  A    between atoms: C_11  and  C_12
REMARK    4  A    between atoms: C_12  and  C_13
REMARK    5  A    between atoms: C_18  and  C_19
REMARK    6  A    between atoms: C_19  and  N_20
REMARK    7  A    between atoms: N_20  and  C_21
REMARK                            x       y       z     vdW  Elec       q    Type
REMARK                         _______ _______ _______ _____ _____    ______ ____
ROOT
ATOM     13  C   UNL     1      -5.072   1.803  24.844  0.00  0.00    +0.121 C 
ATOM     14  C   UNL     1      -5.794   2.013  25.182  0.00  0.00    +0.033 C 
ATOM     15  C   UNL     1      -5.880   2.748  25.547  0.00  0.00    +0.038 C 
ATOM     16  C   UNL     1      -5.244   3.272  25.575  0.00  0.00    +0.180 C 
ATOM     17  O   UNL     1      -5.330   4.006  25.940  0.00  0.00    -0.220 OA
ATOM     18  C   UNL     1      -4.521   3.062  25.237  0.00  0.00    +0.163 C 
ATOM     28  O   UNL     1      -4.435   2.327  24.871  0.00  0.00    -0.354 OA
ENDROOT
BRANCH  13  12
ATOM     12  C   UNL     1      -4.986   1.068  24.478  0.00  0.00    +0.079 C 
BRANCH  12  11
ATOM      9  C   UNL     1      -3.599  -0.426  25.111  0.00  0.00    +0.177 A 
ATOM     10  C   UNL     1      -3.839   0.153  24.575  0.00  0.00    +0.058 A 
ATOM     11  C   UNL     1      -4.551   0.472  24.846  0.00  0.00    +0.103 A 
ATOM     29  N   UNL     1      -4.750   0.090  25.550  0.00  0.00    -0.081 NA
ATOM     30  O   UNL     1      -4.162  -0.465  25.713  0.00  0.00    -0.354 OA
BRANCH   9   6
ATOM      3  C   UNL     1      -1.550  -1.805  24.942  0.00  0.00    +0.139 A 
ATOM      4  C   UNL     1      -2.277  -2.113  24.703  0.00  0.00    +0.037 A 
ATOM      5  C   UNL     1      -2.959  -1.655  24.759  0.00  0.00    +0.006 A 
ATOM      6  C   UNL     1      -2.916  -0.886  25.054  0.00  0.00    +0.037 A 
ATOM      7  C   UNL     1      -2.189  -0.576  25.294  0.00  0.00    +0.006 A 
ATOM      8  C   UNL     1      -1.507  -1.035  25.237  0.00  0.00    +0.037 A 
BRANCH   3   2
ATOM      1  C   UNL     1      -0.168  -2.009  25.242  0.00  0.00    +0.252 C 
ATOM      2  O   UNL     1      -0.867  -2.264  24.885  0.00  0.00    -0.471 OA
ENDBRANCH   3   2
ENDBRANCH   9   6
ENDBRANCH  12  11
ENDBRANCH  13  12
BRANCH  18  19
ATOM     19  C   UNL     1      -3.885   3.586  25.264  0.00  0.00    +0.121 C 
BRANCH  19  20
ATOM     20  N   UNL     1      -3.170   3.350  25.602  0.00  0.00    -0.217 NA
BRANCH  20  21
ATOM     21  C   UNL     1      -2.470   3.735  25.395  0.00  0.00    +0.076 C 
ATOM     22  C   UNL     1      -2.404   4.551  25.498  0.00  0.00    +0.035 C 
ATOM     23  C   UNL     1      -1.704   4.937  25.291  0.00  0.00    +0.074 C 
ATOM     24  N   UNL     1      -1.071   4.506  24.982  0.00  0.00    -0.271 NA
ATOM     25  C   UNL     1      -0.372   4.892  24.776  0.00  0.00    +0.090 C 
ATOM     26  C   UNL     1      -1.138   3.691  24.880  0.00  0.00    +0.074 C 
ATOM     27  C   UNL     1      -1.838   3.305  25.087  0.00  0.00    +0.035 C 
ENDBRANCH  20  21
ENDBRANCH  19  20
ENDBRANCH  18  19
TORSDOF 7
ENDMDL
MODEL 5
REMARK VINA RESULT:     -11.2      1.763      4.960
REMARK  Name = 
REMARK  7 active torsions:
REMARK  status: ('A' for Active; 'I' for Inactive)
REMARK    1  A    between atoms: O_2  and  C_3
REMARK    2  A    between atoms: C_6  and  C_9
REMARK    3  A    between atoms: C_11  and  C_12
REMARK    4  A    between atoms: C_12  and  C_13
REMARK    5  A    between atoms: C_18  and  C_19
REMARK    6  A    between atoms: C_19  and  N_20
REMARK    7  A    between atoms: N_20  and  C_21
REMARK                            x       y       z     vdW  Elec       q    Type
REMARK                         _______ _______ _______ _____ _____    ______ ____
ROOT
ATOM     13  C   UNL     1      -0.014   1.668  24.854  0.00  0.00    +0.121 C 
ATOM     14  C   UNL     1       0.594   1.798  24.311  0.00  0.00    +0.033 C 
ATOM     15  C   UNL     1       0.775   1.222  23.749  0.00  0.00    +0.038 C 
ATOM     16  C   UNL     1       0.349   0.516  23.729  0.00  0.00    +0.180 C 
ATOM     17  O   UNL     1       0.530  -0.059  23.167  0.00  0.00    -0.220 OA
ATOM     18  C   UNL     1      -0.259   0.386  24.272  0.00  0.00    +0.163 C 
ATOM     28  O   UNL     1      -0.440   0.962  24.834  0.00  0.00    -0.354 OA
ENDROOT
BRANCH  13  12
ATOM     12  C   UNL     1      -0.196   2.244  25.416  0.00  0.00    +0.079 C 
BRANCH  12  11
ATOM      9  C   UNL     1      -2.007   3.354  25.208  0.00  0.00    +0.177 A 
ATOM     10  C   UNL     1      -1.601   2.676  25.442  0.00  0.00    +0.058 A 
ATOM     11  C   UNL     1      -0.801   2.786  25.272  0.00  0.00    +0.103 A 
ATOM     29  N   UNL     1      -0.713   3.532  24.932  0.00  0.00    -0.081 NA
ATOM     30  O   UNL     1      -1.459   3.884  24.892  0.00  0.00    -0.354 OA
BRANCH   9   6
ATOM      3  C   UNL     1      -4.444   3.735  25.414  0.00  0.00    +0.139 A 
ATOM      4  C   UNL     1      -3.932   4.005  26.002  0.00  0.00    +0.037 A 
ATOM      5  C   UNL     1      -3.121   3.879  25.933  0.00  0.00    +0.006 A 
ATOM      6  C   UNL     1      -2.820   3.481  25.277  0.00  0.00    +0.037 A 
ATOM      7  C   UNL     1      -3.331   3.210  24.688  0.00  0.00    +0.006 A 
ATOM      8  C   UNL     1      -4.142   3.337  24.757  0.00  0.00    +0.037 A 
BRANCH   3   2
ATOM      1  C   UNL     1      -5.756   3.236  25.682  0.00  0.00    +0.252 C 
ATOM      2  O   UNL     1      -5.256   3.862  25.483  0.00  0.00    -0.471 OA
ENDBRANCH   3   2
ENDBRANCH   9   6
ENDBRANCH  12  11
ENDBRANCH  13  12
BRANCH  18  19
ATOM     19  C   UNL     1      -0.685  -0.320  24.252  0.00  0.00    +0.121 C 
BRANCH  19  20
ATOM     20  N   UNL     1      -1.166  -0.530  24.888  0.00  0.00    -0.217 NA
BRANCH  20  21
ATOM     21  C   UNL     1      -1.748  -1.107  24.792  0.00  0.00    +0.076 C 
ATOM     22  C   UNL     1      -2.546  -0.894  24.811  0.00  0.00    +0.035 C 
ATOM     23  C   UNL     1      -3.129  -1.470  24.714  0.00  0.00    +0.074 C 
ATOM     24  N   UNL     1      -2.914  -2.259  24.598  0.00  0.00    -0.271 NA
ATOM     25  C   UNL     1      -3.497  -2.834  24.502  0.00  0.00    +0.090 C 
ATOM     26  C   UNL     1      -2.118  -2.471  24.580  0.00  0.00    +0.074 C 
ATOM     27  C   UNL     1      -1.535  -1.894  24.676  0.00  0.00    +0.035 C 
ENDBRANCH  20  21
ENDBRANCH  19  20
ENDBRANCH  18  19
TORSDOF 7
ENDMDL
MODEL 6
REMARK VINA RESULT:     -10.9      1.533      3.903
REMARK  Name = 
REMARK  7 active torsions:
REMARK  status: ('A' for Active; 'I' for Inactive)
REMARK    1  A    between atoms: O_2  and  C_3
REMARK    2  A    between atoms: C_6  and  C_9
REMARK    3  A    between atoms: C_11  and  C_12
REMARK    4  A    between atoms: C_12  and  C_13
REMARK    5  A    between atoms: C_18  and  C_19
REMARK    6  A    between atoms: C_19  and  N_20
REMARK    7  A    between atoms: N_20  and  C_21
REMARK                            x       y       z     vdW  Elec       q    Type
REMARK                         _______ _______ _______ _____ _____    ______ ____
ROOT
ATOM     13  C   UNL     1      -2.183  -1.147  25.056  0.00  0.00    +0.121 C 
ATOM     14  C   UNL     1      -1.795  -1.832  24.808  0.00  0.00    +0.033 C 
ATOM     15  C   UNL     1      -1.027  -1.784  24.508  0.00  0.00    +0.038 C 
ATOM     16  C   UNL     1      -0.649  -1.053  24.456  0.00  0.00    +0.180 C 
ATOM     17  O   UNL     1       0.118  -1.006  24.156  0.00  0.00    -0.220 OA
ATOM     18  C   UNL     1      -1.038  -0.369  24.704  0.00  0.00    +0.163 C 
ATOM     28  O   UNL     1      -1.805  -0.416  25.004  0.00  0.00    -0.354 OA
ENDROOT
BRANCH  13  12
ATOM     12  C   UNL     1      -2.951  -1.195  25.356  0.00  0.00    +0.079 C 
BRANCH  12  11
ATOM      9  C   UNL     1      -4.365   0.336  24.892  0.00  0.00    +0.177 A 
ATOM     10  C   UNL     1      -3.749   0.040  25.354  0.00  0.00    +0.058 A 
ATOM     11  C   UNL     1      -3.542  -0.702  25.058  0.00  0.00    +0.103 A 
ATOM     29  N   UNL     1      -4.029  -0.865  24.413  0.00  0.00    -0.081 NA
ATOM     30  O   UNL     1      -4.538  -0.223  24.310  0.00  0.00    -0.354 OA
BRANCH   9   6
ATOM      3  C   UNL     1      -5.494   2.517  25.196  0.00  0.00    +0.139 A 
ATOM      4  C   UNL     1      -4.805   2.468  24.745  0.00  0.00    +0.037 A 
ATOM      5  C   UNL     1      -4.429   1.742  24.644  0.00  0.00    +0.006 A 
ATOM      6  C   UNL     1      -4.741   1.063  24.993  0.00  0.00    +0.037 A 
ATOM      7  C   UNL     1      -5.431   1.111  25.444  0.00  0.00    +0.006 A 
ATOM      8  C   UNL     1      -5.808   1.837  25.545  0.00  0.00    +0.037 A 
BRANCH   3   2
ATOM      1  C   UNL     1      -5.445   3.893  25.576  0.00  0.00    +0.252 C 
ATOM      2  O   UNL     1      -5.871   3.244  25.297  0.00  0.00    -0.471 OA
ENDBRANCH   3   2
ENDBRANCH   9   6
ENDBRANCH  12  11
ENDBRANCH  13  12
BRANCH  18  19
ATOM     19  C   UNL     1      -0.660   0.362  24.652  0.00  0.00    +0.121 C 
BRANCH  19  20
ATOM     20  N   UNL     1      -0.611   0.850  25.316  0.00  0.00    -0.217 NA
BRANCH  20  21
ATOM     21  C   UNL     1      -0.617   1.670  25.225  0.00  0.00    +0.076 C 
ATOM     22  C   UNL     1      -0.788   2.154  25.872  0.00  0.00    +0.035 C 
ATOM     23  C   UNL     1      -0.795   2.975  25.782  0.00  0.00    +0.074 C 
ATOM     24  N   UNL     1      -0.630   3.311  25.046  0.00  0.00    -0.271 NA
ATOM     25  C   UNL     1      -0.636   4.130  24.957  0.00  0.00    +0.090 C 
ATOM     26  C   UNL     1      -0.459   2.827  24.401  0.00  0.00    +0.074 C 
ATOM     27  C   UNL     1      -0.453   2.006  24.491  0.00  0.00    +0.035 C 
ENDBRANCH  20  21
ENDBRANCH  19  20
ENDBRANCH  18  19
TORSDOF 7
ENDMDL
MODEL 7
REMARK VINA RESULT:     -10.9      1.497      5.244
REMARK  Name = 
REMARK  7 active torsions:
REMARK  status: ('A' for Active; 'I' for Inactive)
REMARK    1  A    between atoms: O_2  and  C_3
REMARK    2  A    between atoms: C_6  and  C_9
REMARK    3  A    between atoms: C_11  and  C_12
REMARK    4  A    between atoms: C_12  and  C_13
REMARK    5  A    between atoms: C_18  and  C_19
REMARK    6  A    between atoms: C_19  and  N_20
REMARK    7  A    between atoms: N_20  and  C_21
REMARK                            x       y       z     vdW  Elec       q    Type
REMARK                         _______ _______ _______ _____ _____    ______ ____
ROOT
ATOM     13  C   UNL     1      -2.165  -0.983  25.191  0.00  0.00    +0.121 C 
ATOM     14  C   UNL     1      -2.244  -1.726  24.841  0.00  0.00    +0.033 C 
ATOM     15  C   UNL     1      -2.976  -1.964  24.541  0.00  0.00    +0.038 C 
ATOM     16  C   UNL     1      -3.626  -1.459  24.591  0.00  0.00    +0.180 C 
ATOM     17  O   UNL     1      -4.356  -1.697  24.291  0.00  0.00    -0.220 OA
ATOM     18  C   UNL     1      -3.546  -0.716  24.940  0.00  0.00    +0.163 C 
ATOM     28  O   UNL     1      -2.816  -0.478  25.240  0.00  0.00    -0.354 OA
ENDROOT
BRANCH  13  12
ATOM     12  C   UNL     1      -1.434  -0.744  25.491  0.00  0.00    +0.079 C 
BRANCH  12  11
ATOM      9  C   UNL     1      -0.711   1.192  24.958  0.00  0.00    +0.177 A 
ATOM     10  C   UNL     1      -1.209   0.705  25.400  0.00  0.00    +0.058 A 
ATOM     11  C   UNL     1      -1.059  -0.077  25.184  0.00  0.00    +0.103 A 
ATOM     29  N   UNL     1      -0.469  -0.074  24.608  0.00  0.00    -0.081 NA
ATOM     30  O   UNL     1      -0.254   0.711  24.468  0.00  0.00    -0.354 OA
BRANCH   9   6
ATOM      3  C   UNL     1      -0.608   3.662  25.077  0.00  0.00    +0.139 A 
ATOM      4  C   UNL     1      -0.622   3.215  25.770  0.00  0.00    +0.037 A 
ATOM      5  C   UNL     1      -0.657   2.393  25.730  0.00  0.00    +0.006 A 
ATOM      6  C   UNL     1      -0.677   2.015  24.997  0.00  0.00    +0.037 A 
ATOM      7  C   UNL     1      -0.663   2.462  24.303  0.00  0.00    +0.006 A 
ATOM      8  C   UNL     1      -0.629   3.284  24.343  0.00  0.00    +0.037 A 
BRANCH   3   2
ATOM      1  C   UNL     1      -1.270   4.928  25.092  0.00  0.00    +0.252 C 
ATOM      2  O   UNL     1      -0.574   4.485  25.116  0.00  0.00    -0.471 OA
ENDBRANCH   3   2
ENDBRANCH   9   6
ENDBRANCH  12  11
ENDBRANCH  13  12
BRANCH  18  19
ATOM     19  C   UNL     1      -4.197  -0.212  24.990  0.00  0.00    +0.121 C 
BRANCH  19  20
ATOM     20  N   UNL     1      -4.259   0.434  24.479  0.00  0.00    -0.217 NA
BRANCH  20  21
ATOM     21  C   UNL     1      -4.599   1.137  24.744  0.00  0.00    +0.076 C 
ATOM     22  C   UNL     1      -4.320   1.861  24.461  0.00  0.00    +0.035 C 
ATOM     23  C   UNL     1      -4.660   2.565  24.726  0.00  0.00    +0.074 C 
ATOM     24  N   UNL     1      -5.279   2.545  25.272  0.00  0.00    -0.271 NA
ATOM     25  C   UNL     1      -5.618   3.249  25.536  0.00  0.00    +0.090 C 
ATOM     26  C   UNL     1      -5.557   1.822  25.553  0.00  0.00    +0.074 C 
ATOM     27  C   UNL     1      -5.217   1.117  25.289  0.00  0.00    +0.035 C 
ENDBRANCH  20  21
ENDBRANCH  19  20
ENDBRANCH  18  19
TORSDOF 7
ENDMDL
