REMARK  Name = 
REMARK  4 active torsions:
REMARK  status: ('A' for Active; 'I' for Inactive)
REMARK    1  A    between atoms: O_2  and  C_3
REMARK    2  A    between atoms: C_6  and  C_9
REMARK    3  A    between atoms: C_12  and  C_14
REMARK    4  A    between atoms: N_19  and  C_20
REMARK                            x       y       z     vdW  Elec       q    Type
REMARK                         _______ _______ _______ _____ _____    ______ ____
ROOT
ATOM     14  C   UNL     1       1.937  -2.486   0.000  0.00  0.00    +0.140 C 
ATOM     15  C   UNL     1       2.192  -3.270   0.000  0.00  0.00    +0.060 C 
ATOM     16  C   UNL     1       1.524  -3.755   0.000  0.00  0.00    +0.170 C 
ATOM     17  O   UNL     1       1.524  -4.580   0.000  0.00  0.00    -0.222 OA
ATOM     18  C   UNL     1       0.857  -3.270   0.000  0.00  0.00    +0.106 C 
ATOM     19  N   UNL     1       1.111  -2.486   0.000  0.00  0.00    -0.265 NA
ENDROOT
BRANCH  19  20
ATOM     20  C   UNL     1       0.627  -1.818   0.000  0.00  0.00    +0.061 C 
ATOM     21  C   UNL     1      -0.194  -1.905   0.000  0.00  0.00    +0.038 C 
ATOM     22  C   UNL     1      -0.679  -1.237   0.000  0.00  0.00    +0.095 C 
ATOM     23  N   UNL     1      -0.343  -0.483   0.000  0.00  0.00    -0.279 N 
ATOM     24  C   UNL     1       0.477  -0.397   0.000  0.00  0.00    +0.095 C 
ATOM     25  C   UNL     1       0.962  -1.065   0.000  0.00  0.00    +0.038 C 
ATOM     26  C   UNL     1      -0.828   0.184   0.000  0.00  0.00    +0.226 C 
ATOM     27  C   UNL     1      -1.649   0.098   0.000  0.00  0.00    +0.095 C 
ATOM     28  O   UNL     1      -0.493   0.938   0.000  0.00  0.00    -0.275 OA
ENDBRANCH  19  20
BRANCH  14  12
ATOM      9  C   UNL     1       2.834  -0.549   0.000  0.00  0.00    +0.203 A 
ATOM     10  N   UNL     1       3.501  -1.034   0.000  0.00  0.00    -0.056 NA
ATOM     11  O   UNL     1       3.247  -1.818   0.000  0.00  0.00    -0.336 OA
ATOM     12  C   UNL     1       2.421  -1.818   0.000  0.00  0.00    +0.251 A 
ATOM     13  N   UNL     1       2.167  -1.034   0.000  0.00  0.00    -0.190 NA
BRANCH   9   6
ATOM      3  C   UNL     1       2.834   1.926   0.000  0.00  0.00    +0.139 A 
ATOM      4  C   UNL     1       3.548   1.514   0.000  0.00  0.00    +0.037 A 
ATOM      5  C   UNL     1       3.548   0.689   0.000  0.00  0.00    +0.006 A 
ATOM      6  C   UNL     1       2.834   0.276   0.000  0.00  0.00    +0.039 A 
ATOM      7  C   UNL     1       2.119   0.689   0.000  0.00  0.00    +0.006 A 
ATOM      8  C   UNL     1       2.119   1.514   0.000  0.00  0.00    +0.037 A 
BRANCH   3   2
ATOM      1  C   UNL     1       2.119   3.164   0.000  0.00  0.00    +0.252 C 
ATOM      2  O   UNL     1       2.834   2.751   0.000  0.00  0.00    -0.471 OA
ENDBRANCH   3   2
ENDBRANCH   9   6
ENDBRANCH  14  12
TORSDOF 4
