MODEL 1
REMARK VINA RESULT:     -13.7      0.000      0.000
REMARK  Name = 
REMARK  6 active torsions:
REMARK  status: ('A' for Active; 'I' for Inactive)
REMARK    1  A    between atoms: N_7  and  C_10
REMARK    2  A    between atoms: C_12  and  C_16
REMARK    3  A    between atoms: C_19  and  C_21
REMARK    4  A    between atoms: N_25  and  C_26
REMARK    5  A    between atoms: C_26  and  C_27
REMARK    6  A    between atoms: C_30  and  C_33
REMARK                            x       y       z     vdW  Elec       q    Type
REMARK                         _______ _______ _______ _____ _____    ______ ____
ROOT
ATOM     16  C   UNL     1      -0.622   2.457  24.938  0.00  0.00    +0.203 A 
ATOM     17  N   UNL     1       0.101   2.361  25.325  0.00  0.00    -0.056 NA
ATOM     18  O   UNL     1       0.440   1.657  25.061  0.00  0.00    -0.336 OA
ATOM     19  C   UNL     1      -0.073   1.318  24.511  0.00  0.00    +0.251 A 
ATOM     20  N   UNL     1      -0.729   1.812  24.435  0.00  0.00    -0.190 NA
ENDROOT
BRANCH  16  12
ATOM     10  C   UNL     1      -2.475   3.572  25.228  0.00  0.00    +0.132 A 
ATOM     11  C   UNL     1      -1.952   2.942  25.128  0.00  0.00    +0.037 A 
ATOM     12  C   UNL     1      -1.145   3.087  25.038  0.00  0.00    +0.043 A 
ATOM     13  C   UNL     1      -0.861   3.862  25.047  0.00  0.00    +0.024 A 
ATOM     14  C   UNL     1      -1.384   4.492  25.147  0.00  0.00    +0.100 A 
ATOM     15  N   UNL     1      -2.192   4.347  25.237  0.00  0.00    -0.229 NA
BRANCH  10   7
ATOM      1  C   UNL     1      -6.075   2.423  25.125  0.00  0.00    +0.095 C 
ATOM      2  C   UNL     1      -5.704   2.995  25.589  0.00  0.00    +0.226 C 
ATOM      3  O   UNL     1      -6.140   3.422  26.143  0.00  0.00    -0.275 OA
ATOM      4  N   UNL     1      -4.897   3.139  25.498  0.00  0.00    -0.276 N 
ATOM      5  C   UNL     1      -4.525   3.711  25.963  0.00  0.00    +0.115 C 
ATOM      6  C   UNL     1      -3.718   3.856  25.873  0.00  0.00    +0.114 C 
ATOM      7  N   UNL     1      -3.283   3.428  25.318  0.00  0.00    -0.290 N 
ATOM      8  C   UNL     1      -3.654   2.856  24.854  0.00  0.00    +0.114 C 
ATOM      9  C   UNL     1      -4.461   2.712  24.944  0.00  0.00    +0.115 C 
ENDBRANCH  10   7
ENDBRANCH  16  12
BRANCH  19  21
ATOM     21  C   UNL     1       0.049   0.609  24.107  0.00  0.00    +0.138 C 
ATOM     22  C   UNL     1       0.519   0.508  23.436  0.00  0.00    +0.027 C 
ATOM     23  C   UNL     1       0.483  -0.287  23.217  0.00  0.00    +0.019 C 
ATOM     24  C   UNL     1      -0.009  -0.677  23.753  0.00  0.00    +0.073 C 
ATOM     25  N   UNL     1      -0.277  -0.123  24.303  0.00  0.00    -0.263 NA
BRANCH  25  26
ATOM     26  C   UNL     1      -0.782  -0.275  24.937  0.00  0.00    +0.099 C 
BRANCH  26  27
ATOM     27  C   UNL     1      -1.356  -0.864  24.875  0.00  0.00    -0.006 A 
ATOM     28  C   UNL     1      -1.154  -1.652  25.006  0.00  0.00    -0.003 A 
ATOM     29  C   UNL     1      -1.728  -2.242  24.945  0.00  0.00    +0.004 A 
ATOM     30  C   UNL     1      -2.505  -2.042  24.752  0.00  0.00    +0.071 A 
ATOM     31  C   UNL     1      -2.707  -1.253  24.621  0.00  0.00    +0.004 A 
ATOM     32  C   UNL     1      -2.134  -0.664  24.682  0.00  0.00    -0.003 A 
BRANCH  30  33
ATOM     33  C   UNL     1      -3.079  -2.632  24.690  0.00  0.00    +0.419 C 
ATOM     34  F   UNL     1      -3.653  -3.220  24.629  0.00  0.00    -0.166 F 
ATOM     35  F   UNL     1      -3.385  -2.410  25.423  0.00  0.00    -0.166 F 
ATOM     36  F   UNL     1      -2.773  -2.853  23.957  0.00  0.00    -0.166 F 
ENDBRANCH  30  33
ENDBRANCH  26  27
ENDBRANCH  25  26
ENDBRANCH  19  21
TORSDOF 6
ENDMDL
MODEL 2
REMARK VINA RESULT:     -13.4      2.291      5.030
REMARK  Name = 
REMARK  6 active torsions:
REMARK  status: ('A' for Active; 'I' for Inactive)
REMARK    1  A    between atoms: N_7  and  C_10
REMARK    2  A    between atoms: C_12  and  C_16
REMARK    3  A    between atoms: C_19  and  C_21
REMARK    4  A    between atoms: N_25  and  C_26
REMARK    5  A    between atoms: C_26  and  C_27
REMARK    6  A    between atoms: C_30  and  C_33
REMARK                            x       y       z     vdW  Elec       q    Type
REMARK                         _______ _______ _______ _____ _____    ______ ____
ROOT
ATOM     16  C   UNL     1      -0.141   1.918  24.821  0.00  0.00    +0.203 A 
ATOM     17  N   UNL     1       0.329   2.178  25.448  0.00  0.00    -0.056 NA
ATOM     18  O   UNL     1       0.097   2.948  25.637  0.00  0.00    -0.336 OA
ATOM     19  C   UNL     1      -0.515   3.162  25.127  0.00  0.00    +0.251 A 
ATOM     20  N   UNL     1      -0.662   2.525  24.623  0.00  0.00    -0.190 NA
ENDROOT
BRANCH  16  12
ATOM     10  C   UNL     1      -0.643  -0.120  24.224  0.00  0.00    +0.132 A 
ATOM     11  C   UNL     1      -0.687   0.618  24.588  0.00  0.00    +0.037 A 
ATOM     12  C   UNL     1      -0.097   1.179  24.457  0.00  0.00    +0.043 A 
ATOM     13  C   UNL     1       0.539   1.001  23.962  0.00  0.00    +0.024 A 
ATOM     14  C   UNL     1       0.583   0.262  23.597  0.00  0.00    +0.100 A 
ATOM     15  N   UNL     1      -0.008  -0.299  23.729  0.00  0.00    -0.229 NA
BRANCH  10   7
ATOM      1  C   UNL     1      -3.792  -2.182  24.580  0.00  0.00    +0.095 C 
ATOM      2  C   UNL     1      -3.005  -2.364  24.748  0.00  0.00    +0.226 C 
ATOM      3  O   UNL     1      -2.809  -3.107  25.047  0.00  0.00    -0.275 OA
ATOM      4  N   UNL     1      -2.415  -1.803  24.617  0.00  0.00    -0.276 N 
ATOM      5  C   UNL     1      -1.628  -1.985  24.785  0.00  0.00    +0.115 C 
ATOM      6  C   UNL     1      -1.037  -1.425  24.654  0.00  0.00    +0.114 C 
ATOM      7  N   UNL     1      -1.234  -0.682  24.355  0.00  0.00    -0.290 N 
ATOM      8  C   UNL     1      -2.021  -0.499  24.187  0.00  0.00    +0.114 C 
ATOM      9  C   UNL     1      -2.611  -1.060  24.318  0.00  0.00    +0.115 C 
ENDBRANCH  10   7
ENDBRANCH  16  12
BRANCH  19  21
ATOM     21  C   UNL     1      -0.911   3.886  25.122  0.00  0.00    +0.138 C 
ATOM     22  C   UNL     1      -0.624   4.593  24.807  0.00  0.00    +0.027 C 
ATOM     23  C   UNL     1      -1.198   5.174  24.920  0.00  0.00    +0.019 C 
ATOM     24  C   UNL     1      -1.840   4.826  25.306  0.00  0.00    +0.073 C 
ATOM     25  N   UNL     1      -1.662   4.030  25.430  0.00  0.00    -0.263 NA
BRANCH  25  26
ATOM     26  C   UNL     1      -2.150   3.476  25.798  0.00  0.00    +0.099 C 
BRANCH  26  27
ATOM     27  C   UNL     1      -2.970   3.545  25.739  0.00  0.00    -0.006 A 
ATOM     28  C   UNL     1      -3.369   3.190  25.111  0.00  0.00    -0.003 A 
ATOM     29  C   UNL     1      -4.190   3.259  25.052  0.00  0.00    +0.004 A 
ATOM     30  C   UNL     1      -4.610   3.682  25.622  0.00  0.00    +0.071 A 
ATOM     31  C   UNL     1      -4.210   4.036  26.251  0.00  0.00    +0.004 A 
ATOM     32  C   UNL     1      -3.390   3.968  26.309  0.00  0.00    -0.003 A 
BRANCH  30  33
ATOM     33  C   UNL     1      -5.430   3.750  25.563  0.00  0.00    +0.419 C 
ATOM     34  F   UNL     1      -6.250   3.819  25.504  0.00  0.00    -0.166 F 
ATOM     35  F   UNL     1      -5.349   4.541  25.344  0.00  0.00    -0.166 F 
ATOM     36  F   UNL     1      -5.512   2.959  25.783  0.00  0.00    -0.166 F 
ENDBRANCH  30  33
ENDBRANCH  26  27
ENDBRANCH  25  26
ENDBRANCH  19  21
TORSDOF 6
ENDMDL
MODEL 3
REMARK VINA RESULT:     -12.6      1.346      4.243
REMARK  Name = 
REMARK  6 active torsions:
REMARK  status: ('A' for Active; 'I' for Inactive)
REMARK    1  A    between atoms: N_7  and  C_10
REMARK    2  A    between atoms: C_12  and  C_16
REMARK    3  A    between atoms: C_19  and  C_21
REMARK    4  A    between atoms: N_25  and  C_26
REMARK    5  A    between atoms: C_26  and  C_27
REMARK    6  A    between atoms: C_30  and  C_33
REMARK                            x       y       z     vdW  Elec       q    Type
REMARK                         _______ _______ _______ _____ _____    ______ ____
ROOT
ATOM     16  C   UNL     1      -2.929   3.351  25.323  0.00  0.00    +0.203 A 
ATOM     17  N   UNL     1      -3.398   3.811  25.822  0.00  0.00    -0.056 NA
ATOM     18  O   UNL     1      -4.150   3.471  25.850  0.00  0.00    -0.336 OA
ATOM     19  C   UNL     1      -4.145   2.802  25.368  0.00  0.00    +0.251 A 
ATOM     20  N   UNL     1      -3.390   2.728  25.042  0.00  0.00    -0.190 NA
ENDROOT
BRANCH  16  12
ATOM     10  C   UNL     1      -0.880   3.021  24.649  0.00  0.00    +0.132 A 
ATOM     11  C   UNL     1      -1.671   2.882  24.835  0.00  0.00    +0.037 A 
ATOM     12  C   UNL     1      -2.137   3.491  25.137  0.00  0.00    +0.043 A 
ATOM     13  C   UNL     1      -1.813   4.241  25.254  0.00  0.00    +0.024 A 
ATOM     14  C   UNL     1      -1.021   4.380  25.068  0.00  0.00    +0.100 A 
ATOM     15  N   UNL     1      -0.554   3.770  24.765  0.00  0.00    -0.229 NA
BRANCH  10   7
ATOM      1  C   UNL     1       0.640  -0.129  23.214  0.00  0.00    +0.095 C 
ATOM      2  C   UNL     1       0.988   0.584  23.439  0.00  0.00    +0.226 C 
ATOM      3  O   UNL     1       1.802   0.688  23.362  0.00  0.00    -0.275 OA
ATOM      4  N   UNL     1       0.520   1.193  23.742  0.00  0.00    -0.276 N 
ATOM      5  C   UNL     1       0.868   1.906  23.967  0.00  0.00    +0.115 C 
ATOM      6  C   UNL     1       0.402   2.516  24.269  0.00  0.00    +0.114 C 
ATOM      7  N   UNL     1      -0.413   2.411  24.346  0.00  0.00    -0.290 N 
ATOM      8  C   UNL     1      -0.761   1.698  24.121  0.00  0.00    +0.114 C 
ATOM      9  C   UNL     1      -0.294   1.089  23.819  0.00  0.00    +0.115 C 
ENDBRANCH  10   7
ENDBRANCH  16  12
BRANCH  19  21
ATOM     21  C   UNL     1      -4.782   2.295  25.235  0.00  0.00    +0.138 C 
ATOM     22  C   UNL     1      -5.573   2.519  25.163  0.00  0.00    +0.027 C 
ATOM     23  C   UNL     1      -6.020   1.839  25.034  0.00  0.00    +0.019 C 
ATOM     24  C   UNL     1      -5.506   1.193  25.026  0.00  0.00    +0.073 C 
ATOM     25  N   UNL     1      -4.741   1.476  25.150  0.00  0.00    -0.263 NA
BRANCH  25  26
ATOM     26  C   UNL     1      -4.055   1.018  25.183  0.00  0.00    +0.099 C 
BRANCH  26  27
ATOM     27  C   UNL     1      -4.065   0.239  24.914  0.00  0.00    -0.006 A 
ATOM     28  C   UNL     1      -4.071   0.083  24.104  0.00  0.00    -0.003 A 
ATOM     29  C   UNL     1      -4.080  -0.697  23.834  0.00  0.00    +0.004 A 
ATOM     30  C   UNL     1      -4.085  -1.320  24.374  0.00  0.00    +0.071 A 
ATOM     31  C   UNL     1      -4.079  -1.164  25.184  0.00  0.00    +0.004 A 
ATOM     32  C   UNL     1      -4.069  -0.385  25.454  0.00  0.00    -0.003 A 
BRANCH  30  33
ATOM     33  C   UNL     1      -4.094  -2.100  24.104  0.00  0.00    +0.419 C 
ATOM     34  F   UNL     1      -4.104  -2.879  23.834  0.00  0.00    -0.166 F 
ATOM     35  F   UNL     1      -4.829  -1.969  23.753  0.00  0.00    -0.166 F 
ATOM     36  F   UNL     1      -3.359  -2.231  24.456  0.00  0.00    -0.166 F 
ENDBRANCH  30  33
ENDBRANCH  26  27
ENDBRANCH  25  26
ENDBRANCH  19  21
TORSDOF 6
ENDMDL
MODEL 4
REMARK VINA RESULT:     -12.3      2.362      4.644
REMARK  Name = 
REMARK  6 active torsions:
REMARK  status: ('A' for Active; 'I' for Inactive)
REMARK    1  A    between atoms: N_7  and  C_10
REMARK    2  A    between atoms: C_12  and  C_16
REMARK    3  A    between atoms: C_19  and  C_21
REMARK    4  A    between atoms: N_25  and  C_26
REMARK    5  A    between atoms: C_26  and  C_27
REMARK    6  A    between atoms: C_30  and  C_33
REMARK                            x       y       z     vdW  Elec       q    Type
REMARK                         _______ _______ _______ _____ _____    ______ ____
ROOT
ATOM     16  C   UNL     1      -4.011   3.057  25.512  0.00  0.00    +0.203 A 
ATOM     17  N   UNL     1      -4.105   3.586  26.139  0.00  0.00    -0.056 NA
ATOM     18  O   UNL     1      -3.446   4.083  26.154  0.00  0.00    -0.336 OA
ATOM     19  C   UNL     1      -2.945   3.861  25.537  0.00  0.00    +0.251 A 
ATOM     20  N   UNL     1      -3.294   3.227  25.141  0.00  0.00    -0.190 NA
ENDROOT
BRANCH  16  12
ATOM     10  C   UNL     1      -4.802   1.097  24.971  0.00  0.00    +0.132 A 
ATOM     11  C   UNL     1      -4.272   1.691  25.187  0.00  0.00    +0.037 A 
ATOM     12  C   UNL     1      -4.541   2.463  25.296  0.00  0.00    +0.043 A 
ATOM     13  C   UNL     1      -5.339   2.642  25.189  0.00  0.00    +0.024 A 
ATOM     14  C   UNL     1      -5.869   2.048  24.973  0.00  0.00    +0.100 A 
ATOM     15  N   UNL     1      -5.601   1.274  24.864  0.00  0.00    -0.229 NA
BRANCH  10   7
ATOM      1  C   UNL     1      -3.359  -2.393  25.152  0.00  0.00    +0.095 C 
ATOM      2  C   UNL     1      -3.729  -1.993  24.533  0.00  0.00    +0.226 C 
ATOM      3  O   UNL     1      -3.832  -2.366  23.805  0.00  0.00    -0.275 OA
ATOM      4  N   UNL     1      -3.997  -1.220  24.643  0.00  0.00    -0.276 N 
ATOM      5  C   UNL     1      -4.368  -0.821  24.024  0.00  0.00    +0.115 C 
ATOM      6  C   UNL     1      -4.637  -0.049  24.133  0.00  0.00    +0.114 C 
ATOM      7  N   UNL     1      -4.534   0.324  24.862  0.00  0.00    -0.290 N 
ATOM      8  C   UNL     1      -4.163  -0.076  25.481  0.00  0.00    +0.114 C 
ATOM      9  C   UNL     1      -3.895  -0.848  25.371  0.00  0.00    +0.115 C 
ENDBRANCH  10   7
ENDBRANCH  16  12
BRANCH  19  21
ATOM     21  C   UNL     1      -2.222   4.211  25.349  0.00  0.00    +0.138 C 
ATOM     22  C   UNL     1      -2.106   5.000  25.137  0.00  0.00    +0.027 C 
ATOM     23  C   UNL     1      -1.301   5.111  24.997  0.00  0.00    +0.019 C 
ATOM     24  C   UNL     1      -0.919   4.389  25.122  0.00  0.00    +0.073 C 
ATOM     25  N   UNL     1      -1.488   3.833  25.339  0.00  0.00    -0.263 NA
BRANCH  25  26
ATOM     26  C   UNL     1      -1.349   3.040  25.516  0.00  0.00    +0.099 C 
BRANCH  26  27
ATOM     27  C   UNL     1      -0.770   2.621  25.104  0.00  0.00    -0.006 A 
ATOM     28  C   UNL     1      -0.055   2.435  25.471  0.00  0.00    -0.003 A 
ATOM     29  C   UNL     1       0.524   2.016  25.059  0.00  0.00    +0.004 A 
ATOM     30  C   UNL     1       0.387   1.783  24.279  0.00  0.00    +0.071 A 
ATOM     31  C   UNL     1      -0.327   1.969  23.912  0.00  0.00    +0.004 A 
ATOM     32  C   UNL     1      -0.906   2.388  24.324  0.00  0.00    -0.003 A 
BRANCH  30  33
ATOM     33  C   UNL     1       0.967   1.364  23.867  0.00  0.00    +0.419 C 
ATOM     34  F   UNL     1       1.545   0.945  23.455  0.00  0.00    -0.166 F 
ATOM     35  F   UNL     1       1.441   2.038  23.849  0.00  0.00    -0.166 F 
ATOM     36  F   UNL     1       0.491   0.689  23.885  0.00  0.00    -0.166 F 
ENDBRANCH  30  33
ENDBRANCH  26  27
ENDBRANCH  25  26
ENDBRANCH  19  21
TORSDOF 6
ENDMDL
MODEL 5
REMARK VINA RESULT:     -12.0      2.682      6.102
REMARK  Name = 
REMARK  6 active torsions:
REMARK  status: ('A' for Active; 'I' for Inactive)
REMARK    1  A    between atoms: N_7  and  C_10
REMARK    2  A    between atoms: C_12  and  C_16
REMARK    3  A    between atoms: C_19  and  C_21
REMARK    4  A    between atoms: N_25  and  C_26
REMARK    5  A    between atoms: C_26  and  C_27
REMARK    6  A    between atoms: C_30  and  C_33
REMARK                            x       y       z     vdW  Elec       q    Type
REMARK                         _______ _______ _______ _____ _____    ______ ____
ROOT
ATOM     16  C   UNL     1      -4.055   0.073  24.919  0.00  0.00    +0.203 A 
ATOM     17  N   UNL     1      -4.798  -0.040  24.576  0.00  0.00    -0.056 NA
ATOM     18  O   UNL     1      -5.236   0.651  24.683  0.00  0.00    -0.336 OA
ATOM     19  C   UNL     1      -4.764   1.191  25.093  0.00  0.00    +0.251 A 
ATOM     20  N   UNL     1      -4.035   0.833  25.239  0.00  0.00    -0.190 NA
ENDROOT
BRANCH  16  12
ATOM     10  C   UNL     1      -2.087  -0.833  24.656  0.00  0.00    +0.132 A 
ATOM     11  C   UNL     1      -2.701  -0.281  24.637  0.00  0.00    +0.037 A 
ATOM     12  C   UNL     1      -3.442  -0.479  24.939  0.00  0.00    +0.043 A 
ATOM     13  C   UNL     1      -3.571  -1.227  25.262  0.00  0.00    +0.024 A 
ATOM     14  C   UNL     1      -2.957  -1.778  25.282  0.00  0.00    +0.100 A 
ATOM     15  N   UNL     1      -2.215  -1.581  24.979  0.00  0.00    -0.229 NA
BRANCH  10   7
ATOM      1  C   UNL     1       1.131   0.740  23.448  0.00  0.00    +0.095 C 
ATOM      2  C   UNL     1       0.880  -0.045  23.446  0.00  0.00    +0.226 C 
ATOM      3  O   UNL     1       1.370  -0.634  23.141  0.00  0.00    -0.275 OA
ATOM      4  N   UNL     1       0.138  -0.242  23.749  0.00  0.00    -0.276 N 
ATOM      5  C   UNL     1      -0.113  -1.027  23.746  0.00  0.00    +0.115 C 
ATOM      6  C   UNL     1      -0.855  -1.225  24.049  0.00  0.00    +0.114 C 
ATOM      7  N   UNL     1      -1.345  -0.636  24.354  0.00  0.00    -0.290 N 
ATOM      8  C   UNL     1      -1.094   0.150  24.356  0.00  0.00    +0.114 C 
ATOM      9  C   UNL     1      -0.352   0.347  24.054  0.00  0.00    +0.115 C 
ENDBRANCH  10   7
ENDBRANCH  16  12
BRANCH  19  21
ATOM     21  C   UNL     1      -4.983   1.953  25.318  0.00  0.00    +0.138 C 
ATOM     22  C   UNL     1      -5.640   2.154  25.776  0.00  0.00    +0.027 C 
ATOM     23  C   UNL     1      -5.647   2.974  25.866  0.00  0.00    +0.019 C 
ATOM     24  C   UNL     1      -4.995   3.280  25.463  0.00  0.00    +0.073 C 
ATOM     25  N   UNL     1      -4.585   2.649  25.124  0.00  0.00    -0.263 NA
BRANCH  25  26
ATOM     26  C   UNL     1      -3.898   2.705  24.672  0.00  0.00    +0.099 C 
BRANCH  26  27
ATOM     27  C   UNL     1      -3.355   3.309  24.818  0.00  0.00    -0.006 A 
ATOM     28  C   UNL     1      -3.369   3.995  24.362  0.00  0.00    -0.003 A 
ATOM     29  C   UNL     1      -2.827   4.600  24.508  0.00  0.00    +0.004 A 
ATOM     30  C   UNL     1      -2.270   4.516  25.111  0.00  0.00    +0.071 A 
ATOM     31  C   UNL     1      -2.256   3.830  25.567  0.00  0.00    +0.004 A 
ATOM     32  C   UNL     1      -2.798   3.226  25.421  0.00  0.00    -0.003 A 
BRANCH  30  33
ATOM     33  C   UNL     1      -1.727   5.121  25.257  0.00  0.00    +0.419 C 
ATOM     34  F   UNL     1      -1.185   5.725  25.403  0.00  0.00    -0.166 F 
ATOM     35  F   UNL     1      -2.240   5.447  25.814  0.00  0.00    -0.166 F 
ATOM     36  F   UNL     1      -1.213   4.794  24.700  0.00  0.00    -0.166 F 
ENDBRANCH  30  33
ENDBRANCH  26  27
ENDBRANCH  25  26
ENDBRANCH  19  21
TORSDOF 6
ENDMDL
MODEL 6
REMARK VINA RESULT:     -11.4      2.107      3.695
REMARK  Name = 
REMARK  6 active torsions:
REMARK  status: ('A' for Active; 'I' for Inactive)
REMARK    1  A    between atoms: N_7  and  C_10
REMARK    2  A    between atoms: C_12  and  C_16
REMARK    3  A    between atoms: C_19  and  C_21
REMARK    4  A    between atoms: N_25  and  C_26
REMARK    5  A    between atoms: C_26  and  C_27
REMARK    6  A    between atoms: C_30  and  C_33
REMARK                            x       y       z     vdW  Elec       q    Type
REMARK                         _______ _______ _______ _____ _____    ______ ____
ROOT
ATOM     16  C   UNL     1      -4.254   0.477  25.173  0.00  0.00    +0.203 A 
ATOM     17  N   UNL     1      -4.508   0.016  25.808  0.00  0.00    -0.056 NA
ATOM     18  O   UNL     1      -4.194  -0.742  25.715  0.00  0.00    -0.336 OA
ATOM     19  C   UNL     1      -3.747  -0.749  25.022  0.00  0.00    +0.251 A 
ATOM     20  N   UNL     1      -3.784   0.004  24.687  0.00  0.00    -0.190 NA
ENDROOT
BRANCH  16  12
ATOM     10  C   UNL     1      -4.031   2.638  24.966  0.00  0.00    +0.132 A 
ATOM     11  C   UNL     1      -3.847   1.844  25.093  0.00  0.00    +0.037 A 
ATOM     12  C   UNL     1      -4.438   1.271  25.046  0.00  0.00    +0.043 A 
ATOM     13  C   UNL     1      -5.214   1.491  24.871  0.00  0.00    +0.024 A 
ATOM     14  C   UNL     1      -5.398   2.285  24.744  0.00  0.00    +0.100 A 
ATOM     15  N   UNL     1      -4.807   2.859  24.791  0.00  0.00    -0.229 NA
BRANCH  10   7
ATOM      1  C   UNL     1      -0.968   4.840  24.729  0.00  0.00    +0.095 C 
ATOM      2  C   UNL     1      -1.667   4.932  25.156  0.00  0.00    +0.226 C 
ATOM      3  O   UNL     1      -1.775   5.598  25.630  0.00  0.00    -0.275 OA
ATOM      4  N   UNL     1      -2.258   4.358  25.108  0.00  0.00    -0.276 N 
ATOM      5  C   UNL     1      -2.958   4.450  25.535  0.00  0.00    +0.115 C 
ATOM      6  C   UNL     1      -3.549   3.877  25.488  0.00  0.00    +0.114 C 
ATOM      7  N   UNL     1      -3.440   3.212  25.013  0.00  0.00    -0.290 N 
ATOM      8  C   UNL     1      -2.740   3.119  24.586  0.00  0.00    +0.114 C 
ATOM      9  C   UNL     1      -2.150   3.693  24.634  0.00  0.00    +0.115 C 
ENDBRANCH  10   7
ENDBRANCH  16  12
BRANCH  19  21
ATOM     21  C   UNL     1      -3.334  -1.395  24.717  0.00  0.00    +0.138 C 
ATOM     22  C   UNL     1      -3.669  -2.052  24.346  0.00  0.00    +0.027 C 
ATOM     23  C   UNL     1      -3.057  -2.561  24.129  0.00  0.00    +0.019 C 
ATOM     24  C   UNL     1      -2.344  -2.219  24.366  0.00  0.00    +0.073 C 
ATOM     25  N   UNL     1      -2.516  -1.498  24.730  0.00  0.00    -0.263 NA
BRANCH  25  26
ATOM     26  C   UNL     1      -1.966  -0.974  25.049  0.00  0.00    +0.099 C 
BRANCH  26  27
ATOM     27  C   UNL     1      -1.281  -0.788  24.630  0.00  0.00    -0.006 A 
ATOM     28  C   UNL     1      -1.254  -0.109  24.163  0.00  0.00    -0.003 A 
ATOM     29  C   UNL     1      -0.568   0.077  23.743  0.00  0.00    +0.004 A 
ATOM     30  C   UNL     1       0.091  -0.418  23.791  0.00  0.00    +0.071 A 
ATOM     31  C   UNL     1       0.064  -1.097  24.258  0.00  0.00    +0.004 A 
ATOM     32  C   UNL     1      -0.621  -1.282  24.677  0.00  0.00    -0.003 A 
BRANCH  30  33
ATOM     33  C   UNL     1       0.777  -0.232  23.371  0.00  0.00    +0.419 C 
ATOM     34  F   UNL     1       1.462  -0.046  22.952  0.00  0.00    -0.166 F 
ATOM     35  F   UNL     1       0.825   0.489  23.769  0.00  0.00    -0.166 F 
ATOM     36  F   UNL     1       0.729  -0.953  22.973  0.00  0.00    -0.166 F 
ENDBRANCH  30  33
ENDBRANCH  26  27
ENDBRANCH  25  26
ENDBRANCH  19  21
TORSDOF 6
ENDMDL
