MODEL 1
REMARK VINA RESULT:     -10.5      0.000      0.000
REMARK  Name = 
REMARK  3 active torsions:
REMARK  status: ('A' for Active; 'I' for Inactive)
REMARK    1  A    between atoms: C_2  and  C_4
REMARK    2  A    between atoms: C_4  and  N_5
REMARK    3  A    between atoms: C_8  and  C_10
REMARK                            x       y       z     vdW  Elec       q    Type
REMARK                         _______ _______ _______ _____ _____    ______ ____
ROOT
ATOM      5  N   UNL     1      -4.306   2.214  24.682  0.00  0.00    -0.272 NA
ATOM      6  C   UNL     1      -5.055   2.028  24.974  0.00  0.00    +0.073 C 
ATOM      7  C   UNL     1      -5.112   1.207  25.026  0.00  0.00    +0.028 C 
ATOM      8  C   UNL     1      -4.397   0.885  24.766  0.00  0.00    +0.094 C 
ATOM      9  C   UNL     1      -3.900   1.507  24.554  0.00  0.00    +0.081 C 
ENDROOT
BRANCH   8  10
ATOM     10  C   UNL     1      -4.214   0.081  24.727  0.00  0.00    +0.207 A 
ATOM     11  N   UNL     1      -3.796  -0.349  25.292  0.00  0.00    -0.212 NA
ATOM     12  C   UNL     1      -3.740  -1.129  25.029  0.00  0.00    +0.119 A 
ATOM     13  C   UNL     1      -4.123  -1.180  24.301  0.00  0.00    +0.164 A 
ATOM     14  O   UNL     1      -4.416  -0.433  24.113  0.00  0.00    -0.438 OA
ATOM     15  C   UNL     1      -4.156  -1.902  23.903  0.00  0.00    +0.039 A 
ATOM     16  C   UNL     1      -3.805  -2.572  24.232  0.00  0.00    +0.003 A 
ATOM     17  C   UNL     1      -3.422  -2.520  24.961  0.00  0.00    +0.002 A 
ATOM     18  C   UNL     1      -3.389  -1.799  25.360  0.00  0.00    +0.022 A 
ENDBRANCH   8  10
BRANCH   5   4
ATOM      4  C   UNL     1      -4.014   2.973  24.542  0.00  0.00    +0.072 C 
BRANCH   4   2
ATOM      1  C   UNL     1      -4.088   3.794  25.709  0.00  0.00    +0.001 C 
ATOM      2  C   UNL     1      -3.639   3.389  25.148  0.00  0.00    +0.016 C 
ATOM      3  C   UNL     1      -2.815   3.399  25.192  0.00  0.00    +0.001 C 
ENDBRANCH   4   2
ENDBRANCH   5   4
TORSDOF 3
ENDMDL
MODEL 2
REMARK VINA RESULT:     -10.0      0.856      4.299
REMARK  Name = 
REMARK  3 active torsions:
REMARK  status: ('A' for Active; 'I' for Inactive)
REMARK    1  A    between atoms: C_2  and  C_4
REMARK    2  A    between atoms: C_4  and  N_5
REMARK    3  A    between atoms: C_8  and  C_10
REMARK                            x       y       z     vdW  Elec       q    Type
REMARK                         _______ _______ _______ _____ _____    ______ ____
ROOT
ATOM      5  N   UNL     1      -3.815  -1.180  24.940  0.00  0.00    -0.272 NA
ATOM      6  C   UNL     1      -4.114  -1.110  24.174  0.00  0.00    +0.073 C 
ATOM      7  C   UNL     1      -4.378  -0.335  24.072  0.00  0.00    +0.028 C 
ATOM      8  C   UNL     1      -4.241   0.075  24.776  0.00  0.00    +0.094 C 
ATOM      9  C   UNL     1      -3.893  -0.447  25.311  0.00  0.00    +0.081 C 
ENDROOT
BRANCH   8  10
ATOM     10  C   UNL     1      -4.420   0.868  24.917  0.00  0.00    +0.207 A 
ATOM     11  N   UNL     1      -3.939   1.513  24.738  0.00  0.00    -0.212 NA
ATOM     12  C   UNL     1      -4.334   2.198  24.974  0.00  0.00    +0.119 A 
ATOM     13  C   UNL     1      -5.059   1.976  25.298  0.00  0.00    +0.164 A 
ATOM     14  O   UNL     1      -5.113   1.154  25.264  0.00  0.00    -0.438 OA
ATOM     15  C   UNL     1      -5.577   2.552  25.583  0.00  0.00    +0.039 A 
ATOM     16  C   UNL     1      -5.370   3.349  25.544  0.00  0.00    +0.003 A 
ATOM     17  C   UNL     1      -4.645   3.571  25.219  0.00  0.00    +0.002 A 
ATOM     18  C   UNL     1      -4.126   2.996  24.934  0.00  0.00    +0.022 A 
ENDBRANCH   8  10
BRANCH   5   4
ATOM      4  C   UNL     1      -3.493  -1.861  25.275  0.00  0.00    +0.072 C 
BRANCH   4   2
ATOM      1  C   UNL     1      -2.284  -2.309  24.660  0.00  0.00    +0.001 C 
ATOM      2  C   UNL     1      -3.091  -2.404  24.801  0.00  0.00    +0.016 C 
ATOM      3  C   UNL     1      -3.496  -3.042  24.470  0.00  0.00    +0.001 C 
ENDBRANCH   4   2
ENDBRANCH   5   4
TORSDOF 3
ENDMDL
MODEL 3
REMARK VINA RESULT:      -9.6      1.573      4.572
REMARK  Name = 
REMARK  3 active torsions:
REMARK  status: ('A' for Active; 'I' for Inactive)
REMARK    1  A    between atoms: C_2  and  C_4
REMARK    2  A    between atoms: C_4  and  N_5
REMARK    3  A    between atoms: C_8  and  C_10
REMARK                            x       y       z     vdW  Elec       q    Type
REMARK                         _______ _______ _______ _____ _____    ______ ____
ROOT
ATOM      5  N   UNL     1      -3.760   0.578  24.546  0.00  0.00    -0.272 NA
ATOM      6  C   UNL     1      -3.534   0.645  23.755  0.00  0.00    +0.073 C 
ATOM      7  C   UNL     1      -3.074   1.326  23.679  0.00  0.00    +0.028 C 
ATOM      8  C   UNL     1      -3.016   1.679  24.422  0.00  0.00    +0.094 C 
ATOM      9  C   UNL     1      -3.440   1.217  24.958  0.00  0.00    +0.081 C 
ENDROOT
BRANCH   8  10
ATOM     10  C   UNL     1      -2.606   2.373  24.598  0.00  0.00    +0.207 A 
ATOM     11  N   UNL     1      -1.792   2.488  24.526  0.00  0.00    -0.212 NA
ATOM     12  C   UNL     1      -1.622   3.259  24.760  0.00  0.00    +0.119 A 
ATOM     13  C   UNL     1      -2.330   3.622  24.978  0.00  0.00    +0.164 A 
ATOM     14  O   UNL     1      -2.938   3.075  24.878  0.00  0.00    -0.438 OA
ATOM     15  C   UNL     1      -2.328   4.405  25.240  0.00  0.00    +0.039 A 
ATOM     16  C   UNL     1      -1.619   4.824  25.283  0.00  0.00    +0.003 A 
ATOM     17  C   UNL     1      -0.911   4.461  25.065  0.00  0.00    +0.002 A 
ATOM     18  C   UNL     1      -0.912   3.679  24.804  0.00  0.00    +0.022 A 
ENDBRANCH   8  10
BRANCH   5   4
ATOM      4  C   UNL     1      -4.224  -0.023  24.869  0.00  0.00    +0.072 C 
BRANCH   4   2
ATOM      1  C   UNL     1      -4.048  -1.314  24.283  0.00  0.00    +0.001 C 
ATOM      2  C   UNL     1      -3.932  -0.793  24.911  0.00  0.00    +0.016 C 
ATOM      3  C   UNL     1      -3.523  -1.042  25.584  0.00  0.00    +0.001 C 
ENDBRANCH   4   2
ENDBRANCH   5   4
TORSDOF 3
ENDMDL
