MODEL 1
REMARK VINA RESULT:     -13.3      0.000      0.000
REMARK  Name = 
REMARK  5 active torsions:
REMARK  status: ('A' for Active; 'I' for Inactive)
REMARK    1  A    between atoms: O_2  and  C_3
REMARK    2  A    between atoms: C_3  and  C_4
REMARK    3  A    between atoms: C_4  and  C_5
REMARK    4  A    between atoms: C_16  and  C_21
REMARK    5  A    between atoms: C_24  and  S_25
REMARK                            x       y       z     vdW  Elec       q    Type
REMARK                         _______ _______ _______ _____ _____    ______ ____
ROOT
ATOM      5  C   UNL     1      -3.038   1.954  24.245  0.00  0.00    +0.228 C 
ATOM      6  O   UNL     1      -3.407   1.241  24.436  0.00  0.00    -0.275 OA
ATOM      7  N   UNL     1      -3.408   2.670  24.424  0.00  0.00    -0.279 N 
ATOM      8  C   UNL     1      -3.523   3.496  24.475  0.00  0.00    +0.095 C 
ATOM      9  C   UNL     1      -4.406   3.513  24.918  0.00  0.00    +0.043 C 
ATOM     10  C   UNL     1      -5.116   3.696  25.273  0.00  0.00    +0.011 C 
ATOM     11  C   UNL     1      -4.757   3.119  25.098  0.00  0.00    +0.058 C 
ATOM     12  C   UNL     1      -3.904   3.119  24.669  0.00  0.00    +0.099 C 
ATOM     13  C   UNL     1      -4.806   2.202  25.130  0.00  0.00    +0.041 A 
ATOM     14  C   UNL     1      -5.304   1.595  25.386  0.00  0.00    +0.013 A 
ATOM     15  C   UNL     1      -5.082   0.808  25.281  0.00  0.00    +0.006 A 
ATOM     16  C   UNL     1      -4.362   0.627  24.921  0.00  0.00    +0.056 A 
ATOM     17  C   UNL     1      -3.864   1.233  24.665  0.00  0.00    +0.261 A 
ATOM     18  O   UNL     1      -3.229   0.812  24.350  0.00  0.00    -0.267 OA
ATOM     19  N   UNL     1      -4.086   2.020  24.770  0.00  0.00    -0.299 N 
ATOM     20  C   UNL     1      -4.448   2.554  24.948  0.00  0.00    +0.110 C 
ENDROOT
BRANCH  16  21
ATOM     21  C   UNL     1      -4.140  -0.161  24.816  0.00  0.00    +0.005 A 
ATOM     22  C   UNL     1      -3.743  -0.561  25.419  0.00  0.00    +0.001 A 
ATOM     23  C   UNL     1      -3.521  -1.348  25.315  0.00  0.00    +0.006 A 
ATOM     24  C   UNL     1      -3.697  -1.736  24.609  0.00  0.00    +0.025 A 
ATOM     27  C   UNL     1      -4.094  -1.337  24.006  0.00  0.00    +0.006 A 
ATOM     28  C   UNL     1      -4.315  -0.549  24.110  0.00  0.00    +0.001 A 
BRANCH  24  25
ATOM     25  S   UNL     1      -3.475  -2.525  24.505  0.00  0.00    -0.113 S 
ATOM     26  C   UNL     1      -2.676  -2.734  24.520  0.00  0.00    +0.074 C 
ENDBRANCH  24  25
ENDBRANCH  16  21
BRANCH   5   4
ATOM      4  C   UNL     1      -2.302   1.952  23.875  0.00  0.00    +0.117 C 
BRANCH   4   3
ATOM      3  C   UNL     1      -1.613   2.016  24.326  0.00  0.00    +0.152 C 
BRANCH   3   2
ATOM      1  C   UNL     1      -0.188   2.078  24.406  0.00  0.00    +0.174 C 
ATOM      2  O   UNL     1      -0.875   2.009  23.955  0.00  0.00    -0.351 OA
ENDBRANCH   3   2
ENDBRANCH   4   3
ENDBRANCH   5   4
TORSDOF 5
ENDMDL
MODEL 2
REMARK VINA RESULT:     -12.8      1.907      3.960
REMARK  Name = 
REMARK  5 active torsions:
REMARK  status: ('A' for Active; 'I' for Inactive)
REMARK    1  A    between atoms: O_2  and  C_3
REMARK    2  A    between atoms: C_3  and  C_4
REMARK    3  A    between atoms: C_4  and  C_5
REMARK    4  A    between atoms: C_16  and  C_21
REMARK    5  A    between atoms: C_24  and  S_25
REMARK                            x       y       z     vdW  Elec       q    Type
REMARK                         _______ _______ _______ _____ _____    ______ ____
ROOT
ATOM      5  C   UNL     1      -1.911  -0.675  24.604  0.00  0.00    +0.228 C 
ATOM      6  O   UNL     1      -2.509  -0.113  24.514  0.00  0.00    -0.275 OA
ATOM      7  N   UNL     1      -2.096  -1.479  24.604  0.00  0.00    -0.279 N 
ATOM      8  C   UNL     1      -1.980  -2.306  24.643  0.00  0.00    +0.095 C 
ATOM      9  C   UNL     1      -2.914  -2.609  24.535  0.00  0.00    +0.043 C 
ATOM     10  C   UNL     1      -3.617  -3.015  24.460  0.00  0.00    +0.011 C 
ATOM     11  C   UNL     1      -3.402  -2.347  24.467  0.00  0.00    +0.058 C 
ATOM     12  C   UNL     1      -2.494  -2.069  24.572  0.00  0.00    +0.099 C 
ATOM     13  C   UNL     1      -3.719  -1.487  24.403  0.00  0.00    +0.041 A 
ATOM     14  C   UNL     1      -4.424  -1.070  24.304  0.00  0.00    +0.013 A 
ATOM     15  C   UNL     1      -4.415  -0.246  24.281  0.00  0.00    +0.006 A 
ATOM     16  C   UNL     1      -3.702   0.162  24.358  0.00  0.00    +0.056 A 
ATOM     17  C   UNL     1      -2.997  -0.255  24.458  0.00  0.00    +0.261 A 
ATOM     18  O   UNL     1      -2.443   0.354  24.509  0.00  0.00    -0.267 OA
ATOM     19  N   UNL     1      -3.006  -1.079  24.480  0.00  0.00    -0.299 N 
ATOM     20  C   UNL     1      -3.237  -1.708  24.470  0.00  0.00    +0.110 C 
ENDROOT
BRANCH  16  21
ATOM     21  C   UNL     1      -3.694   0.986  24.335  0.00  0.00    +0.005 A 
ATOM     22  C   UNL     1      -3.825   1.419  25.026  0.00  0.00    +0.001 A 
ATOM     23  C   UNL     1      -3.817   2.243  25.004  0.00  0.00    +0.006 A 
ATOM     24  C   UNL     1      -3.680   2.636  24.292  0.00  0.00    +0.025 A 
ATOM     27  C   UNL     1      -3.549   2.204  23.601  0.00  0.00    +0.006 A 
ATOM     28  C   UNL     1      -3.557   1.378  23.623  0.00  0.00    +0.001 A 
BRANCH  24  25
ATOM     25  S   UNL     1      -3.672   3.461  24.270  0.00  0.00    -0.113 S 
ATOM     26  C   UNL     1      -3.191   3.883  24.792  0.00  0.00    +0.074 C 
ENDBRANCH  24  25
ENDBRANCH  16  21
BRANCH   5   4
ATOM      4  C   UNL     1      -1.128  -0.433  24.695  0.00  0.00    +0.117 C 
BRANCH   4   3
ATOM      3  C   UNL     1      -0.632  -0.386  24.036  0.00  0.00    +0.152 C 
BRANCH   3   2
ATOM      1  C   UNL     1       0.620  -0.017  23.455  0.00  0.00    +0.174 C 
ATOM      2  O   UNL     1       0.140  -0.105  24.120  0.00  0.00    -0.351 OA
ENDBRANCH   3   2
ENDBRANCH   4   3
ENDBRANCH   5   4
TORSDOF 5
ENDMDL
MODEL 3
REMARK VINA RESULT:     -12.3      1.959      4.311
REMARK  Name = 
REMARK  5 active torsions:
REMARK  status: ('A' for Active; 'I' for Inactive)
REMARK    1  A    between atoms: O_2  and  C_3
REMARK    2  A    between atoms: C_3  and  C_4
REMARK    3  A    between atoms: C_4  and  C_5
REMARK    4  A    between atoms: C_16  and  C_21
REMARK    5  A    between atoms: C_24  and  S_25
REMARK                            x       y       z     vdW  Elec       q    Type
REMARK                         _______ _______ _______ _____ _____    ______ ____
ROOT
ATOM      5  C   UNL     1      -3.593  -0.141  24.317  0.00  0.00    +0.228 C 
ATOM      6  O   UNL     1      -2.803  -0.012  24.518  0.00  0.00    -0.275 OA
ATOM      7  N   UNL     1      -3.882  -0.911  24.253  0.00  0.00    -0.279 N 
ATOM      8  C   UNL     1      -4.427  -1.530  24.122  0.00  0.00    +0.095 C 
ATOM      9  C   UNL     1      -3.838  -2.307  24.283  0.00  0.00    +0.043 C 
ATOM     10  C   UNL     1      -3.492  -3.038  24.381  0.00  0.00    +0.011 C 
ATOM     11  C   UNL     1      -3.301  -2.363  24.421  0.00  0.00    +0.058 C 
ATOM     12  C   UNL     1      -3.883  -1.623  24.262  0.00  0.00    +0.099 C 
ATOM     13  C   UNL     1      -2.575  -1.830  24.600  0.00  0.00    +0.041 A 
ATOM     14  C   UNL     1      -1.777  -1.881  24.804  0.00  0.00    +0.013 A 
ATOM     15  C   UNL     1      -1.334  -1.193  24.909  0.00  0.00    +0.006 A 
ATOM     16  C   UNL     1      -1.688  -0.454  24.809  0.00  0.00    +0.056 A 
ATOM     17  C   UNL     1      -2.485  -0.403  24.604  0.00  0.00    +0.261 A 
ATOM     18  O   UNL     1      -2.600   0.412  24.564  0.00  0.00    -0.267 OA
ATOM     19  N   UNL     1      -2.928  -1.091  24.500  0.00  0.00    -0.299 N 
ATOM     20  C   UNL     1      -3.085  -1.741  24.468  0.00  0.00    +0.110 C 
ENDROOT
BRANCH  16  21
ATOM     21  C   UNL     1      -1.244   0.233  24.913  0.00  0.00    +0.005 A 
ATOM     22  C   UNL     1      -1.185   0.575  25.662  0.00  0.00    +0.001 A 
ATOM     23  C   UNL     1      -0.741   1.262  25.767  0.00  0.00    +0.006 A 
ATOM     24  C   UNL     1      -0.356   1.607  25.125  0.00  0.00    +0.025 A 
ATOM     27  C   UNL     1      -0.414   1.265  24.376  0.00  0.00    +0.006 A 
ATOM     28  C   UNL     1      -0.858   0.577  24.271  0.00  0.00    +0.001 A 
BRANCH  24  25
ATOM     25  S   UNL     1       0.089   2.295  25.230  0.00  0.00    -0.113 S 
ATOM     26  C   UNL     1      -0.289   3.006  25.412  0.00  0.00    +0.074 C 
ENDBRANCH  24  25
ENDBRANCH  16  21
BRANCH   5   4
ATOM      4  C   UNL     1      -4.094   0.500  24.181  0.00  0.00    +0.117 C 
BRANCH   4   3
ATOM      3  C   UNL     1      -4.545   0.810  24.798  0.00  0.00    +0.152 C 
BRANCH   3   2
ATOM      1  C   UNL     1      -5.483   1.773  25.284  0.00  0.00    +0.174 C 
ATOM      2  O   UNL     1      -5.036   1.460  24.665  0.00  0.00    -0.351 OA
ENDBRANCH   3   2
ENDBRANCH   4   3
ENDBRANCH   5   4
TORSDOF 5
ENDMDL
MODEL 4
REMARK VINA RESULT:     -11.9      1.676      3.084
REMARK  Name = 
REMARK  5 active torsions:
REMARK  status: ('A' for Active; 'I' for Inactive)
REMARK    1  A    between atoms: O_2  and  C_3
REMARK    2  A    between atoms: C_3  and  C_4
REMARK    3  A    between atoms: C_4  and  C_5
REMARK    4  A    between atoms: C_16  and  C_21
REMARK    5  A    between atoms: C_24  and  S_25
REMARK                            x       y       z     vdW  Elec       q    Type
REMARK                         _______ _______ _______ _____ _____    ______ ____
ROOT
ATOM      5  C   UNL     1      -2.897   2.500  24.685  0.00  0.00    +0.228 C 
ATOM      6  O   UNL     1      -2.286   1.966  24.838  0.00  0.00    -0.275 OA
ATOM      7  N   UNL     1      -2.777   3.309  24.800  0.00  0.00    -0.279 N 
ATOM      8  C   UNL     1      -2.946   4.126  24.820  0.00  0.00    +0.095 C 
ATOM      9  C   UNL     1      -2.076   4.468  25.139  0.00  0.00    +0.043 C 
ATOM     10  C   UNL     1      -1.434   4.902  25.392  0.00  0.00    +0.011 C 
ATOM     11  C   UNL     1      -1.592   4.228  25.277  0.00  0.00    +0.058 C 
ATOM     12  C   UNL     1      -2.439   3.913  24.968  0.00  0.00    +0.099 C 
ATOM     13  C   UNL     1      -1.228   3.385  25.320  0.00  0.00    +0.041 A 
ATOM     14  C   UNL     1      -0.526   3.000  25.516  0.00  0.00    +0.013 A 
ATOM     15  C   UNL     1      -0.476   2.178  25.457  0.00  0.00    +0.006 A 
ATOM     16  C   UNL     1      -1.128   1.742  25.201  0.00  0.00    +0.056 A 
ATOM     17  C   UNL     1      -1.830   2.128  25.004  0.00  0.00    +0.261 A 
ATOM     18  O   UNL     1      -2.316   1.498  24.785  0.00  0.00    -0.267 OA
ATOM     19  N   UNL     1      -1.880   2.949  25.063  0.00  0.00    -0.299 N 
ATOM     20  C   UNL     1      -1.704   3.584  25.180  0.00  0.00    +0.110 C 
ENDROOT
BRANCH  16  21
ATOM     21  C   UNL     1      -1.076   0.921  25.141  0.00  0.00    +0.005 A 
ATOM     22  C   UNL     1      -0.823   0.574  24.437  0.00  0.00    +0.001 A 
ATOM     23  C   UNL     1      -0.772  -0.247  24.377  0.00  0.00    +0.006 A 
ATOM     24  C   UNL     1      -0.974  -0.721  25.021  0.00  0.00    +0.025 A 
ATOM     27  C   UNL     1      -1.227  -0.374  25.726  0.00  0.00    +0.006 A 
ATOM     28  C   UNL     1      -1.278   0.448  25.786  0.00  0.00    +0.001 A 
BRANCH  24  25
ATOM     25  S   UNL     1      -0.922  -1.543  24.961  0.00  0.00    -0.113 S 
ATOM     26  C   UNL     1      -1.565  -1.976  24.677  0.00  0.00    +0.074 C 
ENDBRANCH  24  25
ENDBRANCH  16  21
BRANCH   5   4
ATOM      4  C   UNL     1      -3.627   2.226  24.418  0.00  0.00    +0.117 C 
BRANCH   4   3
ATOM      3  C   UNL     1      -4.251   2.127  24.950  0.00  0.00    +0.152 C 
BRANCH   3   2
ATOM      1  C   UNL     1      -5.630   1.839  25.188  0.00  0.00    +0.174 C 
ATOM      2  O   UNL     1      -4.974   1.827  24.688  0.00  0.00    -0.351 OA
ENDBRANCH   3   2
ENDBRANCH   4   3
ENDBRANCH   5   4
TORSDOF 5
ENDMDL
MODEL 5
REMARK VINA RESULT:     -11.8      1.652      2.414
REMARK  Name = 
REMARK  5 active torsions:
REMARK  status: ('A' for Active; 'I' for Inactive)
REMARK    1  A    between atoms: O_2  and  C_3
REMARK    2  A    between atoms: C_3  and  C_4
REMARK    3  A    between atoms: C_4  and  C_5
REMARK    4  A    between atoms: C_16  and  C_21
REMARK    5  A    between atoms: C_24  and  S_25
REMARK                            x       y       z     vdW  Elec       q    Type
REMARK                         _______ _______ _______ _____ _____    ______ ____
ROOT
ATOM      5  C   UNL     1      -3.164   3.039  25.433  0.00  0.00    +0.228 C 
ATOM      6  O   UNL     1      -2.846   2.351  25.104  0.00  0.00    -0.275 OA
ATOM      7  N   UNL     1      -3.983   3.131  25.483  0.00  0.00    -0.279 N 
ATOM      8  C   UNL     1      -4.717   3.489  25.659  0.00  0.00    +0.095 C 
ATOM      9  C   UNL     1      -5.327   2.784  25.331  0.00  0.00    +0.043 C 
ATOM     10  C   UNL     1      -5.952   2.310  25.112  0.00  0.00    +0.011 C 
ATOM     11  C   UNL     1      -5.251   2.285  25.094  0.00  0.00    +0.058 C 
ATOM     12  C   UNL     1      -4.674   2.975  25.416  0.00  0.00    +0.099 C 
ATOM     13  C   UNL     1      -4.555   1.745  24.832  0.00  0.00    +0.041 A 
ATOM     14  C   UNL     1      -4.410   1.011  24.484  0.00  0.00    +0.013 A 
ATOM     15  C   UNL     1      -3.633   0.761  24.359  0.00  0.00    +0.006 A 
ATOM     16  C   UNL     1      -3.003   1.244  24.582  0.00  0.00    +0.056 A 
ATOM     17  C   UNL     1      -3.148   1.978  24.930  0.00  0.00    +0.261 A 
ATOM     18  O   UNL     1      -2.385   2.262  25.058  0.00  0.00    -0.267 OA
ATOM     19  N   UNL     1      -3.924   2.228  25.055  0.00  0.00    -0.299 N 
ATOM     20  C   UNL     1      -4.594   2.226  25.061  0.00  0.00    +0.110 C 
ENDROOT
BRANCH  16  21
ATOM     21  C   UNL     1      -2.227   0.993  24.456  0.00  0.00    +0.005 A 
ATOM     22  C   UNL     1      -1.842   1.184  23.752  0.00  0.00    +0.001 A 
ATOM     23  C   UNL     1      -1.066   0.934  23.626  0.00  0.00    +0.006 A 
ATOM     24  C   UNL     1      -0.676   0.492  24.203  0.00  0.00    +0.025 A 
ATOM     27  C   UNL     1      -1.061   0.301  24.907  0.00  0.00    +0.006 A 
ATOM     28  C   UNL     1      -1.838   0.552  25.033  0.00  0.00    +0.001 A 
BRANCH  24  25
ATOM     25  S   UNL     1       0.101   0.241  24.077  0.00  0.00    -0.113 S 
ATOM     26  C   UNL     1       0.261  -0.330  23.502  0.00  0.00    +0.074 C 
ENDBRANCH  24  25
ENDBRANCH  16  21
BRANCH   5   4
ATOM      4  C   UNL     1      -2.664   3.633  25.710  0.00  0.00    +0.117 C 
BRANCH   4   3
ATOM      3  C   UNL     1      -2.384   4.211  25.191  0.00  0.00    +0.152 C 
BRANCH   3   2
ATOM      1  C   UNL     1      -1.351   5.185  25.030  0.00  0.00    +0.174 C 
ATOM      2  O   UNL     1      -1.956   4.855  25.483  0.00  0.00    -0.351 OA
ENDBRANCH   3   2
ENDBRANCH   4   3
ENDBRANCH   5   4
TORSDOF 5
ENDMDL
MODEL 6
REMARK VINA RESULT:     -11.7      1.439      3.206
REMARK  Name = 
REMARK  5 active torsions:
REMARK  status: ('A' for Active; 'I' for Inactive)
REMARK    1  A    between atoms: O_2  and  C_3
REMARK    2  A    between atoms: C_3  and  C_4
REMARK    3  A    between atoms: C_4  and  C_5
REMARK    4  A    between atoms: C_16  and  C_21
REMARK    5  A    between atoms: C_24  and  S_25
REMARK                            x       y       z     vdW  Elec       q    Type
REMARK                         _______ _______ _______ _____ _____    ______ ____
ROOT
ATOM      5  C   UNL     1      -4.065   1.240  24.766  0.00  0.00    +0.228 C 
ATOM      6  O   UNL     1      -3.376   1.693  24.815  0.00  0.00    -0.275 OA
ATOM      7  N   UNL     1      -4.793   1.575  24.963  0.00  0.00    -0.279 N 
ATOM      8  C   UNL     1      -5.618   1.629  25.086  0.00  0.00    +0.095 C 
ATOM      9  C   UNL     1      -5.679   2.571  25.381  0.00  0.00    +0.043 C 
ATOM     10  C   UNL     1      -5.896   3.313  25.635  0.00  0.00    +0.011 C 
ATOM     11  C   UNL     1      -5.306   2.978  25.456  0.00  0.00    +0.058 C 
ATOM     12  C   UNL     1      -5.263   2.067  25.173  0.00  0.00    +0.099 C 
ATOM     13  C   UNL     1      -4.400   3.107  25.378  0.00  0.00    +0.041 A 
ATOM     14  C   UNL     1      -3.824   3.689  25.480  0.00  0.00    +0.013 A 
ATOM     15  C   UNL     1      -3.032   3.517  25.325  0.00  0.00    +0.006 A 
ATOM     16  C   UNL     1      -2.816   2.763  25.068  0.00  0.00    +0.056 A 
ATOM     17  C   UNL     1      -3.391   2.182  24.965  0.00  0.00    +0.261 A 
ATOM     18  O   UNL     1      -2.942   1.538  24.711  0.00  0.00    -0.267 OA
ATOM     19  N   UNL     1      -4.183   2.353  25.120  0.00  0.00    -0.299 N 
ATOM     20  C   UNL     1      -4.731   2.696  25.296  0.00  0.00    +0.110 C 
ENDROOT
BRANCH  16  21
ATOM     21  C   UNL     1      -2.024   2.593  24.913  0.00  0.00    +0.005 A 
ATOM     22  C   UNL     1      -1.532   2.334  25.523  0.00  0.00    +0.001 A 
ATOM     23  C   UNL     1      -0.739   2.163  25.369  0.00  0.00    +0.006 A 
ATOM     24  C   UNL     1      -0.440   2.251  24.605  0.00  0.00    +0.025 A 
ATOM     27  C   UNL     1      -0.931   2.509  23.995  0.00  0.00    +0.006 A 
ATOM     28  C   UNL     1      -1.724   2.680  24.150  0.00  0.00    +0.001 A 
BRANCH  24  25
ATOM     25  S   UNL     1       0.353   2.080  24.451  0.00  0.00    -0.113 S 
ATOM     26  C   UNL     1       0.557   1.372  24.079  0.00  0.00    +0.074 C 
ENDBRANCH  24  25
ENDBRANCH  16  21
BRANCH   5   4
ATOM      4  C   UNL     1      -4.025   0.454  24.522  0.00  0.00    +0.117 C 
BRANCH   4   3
ATOM      3  C   UNL     1      -3.944  -0.148  25.081  0.00  0.00    +0.152 C 
BRANCH   3   2
ATOM      1  C   UNL     1      -3.642  -1.520  25.342  0.00  0.00    +0.174 C 
ATOM      2  O   UNL     1      -3.939  -0.938  24.839  0.00  0.00    -0.351 OA
ENDBRANCH   3   2
ENDBRANCH   4   3
ENDBRANCH   5   4
TORSDOF 5
ENDMDL
