REMARK  Name = 
REMARK  6 active torsions:
REMARK  status: ('A' for Active; 'I' for Inactive)
REMARK    1  A    between atoms: C_4  and  C_13
REMARK    2  A    between atoms: C_6  and  C_8
REMARK    3  A    between atoms: C_20  and  C_21
REMARK    4  A    between atoms: C_21  and  N_22
REMARK    5  A    between atoms: N_22  and  C_23
REMARK    6  A    between atoms: C_23  and  C_24
REMARK                            x       y       z     vdW  Elec       q    Type
REMARK                         _______ _______ _______ _____ _____    ______ ____
ROOT
ATOM     13  C   UNL     1       1.661  -1.343   0.000  0.00  0.00    +0.056 C 
ATOM     14  C   UNL     1       1.814  -2.106   0.000  0.00  0.00    +0.078 C 
ATOM     15  N   UNL     1       1.065  -1.759   0.000  0.00  0.00    -0.272 NA
ATOM     16  C   UNL     1       1.205  -0.720   0.000  0.00  0.00    +0.072 C 
ATOM     17  C   UNL     1       0.961  -0.114   0.000  0.00  0.00    +0.018 C 
ATOM     18  C   UNL     1       0.923  -1.010   0.000  0.00  0.00    +0.010 C 
ATOM     19  C   UNL     1       0.119  -1.362   0.000  0.00  0.00    +0.018 C 
ATOM     20  C   UNL     1       0.226  -2.118   0.000  0.00  0.00    +0.075 C 
ENDROOT
BRANCH  13   4
ATOM      1  C   UNL     1       4.488  -0.918   0.000  0.00  0.00    +0.074 C 
ATOM      2  C   UNL     1       3.720  -0.616   0.000  0.00  0.00    +0.139 A 
ATOM      3  N   UNL     1       3.075  -1.130   0.000  0.00  0.00    -0.235 NA
ATOM      4  C   UNL     1       2.307  -0.828   0.000  0.00  0.00    +0.063 A 
ATOM      5  C   UNL     1       2.184  -0.013   0.000  0.00  0.00    +0.037 A 
ATOM      6  C   UNL     1       2.829   0.501   0.000  0.00  0.00    +0.118 A 
ATOM      7  N   UNL     1       3.597   0.200   0.000  0.00  0.00    -0.228 NA
BRANCH   6   8
ATOM      8  C   UNL     1       2.707   1.317   0.000  0.00  0.00    +0.163 A 
ATOM      9  C   UNL     1       1.975   1.698   0.000  0.00  0.00    +0.042 A 
ATOM     10  C   UNL     1       2.110   2.511   0.000  0.00  0.00    +0.044 A 
ATOM     11  C   UNL     1       2.926   2.634   0.000  0.00  0.00    +0.180 A 
ATOM     12  O   UNL     1       3.295   1.896   0.000  0.00  0.00    -0.449 OA
ENDBRANCH   6   8
ENDBRANCH  13   4
BRANCH  20  21
ATOM     21  C   UNL     1      -0.179  -2.836   0.000  0.00  0.00    +0.105 C 
BRANCH  21  22
ATOM     22  N   UNL     1      -1.004  -2.845   0.000  0.00  0.00    -0.212 NA
BRANCH  22  23
ATOM     23  C   UNL     1      -1.408  -3.564   0.000  0.00  0.00    +0.115 C 
BRANCH  23  24
ATOM     24  C   UNL     1      -2.233  -3.573   0.000  0.00  0.00    -0.005 A 
ATOM     25  C   UNL     1      -2.638  -4.292   0.000  0.00  0.00    -0.003 A 
ATOM     26  C   UNL     1      -3.463  -4.301   0.000  0.00  0.00    -0.000 A 
ATOM     27  C   UNL     1      -3.883  -3.591   0.000  0.00  0.00    -0.000 A 
ATOM     28  C   UNL     1      -3.478  -2.872   0.000  0.00  0.00    -0.000 A 
ATOM     29  C   UNL     1      -2.654  -2.863   0.000  0.00  0.00    -0.003 A 
ENDBRANCH  23  24
ENDBRANCH  22  23
ENDBRANCH  21  22
ENDBRANCH  20  21
TORSDOF 6
