REMARK  Name = 
REMARK  8 active torsions:
REMARK  status: ('A' for Active; 'I' for Inactive)
REMARK    1  A    between atoms: C_2  and  C_3
REMARK    2  A    between atoms: C_3  and  C_4
REMARK    3  A    between atoms: C_9  and  C_10
REMARK    4  A    between atoms: C_10  and  C_11
REMARK    5  A    between atoms: C_14  and  C_15
REMARK    6  A    between atoms: C_15  and  S_16
REMARK    7  A    between atoms: S_16  and  C_17
REMARK    8  A    between atoms: N_24  and  C_25
REMARK                            x       y       z     vdW  Elec       q    Type
REMARK                         _______ _______ _______ _____ _____    ______ ____
ROOT
ATOM     10  C   UNL     1       4.652  -3.192   0.000  0.00  0.00    +0.051 C 
ENDROOT
BRANCH  10   9
ATOM      4  C   UNL     1       3.938  -4.429   0.000  0.00  0.00    +0.012 C 
ATOM      5  C   UNL     1       3.223  -4.842   0.000  0.00  0.00    +0.019 C 
ATOM      6  C   UNL     1       2.509  -4.429   0.000  0.00  0.00    +0.089 C 
ATOM      7  N   UNL     1       2.509  -3.604   0.000  0.00  0.00    -0.218 NA
ATOM      8  C   UNL     1       3.223  -3.192   0.000  0.00  0.00    +0.089 C 
ATOM      9  C   UNL     1       3.938  -3.604   0.000  0.00  0.00    +0.024 C 
BRANCH   4   3
ATOM      3  C   UNL     1       4.652  -4.842   0.000  0.00  0.00    +0.087 C 
BRANCH   3   2
ATOM      1  O   UNL     1       3.938  -6.080   0.000  0.00  0.00    -0.273 OA
ATOM      2  C   UNL     1       4.652  -5.667   0.000  0.00  0.00    +0.241 C 
ATOM     24  N   UNL     1       5.367  -6.080   0.000  0.00  0.00    -0.207 NA
BRANCH  24  25
ATOM     25  C   UNL     1       5.367  -6.904   0.000  0.00  0.00    +0.095 C 
ATOM     26  C   UNL     1       5.779  -7.619   0.000  0.00  0.00    +0.023 C 
ATOM     27  C   UNL     1       4.954  -7.619   0.000  0.00  0.00    +0.023 C 
ENDBRANCH  24  25
ENDBRANCH   3   2
ENDBRANCH   4   3
ENDBRANCH  10   9
BRANCH  10  11
ATOM     11  C   UNL     1       4.652  -2.367   0.000  0.00  0.00    +0.100 A 
ATOM     12  N   UNL     1       3.985  -1.882   0.000  0.00  0.00    -0.082 NA
ATOM     13  O   UNL     1       4.239  -1.097   0.000  0.00  0.00    -0.357 OA
ATOM     14  C   UNL     1       5.064  -1.097   0.000  0.00  0.00    +0.165 A 
ATOM     23  C   UNL     1       5.319  -1.882   0.000  0.00  0.00    +0.054 A 
BRANCH  14  15
ATOM     15  C   UNL     1       5.550  -0.430   0.000  0.00  0.00    +0.129 C 
BRANCH  15  16
ATOM     16  S   UNL     1       5.214   0.324   0.000  0.00  0.00    -0.105 S 
BRANCH  16  17
ATOM     17  C   UNL     1       5.699   0.991   0.000  0.00  0.00    +0.026 A 
ATOM     18  C   UNL     1       5.363   1.745   0.000  0.00  0.00    +0.006 A 
ATOM     19  C   UNL     1       5.848   2.412   0.000  0.00  0.00    +0.001 A 
ATOM     20  C   UNL     1       6.669   2.326   0.000  0.00  0.00    +0.000 A 
ATOM     21  C   UNL     1       7.004   1.572   0.000  0.00  0.00    +0.001 A 
ATOM     22  C   UNL     1       6.519   0.905   0.000  0.00  0.00    +0.006 A 
ENDBRANCH  16  17
ENDBRANCH  15  16
ENDBRANCH  14  15
ENDBRANCH  10  11
TORSDOF 8
