REMARK  Name = 
REMARK  8 active torsions:
REMARK  status: ('A' for Active; 'I' for Inactive)
REMARK    1  A    between atoms: C_2  and  N_4
REMARK    2  A    between atoms: N_7  and  C_8
REMARK    3  A    between atoms: C_8  and  C_9
REMARK    4  A    between atoms: C_11  and  C_12
REMARK    5  A    between atoms: C_12  and  C_13
REMARK    6  A    between atoms: N_15  and  C_16
REMARK    7  A    between atoms: C_16  and  C_17
REMARK    8  A    between atoms: C_17  and  N_18
REMARK                            x       y       z     vdW  Elec       q    Type
REMARK                         _______ _______ _______ _____ _____    ______ ____
ROOT
ATOM      9  C   UNL     1      -3.316   1.853   0.000  0.00  0.00    +0.170 C 
ATOM     10  O   UNL     1      -2.764   2.466   0.000  0.00  0.00    -0.351 OA
ATOM     11  C   UNL     1      -2.010   2.130   0.000  0.00  0.00    +0.157 C 
ATOM     21  C   UNL     1      -2.096   1.310   0.000  0.00  0.00    +0.212 C 
ATOM     22  O   UNL     1      -1.483   0.758   0.000  0.00  0.00    -0.218 OA
ATOM     23  C   UNL     1      -2.903   1.138   0.000  0.00  0.00    +0.213 C 
ATOM     24  O   UNL     1      -3.239   0.385   0.000  0.00  0.00    -0.218 OA
ENDROOT
BRANCH   9   8
ATOM      8  C   UNL     1      -4.136   1.939   0.000  0.00  0.00    +0.149 C 
BRANCH   8   7
ATOM      4  N   UNL     1      -5.927   0.691   0.000  0.00  0.00    -0.189 NA
ATOM      5  C   UNL     1      -5.442   1.358   0.000  0.00  0.00    +0.339 C 
ATOM      6  O   UNL     1      -5.777   2.112   0.000  0.00  0.00    -0.249 OA
ATOM      7  N   UNL     1      -4.621   1.272   0.000  0.00  0.00    -0.185 NA
BRANCH   4   2
ATOM      1  C   UNL     1      -7.232   0.109   0.000  0.00  0.00    +0.023 C 
ATOM      2  C   UNL     1      -6.747   0.777   0.000  0.00  0.00    +0.097 C 
ATOM      3  C   UNL     1      -7.083   1.530   0.000  0.00  0.00    +0.023 C 
ENDBRANCH   4   2
ENDBRANCH   8   7
ENDBRANCH   9   8
BRANCH  11  12
ATOM     12  C   UNL     1      -1.296   2.543   0.000  0.00  0.00    +0.119 C 
BRANCH  12  13
ATOM     13  C   UNL     1      -0.581   2.130   0.000  0.00  0.00    +0.244 C 
ATOM     14  O   UNL     1      -0.581   1.305   0.000  0.00  0.00    -0.273 OA
ATOM     15  N   UNL     1       0.133   2.543   0.000  0.00  0.00    -0.204 NA
BRANCH  15  16
ATOM     16  C   UNL     1       0.848   2.130   0.000  0.00  0.00    +0.132 C 
BRANCH  16  17
ATOM     17  C   UNL     1       1.562   2.543   0.000  0.00  0.00    +0.096 C 
BRANCH  17  18
ATOM     18  N   UNL     1       2.277   2.130   0.000  0.00  0.00    -0.269 NA
ATOM     19  C   UNL     1       2.991   2.543   0.000  0.00  0.00    +0.090 C 
ATOM     20  C   UNL     1       2.277   1.305   0.000  0.00  0.00    +0.090 C 
ENDBRANCH  17  18
ENDBRANCH  16  17
ENDBRANCH  15  16
ENDBRANCH  12  13
ENDBRANCH  11  12
TORSDOF 8
