MODEL 1
REMARK VINA RESULT:     -10.4      0.000      0.000
REMARK  Name = 
REMARK  9 active torsions:
REMARK  status: ('A' for Active; 'I' for Inactive)
REMARK    1  A    between atoms: C_2  and  C_3
REMARK    2  A    between atoms: C_3  and  C_4
REMARK    3  A    between atoms: C_4  and  C_5
REMARK    4  A    between atoms: C_5  and  C_6
REMARK    5  A    between atoms: C_11  and  C_12
REMARK    6  A    between atoms: C_12  and  C_13
REMARK    7  A    between atoms: C_16  and  C_17
REMARK    8  A    between atoms: C_17  and  C_18
REMARK    9  A    between atoms: C_26  and  O_27
REMARK                            x       y       z     vdW  Elec       q    Type
REMARK                         _______ _______ _______ _____ _____    ______ ____
ROOT
ATOM      6  C   UNL     1      -2.559   2.602  24.675  0.00  0.00    +0.226 C 
ATOM      7  O   UNL     1      -1.941   2.127  24.405  0.00  0.00    -0.275 OA
ATOM      8  N   UNL     1      -3.305   2.275  24.805  0.00  0.00    -0.280 N 
ATOM      9  C   UNL     1      -3.923   2.750  25.075  0.00  0.00    +0.093 C 
ATOM     10  C   UNL     1      -4.669   2.422  25.205  0.00  0.00    +0.022 C 
ATOM     11  C   UNL     1      -4.797   1.619  25.066  0.00  0.00    +0.015 C 
ATOM     16  C   UNL     1      -4.179   1.144  24.795  0.00  0.00    +0.026 C 
ATOM     30  C   UNL     1      -3.433   1.471  24.665  0.00  0.00    +0.094 C 
ENDROOT
BRANCH   6   5
ATOM      5  C   UNL     1      -2.432   3.405  24.815  0.00  0.00    +0.085 C 
BRANCH   5   4
ATOM      4  C   UNL     1      -1.661   3.699  24.856  0.00  0.00    +0.010 C 
BRANCH   4   3
ATOM      3  C   UNL     1      -1.531   4.485  25.070  0.00  0.00    +0.001 C 
BRANCH   3   2
ATOM      1  C   UNL     1      -0.749   5.644  24.774  0.00  0.00    +0.000 C 
ATOM      2  C   UNL     1      -0.797   4.835  24.928  0.00  0.00    +0.000 C 
ENDBRANCH   3   2
ENDBRANCH   4   3
ENDBRANCH   5   4
ENDBRANCH   6   5
BRANCH  11  12
ATOM     12  C   UNL     1      -5.542   1.291  25.196  0.00  0.00    +0.114 C 
BRANCH  12  13
ATOM     13  C   UNL     1      -6.183   1.781  25.371  0.00  0.00    +0.365 C 
ATOM     14  O   UNL     1      -6.682   2.040  24.767  0.00  0.00    -0.246 OA
ATOM     15  O   UNL     1      -6.325   2.011  26.150  0.00  0.00    -0.246 OA
ENDBRANCH  12  13
ENDBRANCH  11  12
BRANCH  16  17
ATOM     17  C   UNL     1      -4.307   0.341  24.655  0.00  0.00    +0.047 C 
BRANCH  17  18
ATOM     18  C   UNL     1      -3.858  -0.225  25.055  0.00  0.00    +0.053 C 
ATOM     19  N   UNL     1      -3.440  -0.015  25.735  0.00  0.00    -0.274 NA
ATOM     20  C   UNL     1      -2.992  -0.581  26.134  0.00  0.00    +0.130 C 
ATOM     21  C   UNL     1      -2.960  -1.355  25.854  0.00  0.00    +0.053 C 
ATOM     22  C   UNL     1      -3.377  -1.565  25.175  0.00  0.00    -0.016 A 
ATOM     23  C   UNL     1      -3.826  -1.000  24.775  0.00  0.00    +0.009 A 
ATOM     24  C   UNL     1      -4.244  -1.210  24.094  0.00  0.00    +0.004 A 
ATOM     25  C   UNL     1      -4.212  -1.985  23.815  0.00  0.00    +0.037 A 
ATOM     26  C   UNL     1      -3.763  -2.550  24.214  0.00  0.00    +0.138 A 
ATOM     29  C   UNL     1      -3.346  -2.340  24.894  0.00  0.00    +0.033 A 
BRANCH  26  27
ATOM     27  O   UNL     1      -3.732  -3.326  23.933  0.00  0.00    -0.471 OA
ATOM     28  C   UNL     1      -4.302  -3.596  23.402  0.00  0.00    +0.252 C 
ENDBRANCH  26  27
ENDBRANCH  17  18
ENDBRANCH  16  17
TORSDOF 9
ENDMDL
MODEL 2
REMARK VINA RESULT:      -9.5      1.074      5.002
REMARK  Name = 
REMARK  9 active torsions:
REMARK  status: ('A' for Active; 'I' for Inactive)
REMARK    1  A    between atoms: C_2  and  C_3
REMARK    2  A    between atoms: C_3  and  C_4
REMARK    3  A    between atoms: C_4  and  C_5
REMARK    4  A    between atoms: C_5  and  C_6
REMARK    5  A    between atoms: C_11  and  C_12
REMARK    6  A    between atoms: C_12  and  C_13
REMARK    7  A    between atoms: C_16  and  C_17
REMARK    8  A    between atoms: C_17  and  C_18
REMARK    9  A    between atoms: C_26  and  O_27
REMARK                            x       y       z     vdW  Elec       q    Type
REMARK                         _______ _______ _______ _____ _____    ______ ____
ROOT
ATOM      6  C   UNL     1      -3.248  -0.462  25.317  0.00  0.00    +0.226 C 
ATOM      7  O   UNL     1      -2.428  -0.364  25.313  0.00  0.00    -0.275 OA
ATOM      8  N   UNL     1      -3.742   0.190  25.218  0.00  0.00    -0.280 N 
ATOM      9  C   UNL     1      -4.562   0.092  25.222  0.00  0.00    +0.093 C 
ATOM     10  C   UNL     1      -5.055   0.746  25.123  0.00  0.00    +0.022 C 
ATOM     11  C   UNL     1      -4.731   1.498  25.020  0.00  0.00    +0.015 C 
ATOM     16  C   UNL     1      -3.912   1.596  25.016  0.00  0.00    +0.026 C 
ATOM     30  C   UNL     1      -3.417   0.942  25.115  0.00  0.00    +0.094 C 
ENDROOT
BRANCH   6   5
ATOM      5  C   UNL     1      -3.573  -1.213  25.420  0.00  0.00    +0.085 C 
BRANCH   5   4
ATOM      4  C   UNL     1      -3.174  -1.877  25.134  0.00  0.00    +0.010 C 
BRANCH   4   3
ATOM      3  C   UNL     1      -3.565  -2.602  25.085  0.00  0.00    +0.001 C 
BRANCH   3   2
ATOM      1  C   UNL     1      -3.698  -3.475  23.961  0.00  0.00    +0.000 C 
ATOM      2  C   UNL     1      -3.261  -3.202  24.606  0.00  0.00    +0.000 C 
ENDBRANCH   3   2
ENDBRANCH   4   3
ENDBRANCH   5   4
ENDBRANCH   6   5
BRANCH  11  12
ATOM     12  C   UNL     1      -5.225   2.150  24.921  0.00  0.00    +0.114 C 
BRANCH  12  13
ATOM     13  C   UNL     1      -5.994   2.134  25.220  0.00  0.00    +0.365 C 
ATOM     14  O   UNL     1      -6.619   1.893  24.738  0.00  0.00    -0.246 OA
ATOM     15  O   UNL     1      -6.139   2.360  25.999  0.00  0.00    -0.246 OA
ENDBRANCH  12  13
ENDBRANCH  11  12
BRANCH  16  17
ATOM     17  C   UNL     1      -3.587   2.347  24.913  0.00  0.00    +0.047 C 
BRANCH  17  18
ATOM     18  C   UNL     1      -2.937   2.451  24.416  0.00  0.00    +0.053 C 
ATOM     19  N   UNL     1      -2.867   2.001  23.728  0.00  0.00    -0.274 NA
ATOM     20  C   UNL     1      -2.217   2.106  23.231  0.00  0.00    +0.130 C 
ATOM     21  C   UNL     1      -1.637   2.659  23.421  0.00  0.00    +0.053 C 
ATOM     22  C   UNL     1      -1.706   3.109  24.108  0.00  0.00    -0.016 A 
ATOM     23  C   UNL     1      -2.356   3.005  24.606  0.00  0.00    +0.009 A 
ATOM     24  C   UNL     1      -2.426   3.456  25.294  0.00  0.00    +0.004 A 
ATOM     25  C   UNL     1      -1.845   4.010  25.484  0.00  0.00    +0.037 A 
ATOM     26  C   UNL     1      -1.195   4.114  24.987  0.00  0.00    +0.138 A 
ATOM     29  C   UNL     1      -1.126   3.664  24.299  0.00  0.00    +0.033 A 
BRANCH  26  27
ATOM     27  O   UNL     1      -0.615   4.669  25.178  0.00  0.00    -0.471 OA
ATOM     28  C   UNL     1      -0.679   5.444  24.906  0.00  0.00    +0.252 C 
ENDBRANCH  26  27
ENDBRANCH  17  18
ENDBRANCH  16  17
TORSDOF 9
ENDMDL
MODEL 3
REMARK VINA RESULT:      -9.2      1.862      5.482
REMARK  Name = 
REMARK  9 active torsions:
REMARK  status: ('A' for Active; 'I' for Inactive)
REMARK    1  A    between atoms: C_2  and  C_3
REMARK    2  A    between atoms: C_3  and  C_4
REMARK    3  A    between atoms: C_4  and  C_5
REMARK    4  A    between atoms: C_5  and  C_6
REMARK    5  A    between atoms: C_11  and  C_12
REMARK    6  A    between atoms: C_12  and  C_13
REMARK    7  A    between atoms: C_16  and  C_17
REMARK    8  A    between atoms: C_17  and  C_18
REMARK    9  A    between atoms: C_26  and  O_27
REMARK                            x       y       z     vdW  Elec       q    Type
REMARK                         _______ _______ _______ _____ _____    ______ ____
ROOT
ATOM      6  C   UNL     1      -2.622  -0.315  25.125  0.00  0.00    +0.226 C 
ATOM      7  O   UNL     1      -3.430  -0.155  25.180  0.00  0.00    -0.275 OA
ATOM      8  N   UNL     1      -2.083   0.304  25.047  0.00  0.00    -0.280 N 
ATOM      9  C   UNL     1      -1.275   0.144  24.991  0.00  0.00    +0.093 C 
ATOM     10  C   UNL     1      -0.737   0.764  24.913  0.00  0.00    +0.022 C 
ATOM     11  C   UNL     1      -1.004   1.544  24.891  0.00  0.00    +0.015 C 
ATOM     16  C   UNL     1      -1.812   1.704  24.947  0.00  0.00    +0.026 C 
ATOM     30  C   UNL     1      -2.351   1.084  25.024  0.00  0.00    +0.094 C 
ENDROOT
BRANCH   6   5
ATOM      5  C   UNL     1      -2.353  -1.095  25.147  0.00  0.00    +0.085 C 
BRANCH   5   4
ATOM      4  C   UNL     1      -2.895  -1.718  25.152  0.00  0.00    +0.010 C 
BRANCH   4   3
ATOM      3  C   UNL     1      -2.711  -2.426  24.772  0.00  0.00    +0.001 C 
BRANCH   3   2
ATOM      1  C   UNL     1      -3.669  -3.276  24.137  0.00  0.00    +0.000 C 
ATOM      2  C   UNL     1      -3.238  -3.062  24.807  0.00  0.00    +0.000 C 
ENDBRANCH   3   2
ENDBRANCH   4   3
ENDBRANCH   5   4
ENDBRANCH   6   5
BRANCH  11  12
ATOM     12  C   UNL     1      -0.466   2.163  24.813  0.00  0.00    +0.114 C 
BRANCH  12  13
ATOM     13  C   UNL     1       0.326   2.049  25.015  0.00  0.00    +0.365 C 
ATOM     14  O   UNL     1       0.577   2.179  25.790  0.00  0.00    -0.246 OA
ATOM     15  O   UNL     1       0.867   1.805  24.443  0.00  0.00    -0.246 OA
ENDBRANCH  12  13
ENDBRANCH  11  12
BRANCH  16  17
ATOM     17  C   UNL     1      -2.081   2.484  24.924  0.00  0.00    +0.047 C 
BRANCH  17  18
ATOM     18  C   UNL     1      -2.690   2.696  24.410  0.00  0.00    +0.053 C 
ATOM     19  N   UNL     1      -2.640   2.503  23.610  0.00  0.00    -0.274 NA
ATOM     20  C   UNL     1      -3.249   2.716  23.095  0.00  0.00    +0.130 C 
ATOM     21  C   UNL     1      -3.908   3.121  23.381  0.00  0.00    +0.053 C 
ATOM     22  C   UNL     1      -3.958   3.314  24.181  0.00  0.00    -0.016 A 
ATOM     23  C   UNL     1      -3.349   3.102  24.695  0.00  0.00    +0.009 A 
ATOM     24  C   UNL     1      -3.399   3.295  25.497  0.00  0.00    +0.004 A 
ATOM     25  C   UNL     1      -4.058   3.701  25.782  0.00  0.00    +0.037 A 
ATOM     26  C   UNL     1      -4.667   3.913  25.268  0.00  0.00    +0.138 A 
ATOM     29  C   UNL     1      -4.617   3.720  24.468  0.00  0.00    +0.033 A 
BRANCH  26  27
ATOM     27  O   UNL     1      -5.326   4.319  25.555  0.00  0.00    -0.471 OA
ATOM     28  C   UNL     1      -6.013   3.906  25.748  0.00  0.00    +0.252 C 
ENDBRANCH  26  27
ENDBRANCH  17  18
ENDBRANCH  16  17
TORSDOF 9
ENDMDL
MODEL 4
REMARK VINA RESULT:      -9.1      2.887      3.678
REMARK  Name = 
REMARK  9 active torsions:
REMARK  status: ('A' for Active; 'I' for Inactive)
REMARK    1  A    between atoms: C_2  and  C_3
REMARK    2  A    between atoms: C_3  and  C_4
REMARK    3  A    between atoms: C_4  and  C_5
REMARK    4  A    between atoms: C_5  and  C_6
REMARK    5  A    between atoms: C_11  and  C_12
REMARK    6  A    between atoms: C_12  and  C_13
REMARK    7  A    between atoms: C_16  and  C_17
REMARK    8  A    between atoms: C_17  and  C_18
REMARK    9  A    between atoms: C_26  and  O_27
REMARK                            x       y       z     vdW  Elec       q    Type
REMARK                         _______ _______ _______ _____ _____    ______ ____
ROOT
ATOM      6  C   UNL     1       0.584   0.676  23.619  0.00  0.00    +0.226 C 
ATOM      7  O   UNL     1       0.400  -0.082  23.351  0.00  0.00    -0.275 OA
ATOM      8  N   UNL     1       0.013   1.125  24.010  0.00  0.00    -0.280 N 
ATOM      9  C   UNL     1       0.197   1.883  24.279  0.00  0.00    +0.093 C 
ATOM     10  C   UNL     1      -0.374   2.332  24.670  0.00  0.00    +0.022 C 
ATOM     11  C   UNL     1      -1.129   2.023  24.794  0.00  0.00    +0.015 C 
ATOM     16  C   UNL     1      -1.313   1.265  24.525  0.00  0.00    +0.026 C 
ATOM     30  C   UNL     1      -0.742   0.816  24.133  0.00  0.00    +0.094 C 
ENDROOT
BRANCH   6   5
ATOM      5  C   UNL     1       1.338   0.985  23.497  0.00  0.00    +0.085 C 
BRANCH   5   4
ATOM      4  C   UNL     1       1.910   0.536  23.105  0.00  0.00    +0.010 C 
BRANCH   4   3
ATOM      3  C   UNL     1       2.688   0.806  23.063  0.00  0.00    +0.001 C 
BRANCH   3   2
ATOM      1  C   UNL     1       4.029   0.617  22.607  0.00  0.00    +0.000 C 
ATOM      2  C   UNL     1       3.226   0.435  22.558  0.00  0.00    +0.000 C 
ENDBRANCH   3   2
ENDBRANCH   4   3
ENDBRANCH   5   4
ENDBRANCH   6   5
BRANCH  11  12
ATOM     12  C   UNL     1      -1.700   2.471  25.185  0.00  0.00    +0.114 C 
BRANCH  12  13
ATOM     13  C   UNL     1      -1.548   3.260  25.371  0.00  0.00    +0.365 C 
ATOM     14  O   UNL     1      -1.736   3.856  24.833  0.00  0.00    -0.246 OA
ATOM     15  O   UNL     1      -1.207   3.455  26.097  0.00  0.00    -0.246 OA
ENDBRANCH  12  13
ENDBRANCH  11  12
BRANCH  16  17
ATOM     17  C   UNL     1      -2.068   0.955  24.647  0.00  0.00    +0.047 C 
BRANCH  17  18
ATOM     18  C   UNL     1      -2.159   0.225  25.020  0.00  0.00    +0.053 C 
ATOM     19  N   UNL     1      -1.649   0.006  25.630  0.00  0.00    -0.274 NA
ATOM     20  C   UNL     1      -1.740  -0.725  26.002  0.00  0.00    +0.130 C 
ATOM     21  C   UNL     1      -2.342  -1.236  25.765  0.00  0.00    +0.053 C 
ATOM     22  C   UNL     1      -2.853  -1.018  25.156  0.00  0.00    -0.016 A 
ATOM     23  C   UNL     1      -2.761  -0.287  24.783  0.00  0.00    +0.009 A 
ATOM     24  C   UNL     1      -3.272  -0.068  24.173  0.00  0.00    +0.004 A 
ATOM     25  C   UNL     1      -3.874  -0.580  23.936  0.00  0.00    +0.037 A 
ATOM     26  C   UNL     1      -3.965  -1.311  24.309  0.00  0.00    +0.138 A 
ATOM     29  C   UNL     1      -3.455  -1.529  24.918  0.00  0.00    +0.033 A 
BRANCH  26  27
ATOM     27  O   UNL     1      -4.568  -1.822  24.071  0.00  0.00    -0.471 OA
ATOM     28  C   UNL     1      -4.391  -2.483  23.612  0.00  0.00    +0.252 C 
ENDBRANCH  26  27
ENDBRANCH  17  18
ENDBRANCH  16  17
TORSDOF 9
ENDMDL
MODEL 5
REMARK VINA RESULT:      -9.0      2.457      4.564
REMARK  Name = 
REMARK  9 active torsions:
REMARK  status: ('A' for Active; 'I' for Inactive)
REMARK    1  A    between atoms: C_2  and  C_3
REMARK    2  A    between atoms: C_3  and  C_4
REMARK    3  A    between atoms: C_4  and  C_5
REMARK    4  A    between atoms: C_5  and  C_6
REMARK    5  A    between atoms: C_11  and  C_12
REMARK    6  A    between atoms: C_12  and  C_13
REMARK    7  A    between atoms: C_16  and  C_17
REMARK    8  A    between atoms: C_17  and  C_18
REMARK    9  A    between atoms: C_26  and  O_27
REMARK                            x       y       z     vdW  Elec       q    Type
REMARK                         _______ _______ _______ _____ _____    ______ ____
ROOT
ATOM      6  C   UNL     1      -0.671   0.471  24.078  0.00  0.00    +0.226 C 
ATOM      7  O   UNL     1      -0.580   1.291  24.083  0.00  0.00    -0.275 OA
ATOM      8  N   UNL     1      -1.409   0.137  24.231  0.00  0.00    -0.280 N 
ATOM      9  C   UNL     1      -1.500  -0.683  24.226  0.00  0.00    +0.093 C 
ATOM     10  C   UNL     1      -2.239  -1.017  24.380  0.00  0.00    +0.022 C 
ATOM     11  C   UNL     1      -2.888  -0.531  24.539  0.00  0.00    +0.015 C 
ATOM     16  C   UNL     1      -2.797   0.289  24.543  0.00  0.00    +0.026 C 
ATOM     30  C   UNL     1      -2.058   0.623  24.390  0.00  0.00    +0.094 C 
ENDROOT
BRANCH   6   5
ATOM      5  C   UNL     1      -0.024  -0.015  23.920  0.00  0.00    +0.085 C 
BRANCH   5   4
ATOM      4  C   UNL     1       0.590   0.259  23.441  0.00  0.00    +0.010 C 
BRANCH   4   3
ATOM      3  C   UNL     1       1.220  -0.239  23.253  0.00  0.00    +0.001 C 
BRANCH   3   2
ATOM      1  C   UNL     1       2.472   0.041  22.624  0.00  0.00    +0.000 C 
ATOM      2  C   UNL     1       1.662  -0.105  22.569  0.00  0.00    +0.000 C 
ENDBRANCH   3   2
ENDBRANCH   4   3
ENDBRANCH   5   4
ENDBRANCH   6   5
BRANCH  11  12
ATOM     12  C   UNL     1      -3.626  -0.865  24.692  0.00  0.00    +0.114 C 
BRANCH  12  13
ATOM     13  C   UNL     1      -3.711  -1.685  24.711  0.00  0.00    +0.365 C 
ATOM     14  O   UNL     1      -3.566  -2.099  25.410  0.00  0.00    -0.246 OA
ATOM     15  O   UNL     1      -3.942  -2.093  24.032  0.00  0.00    -0.246 OA
ENDBRANCH  12  13
ENDBRANCH  11  12
BRANCH  16  17
ATOM     17  C   UNL     1      -3.444   0.775  24.702  0.00  0.00    +0.047 C 
BRANCH  17  18
ATOM     18  C   UNL     1      -3.582   1.443  24.238  0.00  0.00    +0.053 C 
ATOM     19  N   UNL     1      -3.346   1.453  23.447  0.00  0.00    -0.274 NA
ATOM     20  C   UNL     1      -3.484   2.121  22.983  0.00  0.00    +0.130 C 
ATOM     21  C   UNL     1      -3.858   2.779  23.310  0.00  0.00    +0.053 C 
ATOM     22  C   UNL     1      -4.093   2.770  24.100  0.00  0.00    -0.016 A 
ATOM     23  C   UNL     1      -3.955   2.102  24.564  0.00  0.00    +0.009 A 
ATOM     24  C   UNL     1      -4.191   2.093  25.355  0.00  0.00    +0.004 A 
ATOM     25  C   UNL     1      -4.564   2.752  25.681  0.00  0.00    +0.037 A 
ATOM     26  C   UNL     1      -4.702   3.421  25.217  0.00  0.00    +0.138 A 
ATOM     29  C   UNL     1      -4.467   3.429  24.427  0.00  0.00    +0.033 A 
BRANCH  26  27
ATOM     27  O   UNL     1      -5.076   4.079  25.545  0.00  0.00    -0.471 OA
ATOM     28  C   UNL     1      -5.887   4.064  25.692  0.00  0.00    +0.252 C 
ENDBRANCH  26  27
ENDBRANCH  17  18
ENDBRANCH  16  17
TORSDOF 9
ENDMDL
MODEL 6
REMARK VINA RESULT:      -8.9      2.578      6.141
REMARK  Name = 
REMARK  9 active torsions:
REMARK  status: ('A' for Active; 'I' for Inactive)
REMARK    1  A    between atoms: C_2  and  C_3
REMARK    2  A    between atoms: C_3  and  C_4
REMARK    3  A    between atoms: C_4  and  C_5
REMARK    4  A    between atoms: C_5  and  C_6
REMARK    5  A    between atoms: C_11  and  C_12
REMARK    6  A    between atoms: C_12  and  C_13
REMARK    7  A    between atoms: C_16  and  C_17
REMARK    8  A    between atoms: C_17  and  C_18
REMARK    9  A    between atoms: C_26  and  O_27
REMARK                            x       y       z     vdW  Elec       q    Type
REMARK                         _______ _______ _______ _____ _____    ______ ____
ROOT
ATOM      6  C   UNL     1      -1.911  -0.678  24.940  0.00  0.00    +0.226 C 
ATOM      7  O   UNL     1      -2.435  -0.172  25.326  0.00  0.00    -0.275 OA
ATOM      8  N   UNL     1      -1.245  -0.373  24.561  0.00  0.00    -0.280 N 
ATOM      9  C   UNL     1      -0.721  -0.879  24.175  0.00  0.00    +0.093 C 
ATOM     10  C   UNL     1      -0.055  -0.572  23.796  0.00  0.00    +0.022 C 
ATOM     11  C   UNL     1       0.086   0.240  23.802  0.00  0.00    +0.015 C 
ATOM     16  C   UNL     1      -0.438   0.747  24.188  0.00  0.00    +0.026 C 
ATOM     30  C   UNL     1      -1.104   0.441  24.567  0.00  0.00    +0.094 C 
ENDROOT
BRANCH   6   5
ATOM      5  C   UNL     1      -2.051  -1.491  24.934  0.00  0.00    +0.085 C 
BRANCH   5   4
ATOM      4  C   UNL     1      -2.820  -1.777  25.025  0.00  0.00    +0.010 C 
BRANCH   4   3
ATOM      3  C   UNL     1      -3.016  -2.528  24.745  0.00  0.00    +0.001 C 
BRANCH   3   2
ATOM      1  C   UNL     1      -4.094  -2.989  23.927  0.00  0.00    +0.000 C 
ATOM      2  C   UNL     1      -3.809  -2.743  24.661  0.00  0.00    +0.000 C 
ENDBRANCH   3   2
ENDBRANCH   4   3
ENDBRANCH   5   4
ENDBRANCH   6   5
BRANCH  11  12
ATOM     12  C   UNL     1       0.751   0.547  23.423  0.00  0.00    +0.114 C 
BRANCH  12  13
ATOM     13  C   UNL     1       1.202   0.065  22.927  0.00  0.00    +0.365 C 
ATOM     14  O   UNL     1       1.902  -0.272  23.204  0.00  0.00    -0.246 OA
ATOM     15  O   UNL     1       0.953  -0.081  22.155  0.00  0.00    -0.246 OA
ENDBRANCH  12  13
ENDBRANCH  11  12
BRANCH  16  17
ATOM     17  C   UNL     1      -0.298   1.560  24.194  0.00  0.00    +0.047 C 
BRANCH  17  18
ATOM     18  C   UNL     1      -0.299   1.973  24.908  0.00  0.00    +0.053 C 
ATOM     19  N   UNL     1       0.082   1.659  25.569  0.00  0.00    -0.274 NA
ATOM     20  C   UNL     1       0.080   2.072  26.283  0.00  0.00    +0.130 C 
ATOM     21  C   UNL     1      -0.302   2.801  26.336  0.00  0.00    +0.053 C 
ATOM     22  C   UNL     1      -0.683   3.116  25.676  0.00  0.00    -0.016 A 
ATOM     23  C   UNL     1      -0.682   2.702  24.963  0.00  0.00    +0.009 A 
ATOM     24  C   UNL     1      -1.064   3.017  24.302  0.00  0.00    +0.004 A 
ATOM     25  C   UNL     1      -1.446   3.746  24.356  0.00  0.00    +0.037 A 
ATOM     26  C   UNL     1      -1.448   4.160  25.070  0.00  0.00    +0.138 A 
ATOM     29  C   UNL     1      -1.067   3.845  25.729  0.00  0.00    +0.033 A 
BRANCH  26  27
ATOM     27  O   UNL     1      -1.831   4.889  25.123  0.00  0.00    -0.471 OA
ATOM     28  C   UNL     1      -1.425   5.583  24.941  0.00  0.00    +0.252 C 
ENDBRANCH  26  27
ENDBRANCH  17  18
ENDBRANCH  16  17
TORSDOF 9
ENDMDL
MODEL 7
REMARK VINA RESULT:      -8.7      2.335      3.628
REMARK  Name = 
REMARK  9 active torsions:
REMARK  status: ('A' for Active; 'I' for Inactive)
REMARK    1  A    between atoms: C_2  and  C_3
REMARK    2  A    between atoms: C_3  and  C_4
REMARK    3  A    between atoms: C_4  and  C_5
REMARK    4  A    between atoms: C_5  and  C_6
REMARK    5  A    between atoms: C_11  and  C_12
REMARK    6  A    between atoms: C_12  and  C_13
REMARK    7  A    between atoms: C_16  and  C_17
REMARK    8  A    between atoms: C_17  and  C_18
REMARK    9  A    between atoms: C_26  and  O_27
REMARK                            x       y       z     vdW  Elec       q    Type
REMARK                         _______ _______ _______ _____ _____    ______ ____
ROOT
ATOM      6  C   UNL     1      -1.167   2.370  24.820  0.00  0.00    +0.226 C 
ATOM      7  O   UNL     1      -1.924   2.260  25.129  0.00  0.00    -0.275 OA
ATOM      8  N   UNL     1      -0.751   1.729  24.507  0.00  0.00    -0.280 N 
ATOM      9  C   UNL     1       0.006   1.839  24.198  0.00  0.00    +0.093 C 
ATOM     10  C   UNL     1       0.420   1.198  23.886  0.00  0.00    +0.022 C 
ATOM     11  C   UNL     1       0.079   0.447  23.882  0.00  0.00    +0.015 C 
ATOM     16  C   UNL     1      -0.678   0.337  24.191  0.00  0.00    +0.026 C 
ATOM     30  C   UNL     1      -1.094   0.978  24.504  0.00  0.00    +0.094 C 
ENDROOT
BRANCH   6   5
ATOM      5  C   UNL     1      -0.825   3.120  24.824  0.00  0.00    +0.085 C 
BRANCH   5   4
ATOM      4  C   UNL     1      -1.267   3.774  25.065  0.00  0.00    +0.010 C 
BRANCH   4   3
ATOM      3  C   UNL     1      -0.975   4.536  24.945  0.00  0.00    +0.001 C 
BRANCH   3   2
ATOM      1  C   UNL     1      -1.355   5.909  24.841  0.00  0.00    +0.000 C 
ATOM      2  C   UNL     1      -1.389   5.187  25.238  0.00  0.00    +0.000 C 
ENDBRANCH   3   2
ENDBRANCH   4   3
ENDBRANCH   5   4
ENDBRANCH   6   5
BRANCH  11  12
ATOM     12  C   UNL     1       0.493  -0.194  23.569  0.00  0.00    +0.114 C 
BRANCH  12  13
ATOM     13  C   UNL     1       1.068  -0.070  22.990  0.00  0.00    +0.365 C 
ATOM     14  O   UNL     1       0.862  -0.100  22.192  0.00  0.00    -0.246 OA
ATOM     15  O   UNL     1       1.848   0.083  23.208  0.00  0.00    -0.246 OA
ENDBRANCH  12  13
ENDBRANCH  11  12
BRANCH  16  17
ATOM     17  C   UNL     1      -1.021  -0.414  24.188  0.00  0.00    +0.047 C 
BRANCH  17  18
ATOM     18  C   UNL     1      -1.418  -0.689  24.856  0.00  0.00    +0.053 C 
ATOM     19  N   UNL     1      -1.094  -0.574  25.606  0.00  0.00    -0.274 NA
ATOM     20  C   UNL     1      -1.492  -0.850  26.274  0.00  0.00    +0.130 C 
ATOM     21  C   UNL     1      -2.213  -1.241  26.193  0.00  0.00    +0.053 C 
ATOM     22  C   UNL     1      -2.537  -1.356  25.444  0.00  0.00    -0.016 A 
ATOM     23  C   UNL     1      -2.140  -1.081  24.775  0.00  0.00    +0.009 A 
ATOM     24  C   UNL     1      -2.464  -1.196  24.025  0.00  0.00    +0.004 A 
ATOM     25  C   UNL     1      -3.186  -1.587  23.944  0.00  0.00    +0.037 A 
ATOM     26  C   UNL     1      -3.583  -1.863  24.612  0.00  0.00    +0.138 A 
ATOM     29  C   UNL     1      -3.259  -1.747  25.361  0.00  0.00    +0.033 A 
BRANCH  26  27
ATOM     27  O   UNL     1      -4.305  -2.254  24.530  0.00  0.00    -0.471 OA
ATOM     28  C   UNL     1      -4.557  -2.505  23.786  0.00  0.00    +0.252 C 
ENDBRANCH  26  27
ENDBRANCH  17  18
ENDBRANCH  16  17
TORSDOF 9
ENDMDL
MODEL 8
REMARK VINA RESULT:      -8.5      2.472      4.195
REMARK  Name = 
REMARK  9 active torsions:
REMARK  status: ('A' for Active; 'I' for Inactive)
REMARK    1  A    between atoms: C_2  and  C_3
REMARK    2  A    between atoms: C_3  and  C_4
REMARK    3  A    between atoms: C_4  and  C_5
REMARK    4  A    between atoms: C_5  and  C_6
REMARK    5  A    between atoms: C_11  and  C_12
REMARK    6  A    between atoms: C_12  and  C_13
REMARK    7  A    between atoms: C_16  and  C_17
REMARK    8  A    between atoms: C_17  and  C_18
REMARK    9  A    between atoms: C_26  and  O_27
REMARK                            x       y       z     vdW  Elec       q    Type
REMARK                         _______ _______ _______ _____ _____    ______ ____
ROOT
ATOM      6  C   UNL     1      -3.985   1.327  24.527  0.00  0.00    +0.226 C 
ATOM      7  O   UNL     1      -3.502   1.937  24.254  0.00  0.00    -0.275 OA
ATOM      8  N   UNL     1      -3.671   0.573  24.644  0.00  0.00    -0.280 N 
ATOM      9  C   UNL     1      -4.154  -0.038  24.917  0.00  0.00    +0.093 C 
ATOM     10  C   UNL     1      -3.839  -0.792  25.034  0.00  0.00    +0.022 C 
ATOM     11  C   UNL     1      -3.042  -0.935  24.878  0.00  0.00    +0.015 C 
ATOM     16  C   UNL     1      -2.559  -0.325  24.605  0.00  0.00    +0.026 C 
ATOM     30  C   UNL     1      -2.873   0.430  24.488  0.00  0.00    +0.094 C 
ENDROOT
BRANCH   6   5
ATOM      5  C   UNL     1      -4.782   1.469  24.684  0.00  0.00    +0.085 C 
BRANCH   5   4
ATOM      4  C   UNL     1      -5.040   2.237  24.843  0.00  0.00    +0.010 C 
BRANCH   4   3
ATOM      3  C   UNL     1      -5.796   2.363  25.149  0.00  0.00    +0.001 C 
BRANCH   3   2
ATOM      1  C   UNL     1      -6.017   3.703  25.592  0.00  0.00    +0.000 C 
ATOM      2  C   UNL     1      -5.907   2.904  25.763  0.00  0.00    +0.000 C 
ENDBRANCH   3   2
ENDBRANCH   4   3
ENDBRANCH   5   4
ENDBRANCH   6   5
BRANCH  11  12
ATOM     12  C   UNL     1      -2.728  -1.689  24.995  0.00  0.00    +0.114 C 
BRANCH  12  13
ATOM     13  C   UNL     1      -3.226  -2.346  25.002  0.00  0.00    +0.365 C 
ATOM     14  O   UNL     1      -3.521  -2.632  25.718  0.00  0.00    -0.246 OA
ATOM     15  O   UNL     1      -3.429  -2.719  24.295  0.00  0.00    -0.246 OA
ENDBRANCH  12  13
ENDBRANCH  11  12
BRANCH  16  17
ATOM     17  C   UNL     1      -1.762  -0.467  24.449  0.00  0.00    +0.047 C 
BRANCH  17  18
ATOM     18  C   UNL     1      -1.191   0.084  24.674  0.00  0.00    +0.053 C 
ATOM     19  N   UNL     1      -1.300   0.535  25.356  0.00  0.00    -0.274 NA
ATOM     20  C   UNL     1      -0.730   1.087  25.582  0.00  0.00    +0.130 C 
ATOM     21  C   UNL     1      -0.051   1.188  25.126  0.00  0.00    +0.053 C 
ATOM     22  C   UNL     1       0.059   0.738  24.444  0.00  0.00    -0.016 A 
ATOM     23  C   UNL     1      -0.512   0.186  24.218  0.00  0.00    +0.009 A 
ATOM     24  C   UNL     1      -0.402  -0.265  23.536  0.00  0.00    +0.004 A 
ATOM     25  C   UNL     1       0.278  -0.164  23.080  0.00  0.00    +0.037 A 
ATOM     26  C   UNL     1       0.848   0.388  23.305  0.00  0.00    +0.138 A 
ATOM     29  C   UNL     1       0.738   0.838  23.987  0.00  0.00    +0.033 A 
BRANCH  26  27
ATOM     27  O   UNL     1       1.528   0.488  22.848  0.00  0.00    -0.471 OA
ATOM     28  C   UNL     1       1.853  -0.153  22.445  0.00  0.00    +0.252 C 
ENDBRANCH  26  27
ENDBRANCH  17  18
ENDBRANCH  16  17
TORSDOF 9
ENDMDL
MODEL 9
REMARK VINA RESULT:      -8.4      3.260      5.083
REMARK  Name = 
REMARK  9 active torsions:
REMARK  status: ('A' for Active; 'I' for Inactive)
REMARK    1  A    between atoms: C_2  and  C_3
REMARK    2  A    between atoms: C_3  and  C_4
REMARK    3  A    between atoms: C_4  and  C_5
REMARK    4  A    between atoms: C_5  and  C_6
REMARK    5  A    between atoms: C_11  and  C_12
REMARK    6  A    between atoms: C_12  and  C_13
REMARK    7  A    between atoms: C_16  and  C_17
REMARK    8  A    between atoms: C_17  and  C_18
REMARK    9  A    between atoms: C_26  and  O_27
REMARK                            x       y       z     vdW  Elec       q    Type
REMARK                         _______ _______ _______ _____ _____    ______ ____
ROOT
ATOM      6  C   UNL     1       0.805   0.542  23.386  0.00  0.00    +0.226 C 
ATOM      7  O   UNL     1       0.783   1.357  23.261  0.00  0.00    -0.275 OA
ATOM      8  N   UNL     1       0.184   0.167  23.778  0.00  0.00    -0.280 N 
ATOM      9  C   UNL     1       0.206  -0.648  23.904  0.00  0.00    +0.093 C 
ATOM     10  C   UNL     1      -0.417  -1.021  24.296  0.00  0.00    +0.022 C 
ATOM     11  C   UNL     1      -1.062  -0.580  24.563  0.00  0.00    +0.015 C 
ATOM     16  C   UNL     1      -1.084   0.235  24.437  0.00  0.00    +0.026 C 
ATOM     30  C   UNL     1      -0.461   0.609  24.045  0.00  0.00    +0.094 C 
ENDROOT
BRANCH   6   5
ATOM      5  C   UNL     1       1.449   0.100  23.120  0.00  0.00    +0.085 C 
BRANCH   5   4
ATOM      4  C   UNL     1       2.108   0.482  22.802  0.00  0.00    +0.010 C 
BRANCH   4   3
ATOM      3  C   UNL     1       2.838   0.100  22.785  0.00  0.00    +0.001 C 
BRANCH   3   2
ATOM      1  C   UNL     1       4.221   0.450  22.869  0.00  0.00    +0.000 C 
ATOM      2  C   UNL     1       3.499   0.485  22.473  0.00  0.00    +0.000 C 
ENDBRANCH   3   2
ENDBRANCH   4   3
ENDBRANCH   5   4
ENDBRANCH   6   5
BRANCH  11  12
ATOM     12  C   UNL     1      -1.684  -0.954  24.954  0.00  0.00    +0.114 C 
BRANCH  12  13
ATOM     13  C   UNL     1      -1.793  -1.768  24.873  0.00  0.00    +0.365 C 
ATOM     14  O   UNL     1      -2.305  -2.060  24.297  0.00  0.00    -0.246 OA
ATOM     15  O   UNL     1      -1.390  -2.290  25.368  0.00  0.00    -0.246 OA
ENDBRANCH  12  13
ENDBRANCH  11  12
BRANCH  16  17
ATOM     17  C   UNL     1      -1.728   0.676  24.703  0.00  0.00    +0.047 C 
BRANCH  17  18
ATOM     18  C   UNL     1      -1.604   1.392  25.095  0.00  0.00    +0.053 C 
ATOM     19  N   UNL     1      -0.943   1.488  25.579  0.00  0.00    -0.274 NA
ATOM     20  C   UNL     1      -0.820   2.204  25.971  0.00  0.00    +0.130 C 
ATOM     21  C   UNL     1      -1.357   2.822  25.879  0.00  0.00    +0.053 C 
ATOM     22  C   UNL     1      -2.018   2.726  25.396  0.00  0.00    -0.016 A 
ATOM     23  C   UNL     1      -2.141   2.011  25.004  0.00  0.00    +0.009 A 
ATOM     24  C   UNL     1      -2.803   1.914  24.519  0.00  0.00    +0.004 A 
ATOM     25  C   UNL     1      -3.340   2.534  24.427  0.00  0.00    +0.037 A 
ATOM     26  C   UNL     1      -3.216   3.249  24.820  0.00  0.00    +0.138 A 
ATOM     29  C   UNL     1      -2.556   3.345  25.303  0.00  0.00    +0.033 A 
BRANCH  26  27
ATOM     27  O   UNL     1      -3.754   3.868  24.727  0.00  0.00    -0.471 OA
ATOM     28  C   UNL     1      -4.497   3.826  25.083  0.00  0.00    +0.252 C 
ENDBRANCH  26  27
ENDBRANCH  17  18
ENDBRANCH  16  17
TORSDOF 9
ENDMDL
