REMARK  Name = 
REMARK  3 active torsions:
REMARK  status: ('A' for Active; 'I' for Inactive)
REMARK    1  A    between atoms: O_2  and  C_3
REMARK    2  A    between atoms: C_10  and  C_12
REMARK    3  A    between atoms: C_16  and  O_17
REMARK                            x       y       z     vdW  Elec       q    Type
REMARK                         _______ _______ _______ _____ _____    ______ ____
ROOT
ATOM      3  C   UNL     1       4.715   5.288   0.000  0.00  0.00    +0.165 C 
ATOM      4  C   UNL     1       5.531   5.165   0.000  0.00  0.00    +0.173 C 
ATOM      5  O   UNL     1       5.943   4.450   0.000  0.00  0.00    -0.349 OA
ATOM      6  C   UNL     1       5.642   3.682   0.000  0.00  0.00    +0.164 C 
ATOM      7  C   UNL     1       4.853   3.439   0.000  0.00  0.00    +0.126 C 
ATOM      8  N   UNL     1       4.172   3.904   0.000  0.00  0.00    -0.271 N 
ATOM      9  C   UNL     1       4.110   4.727   0.000  0.00  0.00    +0.126 C 
ATOM     10  C   UNL     1       3.457   3.491   0.000  0.00  0.00    +0.249 C 
ATOM     11  O   UNL     1       2.743   3.904   0.000  0.00  0.00    -0.270 OA
ENDROOT
BRANCH  10  12
ATOM     12  C   UNL     1       3.457   2.666   0.000  0.00  0.00    +0.057 A 
ATOM     13  C   UNL     1       4.172   2.254   0.000  0.00  0.00    +0.005 A 
ATOM     14  C   UNL     1       4.172   1.429   0.000  0.00  0.00    +0.003 A 
ATOM     15  C   UNL     1       3.457   1.016   0.000  0.00  0.00    +0.037 A 
ATOM     16  C   UNL     1       2.743   1.429   0.000  0.00  0.00    +0.139 A 
ATOM     19  C   UNL     1       2.743   2.254   0.000  0.00  0.00    +0.041 A 
BRANCH  16  17
ATOM     17  O   UNL     1       2.028   1.016   0.000  0.00  0.00    -0.471 OA
ATOM     18  C   UNL     1       2.028   0.191   0.000  0.00  0.00    +0.252 C 
ENDBRANCH  16  17
ENDBRANCH  10  12
BRANCH   3   2
ATOM      1  C   UNL     1       5.033   6.681   0.000  0.00  0.00    +0.174 C 
ATOM      2  O   UNL     1       4.472   6.076   0.000  0.00  0.00    -0.349 OA
ENDBRANCH   3   2
TORSDOF 3
