MODEL 1
REMARK VINA RESULT:     -16.2      0.000      0.000
REMARK  Name = 
REMARK  6 active torsions:
REMARK  status: ('A' for Active; 'I' for Inactive)
REMARK    1  A    between atoms: C_2  and  C_5
REMARK    2  A    between atoms: C_9  and  S_11
REMARK    3  A    between atoms: S_11  and  N_14
REMARK    4  A    between atoms: C_23  and  N_24
REMARK    5  A    between atoms: C_25  and  C_27
REMARK    6  A    between atoms: C_27  and  C_28
REMARK                            x       y       z     vdW  Elec       q    Type
REMARK                         _______ _______ _______ _____ _____    ______ ____
ROOT
ATOM     14  N   UNL     1      -4.500   1.259  24.470  0.00  0.00    -0.155 NA
ATOM     15  C   UNL     1      -5.190   0.820  24.640  0.00  0.00    +0.098 C 
ATOM     16  C   UNL     1      -5.645   1.454  25.245  0.00  0.00    +0.041 C 
ATOM     17  C   UNL     1      -6.141   1.857  25.750  0.00  0.00    +0.011 C 
ATOM     18  C   UNL     1      -5.519   1.961  25.442  0.00  0.00    +0.056 C 
ATOM     19  C   UNL     1      -5.092   1.337  24.858  0.00  0.00    +0.102 C 
ATOM     20  C   UNL     1      -4.841   2.578  25.374  0.00  0.00    +0.041 A 
ATOM     21  C   UNL     1      -4.626   3.325  25.648  0.00  0.00    +0.014 A 
ATOM     22  C   UNL     1      -3.912   3.662  25.410  0.00  0.00    +0.023 A 
ATOM     23  C   UNL     1      -3.412   3.251  24.898  0.00  0.00    +0.129 A 
ATOM     34  C   UNL     1      -3.627   2.503  24.624  0.00  0.00    +0.276 A 
ATOM     35  O   UNL     1      -3.075   1.992  24.028  0.00  0.00    -0.266 OA
ATOM     36  N   UNL     1      -4.342   2.166  24.862  0.00  0.00    -0.298 N 
ATOM     37  C   UNL     1      -4.932   2.093  25.169  0.00  0.00    +0.110 C 
ENDROOT
BRANCH  14  11
ATOM     11  S   UNL     1      -3.748   1.300  24.053  0.00  0.00    +0.063 S 
ATOM     12  O   UNL     1      -3.141   1.732  23.578  0.00  0.00    -0.153 OA
ATOM     13  O   UNL     1      -3.913   2.148  23.849  0.00  0.00    -0.153 OA
BRANCH  11   9
ATOM      5  C   UNL     1      -3.219  -0.632  25.252  0.00  0.00    +0.073 A 
ATOM      6  C   UNL     1      -3.660  -1.138  25.007  0.00  0.00    +0.004 A 
ATOM      7  C   UNL     1      -4.276  -0.966  24.350  0.00  0.00    +0.001 A 
ATOM      8  C   UNL     1      -4.263  -0.293  24.122  0.00  0.00    +0.020 A 
ATOM      9  C   UNL     1      -3.756   0.364  24.379  0.00  0.00    +0.122 A 
ATOM     10  C   UNL     1      -3.225   0.144  24.971  0.00  0.00    +0.024 A 
BRANCH   5   2
ATOM      1  F   UNL     1      -1.746  -0.979  26.254  0.00  0.00    -0.166 F 
ATOM      2  C   UNL     1      -2.612  -0.876  25.926  0.00  0.00    +0.419 C 
ATOM      3  F   UNL     1      -2.028  -0.578  25.194  0.00  0.00    -0.166 F 
ATOM      4  F   UNL     1      -3.404  -1.048  26.320  0.00  0.00    -0.166 F 
ENDBRANCH   5   2
ENDBRANCH  11   9
ENDBRANCH  14  11
BRANCH  23  24
ATOM     24  N   UNL     1      -2.543   3.582  24.566  0.00  0.00    -0.174 NA
ATOM     25  C   UNL     1      -1.824   3.978  25.190  0.00  0.00    +0.250 C 
ATOM     26  O   UNL     1      -1.805   4.106  26.068  0.00  0.00    -0.273 OA
BRANCH  25  27
ATOM     27  C   UNL     1      -1.049   4.269  24.855  0.00  0.00    +0.113 C 
BRANCH  27  28
ATOM     28  C   UNL     1      -0.780   3.611  25.255  0.00  0.00    -0.013 A 
ATOM     29  C   UNL     1      -0.239   3.291  24.722  0.00  0.00    -0.004 A 
ATOM     30  C   UNL     1       0.172   2.603  24.913  0.00  0.00    -0.000 A 
ATOM     31  C   UNL     1       0.042   2.232  25.639  0.00  0.00    -0.000 A 
ATOM     32  C   UNL     1      -0.499   2.552  26.173  0.00  0.00    -0.000 A 
ATOM     33  C   UNL     1      -0.910   3.241  25.981  0.00  0.00    -0.004 A 
ENDBRANCH  27  28
ENDBRANCH  25  27
ENDBRANCH  23  24
TORSDOF 6
ENDMDL
MODEL 2
REMARK VINA RESULT:     -15.8      1.482      3.600
REMARK  Name = 
REMARK  6 active torsions:
REMARK  status: ('A' for Active; 'I' for Inactive)
REMARK    1  A    between atoms: C_2  and  C_5
REMARK    2  A    between atoms: C_9  and  S_11
REMARK    3  A    between atoms: S_11  and  N_14
REMARK    4  A    between atoms: C_23  and  N_24
REMARK    5  A    between atoms: C_25  and  C_27
REMARK    6  A    between atoms: C_27  and  C_28
REMARK                            x       y       z     vdW  Elec       q    Type
REMARK                         _______ _______ _______ _____ _____    ______ ____
ROOT
ATOM     14  N   UNL     1      -3.549   3.040  24.476  0.00  0.00    -0.155 NA
ATOM     15  C   UNL     1      -3.730   3.820  24.714  0.00  0.00    +0.098 C 
ATOM     16  C   UNL     1      -4.563   3.651  25.218  0.00  0.00    +0.041 C 
ATOM     17  C   UNL     1      -5.247   3.680  25.658  0.00  0.00    +0.011 C 
ATOM     18  C   UNL     1      -4.859   3.193  25.334  0.00  0.00    +0.056 C 
ATOM     19  C   UNL     1      -4.055   3.373  24.851  0.00  0.00    +0.102 C 
ATOM     20  C   UNL     1      -4.825   2.290  25.171  0.00  0.00    +0.041 A 
ATOM     21  C   UNL     1      -5.241   1.595  25.326  0.00  0.00    +0.014 A 
ATOM     22  C   UNL     1      -4.963   0.874  25.035  0.00  0.00    +0.023 A 
ATOM     23  C   UNL     1      -4.270   0.849  24.589  0.00  0.00    +0.129 A 
ATOM     34  C   UNL     1      -3.853   1.544  24.434  0.00  0.00    +0.276 A 
ATOM     35  O   UNL     1      -3.043   1.558  23.920  0.00  0.00    -0.266 OA
ATOM     36  N   UNL     1      -4.131   2.264  24.725  0.00  0.00    -0.298 N 
ATOM     37  C   UNL     1      -4.519   2.709  25.042  0.00  0.00    +0.110 C 
ENDROOT
BRANCH  14  11
ATOM     11  S   UNL     1      -3.016   2.514  24.053  0.00  0.00    +0.063 S 
ATOM     12  O   UNL     1      -2.854   1.846  23.496  0.00  0.00    -0.153 OA
ATOM     13  O   UNL     1      -3.713   2.110  23.684  0.00  0.00    -0.153 OA
BRANCH  11   9
ATOM      5  C   UNL     1      -1.343   3.196  25.533  0.00  0.00    +0.073 A 
ATOM      6  C   UNL     1      -1.302   3.906  25.464  0.00  0.00    +0.004 A 
ATOM      7  C   UNL     1      -1.842   4.368  24.884  0.00  0.00    +0.001 A 
ATOM      8  C   UNL     1      -2.289   3.949  24.523  0.00  0.00    +0.020 A 
ATOM      9  C   UNL     1      -2.386   3.086  24.562  0.00  0.00    +0.122 A 
ATOM     10  C   UNL     1      -1.872   2.732  25.102  0.00  0.00    +0.024 A 
BRANCH   5   2
ATOM      1  F   UNL     1      -0.004   2.282  26.349  0.00  0.00    -0.166 F 
ATOM      2  C   UNL     1      -0.760   2.786  26.145  0.00  0.00    +0.419 C 
ATOM      3  F   UNL     1      -0.361   2.567  25.274  0.00  0.00    -0.166 F 
ATOM      4  F   UNL     1      -1.371   3.158  26.692  0.00  0.00    -0.166 F 
ENDBRANCH   5   2
ENDBRANCH  11   9
ENDBRANCH  14  11
BRANCH  23  24
ATOM     24  N   UNL     1      -3.871   0.030  24.206  0.00  0.00    -0.174 NA
ATOM     25  C   UNL     1      -3.733  -0.830  24.758  0.00  0.00    +0.250 C 
ATOM     26  O   UNL     1      -3.913  -1.030  25.604  0.00  0.00    -0.273 OA
BRANCH  25  27
ATOM     27  C   UNL     1      -3.369  -1.552  24.378  0.00  0.00    +0.113 C 
BRANCH  27  28
ATOM     28  C   UNL     1      -2.761  -1.351  24.883  0.00  0.00    -0.013 A 
ATOM     29  C   UNL     1      -2.094  -1.542  24.438  0.00  0.00    -0.004 A 
ATOM     30  C   UNL     1      -1.341  -1.422  24.751  0.00  0.00    -0.000 A 
ATOM     31  C   UNL     1      -1.253  -1.109  25.510  0.00  0.00    -0.000 A 
ATOM     32  C   UNL     1      -1.921  -0.917  25.955  0.00  0.00    -0.000 A 
ATOM     33  C   UNL     1      -2.675  -1.038  25.642  0.00  0.00    -0.004 A 
ENDBRANCH  27  28
ENDBRANCH  25  27
ENDBRANCH  23  24
TORSDOF 6
ENDMDL
MODEL 3
REMARK VINA RESULT:     -15.5      1.746      4.070
REMARK  Name = 
REMARK  6 active torsions:
REMARK  status: ('A' for Active; 'I' for Inactive)
REMARK    1  A    between atoms: C_2  and  C_5
REMARK    2  A    between atoms: C_9  and  S_11
REMARK    3  A    between atoms: S_11  and  N_14
REMARK    4  A    between atoms: C_23  and  N_24
REMARK    5  A    between atoms: C_25  and  C_27
REMARK    6  A    between atoms: C_27  and  C_28
REMARK                            x       y       z     vdW  Elec       q    Type
REMARK                         _______ _______ _______ _____ _____    ______ ____
ROOT
ATOM     14  N   UNL     1      -2.444   2.698  24.374  0.00  0.00    -0.155 NA
ATOM     15  C   UNL     1      -2.542   3.499  24.590  0.00  0.00    +0.098 C 
ATOM     16  C   UNL     1      -1.858   3.564  25.300  0.00  0.00    +0.041 C 
ATOM     17  C   UNL     1      -1.346   3.779  25.896  0.00  0.00    +0.011 C 
ATOM     18  C   UNL     1      -1.495   3.204  25.522  0.00  0.00    +0.056 C 
ATOM     19  C   UNL     1      -2.160   3.157  24.839  0.00  0.00    +0.102 C 
ATOM     20  C   UNL     1      -1.248   2.325  25.424  0.00  0.00    +0.041 A 
ATOM     21  C   UNL     1      -0.722   1.769  25.732  0.00  0.00    +0.014 A 
ATOM     22  C   UNL     1      -0.715   0.999  25.436  0.00  0.00    +0.023 A 
ATOM     23  C   UNL     1      -1.235   0.785  24.832  0.00  0.00    +0.129 A 
ATOM     34  C   UNL     1      -1.761   1.340  24.524  0.00  0.00    +0.276 A 
ATOM     35  O   UNL     1      -2.381   1.131  23.822  0.00  0.00    -0.266 OA
ATOM     36  N   UNL     1      -1.767   2.110  24.820  0.00  0.00    -0.298 N 
ATOM     37  C   UNL     1      -1.607   2.644  25.190  0.00  0.00    +0.110 C 
ENDROOT
BRANCH  14  11
ATOM     11  S   UNL     1      -2.691   2.045  23.871  0.00  0.00    +0.063 S 
ATOM     12  O   UNL     1      -2.520   1.356  23.344  0.00  0.00    -0.153 OA
ATOM     13  O   UNL     1      -1.840   1.843  23.722  0.00  0.00    -0.153 OA
BRANCH  11   9
ATOM      5  C   UNL     1      -4.795   2.267  24.857  0.00  0.00    +0.073 A 
ATOM      6  C   UNL     1      -5.014   2.930  24.699  0.00  0.00    +0.004 A 
ATOM      7  C   UNL     1      -4.499   3.503  24.202  0.00  0.00    +0.001 A 
ATOM      8  C   UNL     1      -3.879   3.220  24.000  0.00  0.00    +0.020 A 
ATOM      9  C   UNL     1      -3.559   2.428  24.159  0.00  0.00    +0.122 A 
ATOM     10  C   UNL     1      -4.069   1.963  24.610  0.00  0.00    +0.024 A 
BRANCH   5   2
ATOM      1  F   UNL     1      -5.823   1.535  26.162  0.00  0.00    -0.166 F 
ATOM      2  C   UNL     1      -5.372   1.733  25.371  0.00  0.00    +0.419 C 
ATOM      3  F   UNL     1      -5.117   2.450  25.993  0.00  0.00    -0.166 F 
ATOM      4  F   UNL     1      -5.367   1.295  24.584  0.00  0.00    -0.166 F 
ENDBRANCH   5   2
ENDBRANCH  11   9
ENDBRANCH  14  11
BRANCH  23  24
ATOM     24  N   UNL     1      -1.291  -0.114  24.424  0.00  0.00    -0.174 NA
ATOM     25  C   UNL     1      -1.332  -0.977  24.986  0.00  0.00    +0.250 C 
ATOM     26  O   UNL     1      -1.327  -1.118  25.862  0.00  0.00    -0.273 OA
BRANCH  25  27
ATOM     27  C   UNL     1      -1.382  -1.773  24.582  0.00  0.00    +0.113 C 
BRANCH  27  28
ATOM     28  C   UNL     1      -2.132  -1.741  24.901  0.00  0.00    -0.013 A 
ATOM     29  C   UNL     1      -2.579  -2.138  24.333  0.00  0.00    -0.004 A 
ATOM     30  C   UNL     1      -3.391  -2.234  24.440  0.00  0.00    -0.000 A 
ATOM     31  C   UNL     1      -3.758  -1.932  25.115  0.00  0.00    -0.000 A 
ATOM     32  C   UNL     1      -3.310  -1.534  25.683  0.00  0.00    -0.000 A 
ATOM     33  C   UNL     1      -2.497  -1.439  25.576  0.00  0.00    -0.004 A 
ENDBRANCH  27  28
ENDBRANCH  25  27
ENDBRANCH  23  24
TORSDOF 6
ENDMDL
MODEL 4
REMARK VINA RESULT:     -14.9      1.692      2.883
REMARK  Name = 
REMARK  6 active torsions:
REMARK  status: ('A' for Active; 'I' for Inactive)
REMARK    1  A    between atoms: C_2  and  C_5
REMARK    2  A    between atoms: C_9  and  S_11
REMARK    3  A    between atoms: S_11  and  N_14
REMARK    4  A    between atoms: C_23  and  N_24
REMARK    5  A    between atoms: C_25  and  C_27
REMARK    6  A    between atoms: C_27  and  C_28
REMARK                            x       y       z     vdW  Elec       q    Type
REMARK                         _______ _______ _______ _____ _____    ______ ____
ROOT
ATOM     14  N   UNL     1      -3.759   0.372  24.529  0.00  0.00    -0.155 NA
ATOM     15  C   UNL     1      -4.365  -0.153  24.762  0.00  0.00    +0.098 C 
ATOM     16  C   UNL     1      -3.853  -0.733  25.377  0.00  0.00    +0.041 C 
ATOM     17  C   UNL     1      -3.579  -1.292  25.903  0.00  0.00    +0.011 C 
ATOM     18  C   UNL     1      -3.322  -0.745  25.547  0.00  0.00    +0.056 C 
ATOM     19  C   UNL     1      -3.830  -0.193  24.956  0.00  0.00    +0.102 C 
ATOM     20  C   UNL     1      -2.543  -0.276  25.410  0.00  0.00    +0.041 A 
ATOM     21  C   UNL     1      -1.752  -0.267  25.642  0.00  0.00    +0.014 A 
ATOM     22  C   UNL     1      -1.241   0.307  25.342  0.00  0.00    +0.023 A 
ATOM     23  C   UNL     1      -1.521   0.872  24.809  0.00  0.00    +0.129 A 
ATOM     34  C   UNL     1      -2.313   0.862  24.577  0.00  0.00    +0.276 A 
ATOM     35  O   UNL     1      -2.678   1.501  23.961  0.00  0.00    -0.266 OA
ATOM     36  N   UNL     1      -2.824   0.289  24.878  0.00  0.00    -0.298 N 
ATOM     37  C   UNL     1      -3.044  -0.237  25.228  0.00  0.00    +0.110 C 
ENDROOT
BRANCH  14  11
ATOM     11  S   UNL     1      -3.529   1.055  24.057  0.00  0.00    +0.063 S 
ATOM     12  O   UNL     1      -2.984   1.473  23.501  0.00  0.00    -0.153 OA
ATOM     13  O   UNL     1      -2.806   0.619  23.785  0.00  0.00    -0.153 OA
BRANCH  11   9
ATOM      5  C   UNL     1      -5.073   2.326  25.262  0.00  0.00    +0.073 A 
ATOM      6  C   UNL     1      -5.696   1.978  25.205  0.00  0.00    +0.004 A 
ATOM      7  C   UNL     1      -5.772   1.197  24.732  0.00  0.00    +0.001 A 
ATOM      8  C   UNL     1      -5.160   0.985  24.439  0.00  0.00    +0.020 A 
ATOM      9  C   UNL     1      -4.377   1.361  24.472  0.00  0.00    +0.122 A 
ATOM     10  C   UNL     1      -4.376   2.058  24.912  0.00  0.00    +0.024 A 
BRANCH   5   2
ATOM      1  F   UNL     1      -4.972   4.045  25.834  0.00  0.00    -0.166 F 
ATOM      2  C   UNL     1      -5.066   3.121  25.762  0.00  0.00    +0.419 C 
ATOM      3  F   UNL     1      -4.878   3.428  24.847  0.00  0.00    -0.166 F 
ATOM      4  F   UNL     1      -5.242   2.506  26.396  0.00  0.00    -0.166 F 
ENDBRANCH   5   2
ENDBRANCH  11   9
ENDBRANCH  14  11
BRANCH  23  24
ATOM     24  N   UNL     1      -0.976   1.590  24.405  0.00  0.00    -0.174 NA
ATOM     25  C   UNL     1      -0.381   2.218  24.965  0.00  0.00    +0.250 C 
ATOM     26  O   UNL     1      -0.225   2.268  25.838  0.00  0.00    -0.273 OA
BRANCH  25  27
ATOM     27  C   UNL     1       0.098   2.856  24.565  0.00  0.00    +0.113 C 
BRANCH  27  28
ATOM     28  C   UNL     1      -0.443   3.325  24.956  0.00  0.00    -0.013 A 
ATOM     29  C   UNL     1      -0.528   3.962  24.438  0.00  0.00    -0.004 A 
ATOM     30  C   UNL     1      -1.039   4.581  24.626  0.00  0.00    -0.000 A 
ATOM     31  C   UNL     1      -1.467   4.564  25.331  0.00  0.00    -0.000 A 
ATOM     32  C   UNL     1      -1.382   3.927  25.849  0.00  0.00    -0.000 A 
ATOM     33  C   UNL     1      -0.870   3.308  25.662  0.00  0.00    -0.004 A 
ENDBRANCH  27  28
ENDBRANCH  25  27
ENDBRANCH  23  24
TORSDOF 6
ENDMDL
MODEL 5
REMARK VINA RESULT:     -14.4      2.188      4.829
REMARK  Name = 
REMARK  6 active torsions:
REMARK  status: ('A' for Active; 'I' for Inactive)
REMARK    1  A    between atoms: C_2  and  C_5
REMARK    2  A    between atoms: C_9  and  S_11
REMARK    3  A    between atoms: S_11  and  N_14
REMARK    4  A    between atoms: C_23  and  N_24
REMARK    5  A    between atoms: C_25  and  C_27
REMARK    6  A    between atoms: C_27  and  C_28
REMARK                            x       y       z     vdW  Elec       q    Type
REMARK                         _______ _______ _______ _____ _____    ______ ____
ROOT
ATOM     14  N   UNL     1      -1.142   2.715  24.889  0.00  0.00    -0.155 NA
ATOM     15  C   UNL     1      -0.577   3.203  25.264  0.00  0.00    +0.098 C 
ATOM     16  C   UNL     1      -0.159   2.540  25.866  0.00  0.00    +0.041 C 
ATOM     17  C   UNL     1       0.282   2.125  26.411  0.00  0.00    +0.011 C 
ATOM     18  C   UNL     1      -0.241   1.997  25.961  0.00  0.00    +0.056 C 
ATOM     19  C   UNL     1      -0.635   2.649  25.385  0.00  0.00    +0.102 C 
ATOM     20  C   UNL     1      -0.787   1.319  25.664  0.00  0.00    +0.041 A 
ATOM     21  C   UNL     1      -0.933   0.516  25.782  0.00  0.00    +0.014 A 
ATOM     22  C   UNL     1      -1.523   0.136  25.349  0.00  0.00    +0.023 A 
ATOM     23  C   UNL     1      -1.968   0.560  24.797  0.00  0.00    +0.129 A 
ATOM     34  C   UNL     1      -1.822   1.363  24.679  0.00  0.00    +0.276 A 
ATOM     35  O   UNL     1      -2.317   1.891  24.048  0.00  0.00    -0.266 OA
ATOM     36  N   UNL     1      -1.232   1.743  25.113  0.00  0.00    -0.298 N 
ATOM     37  C   UNL     1      -0.734   1.839  25.549  0.00  0.00    +0.110 C 
ENDROOT
BRANCH  14  11
ATOM     11  S   UNL     1      -1.778   2.648  24.313  0.00  0.00    +0.063 S 
ATOM     12  O   UNL     1      -2.187   2.242  23.643  0.00  0.00    -0.153 OA
ATOM     13  O   UNL     1      -1.411   1.905  23.998  0.00  0.00    -0.153 OA
BRANCH  11   9
ATOM      5  C   UNL     1      -2.933   4.172  25.654  0.00  0.00    +0.073 A 
ATOM      6  C   UNL     1      -2.541   4.770  25.649  0.00  0.00    +0.004 A 
ATOM      7  C   UNL     1      -1.756   4.829  25.178  0.00  0.00    +0.001 A 
ATOM      8  C   UNL     1      -1.590   4.231  24.833  0.00  0.00    +0.020 A 
ATOM      9  C   UNL     1      -2.022   3.477  24.801  0.00  0.00    +0.122 A 
ATOM     10  C   UNL     1      -2.717   3.489  25.243  0.00  0.00    +0.024 A 
BRANCH   5   2
ATOM      1  F   UNL     1      -4.655   4.166  26.225  0.00  0.00    -0.166 F 
ATOM      2  C   UNL     1      -3.726   4.179  26.157  0.00  0.00    +0.419 C 
ATOM      3  F   UNL     1      -4.048   4.136  25.229  0.00  0.00    -0.166 F 
ATOM      4  F   UNL     1      -3.099   4.216  26.802  0.00  0.00    -0.166 F 
ENDBRANCH   5   2
ENDBRANCH  11   9
ENDBRANCH  14  11
BRANCH  23  24
ATOM     24  N   UNL     1      -2.691   0.181  24.240  0.00  0.00    -0.174 NA
ATOM     25  C   UNL     1      -3.520  -0.279  24.644  0.00  0.00    +0.250 C 
ATOM     26  O   UNL     1      -3.766  -0.432  25.483  0.00  0.00    -0.273 OA
BRANCH  25  27
ATOM     27  C   UNL     1      -4.154  -0.610  24.109  0.00  0.00    +0.113 C 
BRANCH  27  28
ATOM     28  C   UNL     1      -3.900  -1.304  24.455  0.00  0.00    -0.013 A 
ATOM     29  C   UNL     1      -4.015  -1.852  23.851  0.00  0.00    -0.004 A 
ATOM     30  C   UNL     1      -3.824  -2.645  23.971  0.00  0.00    -0.000 A 
ATOM     31  C   UNL     1      -3.517  -2.891  24.697  0.00  0.00    -0.000 A 
ATOM     32  C   UNL     1      -3.402  -2.342  25.302  0.00  0.00    -0.000 A 
ATOM     33  C   UNL     1      -3.594  -1.548  25.181  0.00  0.00    -0.004 A 
ENDBRANCH  27  28
ENDBRANCH  25  27
ENDBRANCH  23  24
TORSDOF 6
ENDMDL
MODEL 6
REMARK VINA RESULT:     -14.4      2.082      3.784
REMARK  Name = 
REMARK  6 active torsions:
REMARK  status: ('A' for Active; 'I' for Inactive)
REMARK    1  A    between atoms: C_2  and  C_5
REMARK    2  A    between atoms: C_9  and  S_11
REMARK    3  A    between atoms: S_11  and  N_14
REMARK    4  A    between atoms: C_23  and  N_24
REMARK    5  A    between atoms: C_25  and  C_27
REMARK    6  A    between atoms: C_27  and  C_28
REMARK                            x       y       z     vdW  Elec       q    Type
REMARK                         _______ _______ _______ _____ _____    ______ ____
ROOT
ATOM     14  N   UNL     1      -1.074  -0.481  24.904  0.00  0.00    -0.155 NA
ATOM     15  C   UNL     1      -0.656  -1.116  24.558  0.00  0.00    +0.098 C 
ATOM     16  C   UNL     1      -0.112  -0.618  23.900  0.00  0.00    +0.041 C 
ATOM     17  C   UNL     1       0.396  -0.361  23.318  0.00  0.00    +0.011 C 
ATOM     18  C   UNL     1      -0.065  -0.079  23.765  0.00  0.00    +0.056 C 
ATOM     19  C   UNL     1      -0.584  -0.574  24.396  0.00  0.00    +0.102 C 
ATOM     20  C   UNL     1      -0.422   0.730  24.018  0.00  0.00    +0.041 A 
ATOM     21  C   UNL     1      -0.376   1.534  23.841  0.00  0.00    +0.014 A 
ATOM     22  C   UNL     1      -0.843   2.074  24.254  0.00  0.00    +0.023 A 
ATOM     23  C   UNL     1      -1.357   1.811  24.843  0.00  0.00    +0.129 A 
ATOM     34  C   UNL     1      -1.404   1.006  25.020  0.00  0.00    +0.276 A 
ATOM     35  O   UNL     1      -1.988   0.659  25.697  0.00  0.00    -0.266 OA
ATOM     36  N   UNL     1      -0.936   0.466  24.607  0.00  0.00    -0.298 N 
ATOM     37  C   UNL     1      -0.491   0.222  24.171  0.00  0.00    +0.110 C 
ENDROOT
BRANCH  14  11
ATOM     11  S   UNL     1      -1.656  -0.222  25.483  0.00  0.00    +0.063 S 
ATOM     12  O   UNL     1      -1.937   0.323  26.119  0.00  0.00    -0.153 OA
ATOM     13  O   UNL     1      -1.121   0.445  25.717  0.00  0.00    -0.153 OA
BRANCH  11   9
ATOM      5  C   UNL     1      -3.213  -1.576  24.389  0.00  0.00    +0.073 A 
ATOM      6  C   UNL     1      -2.930  -2.233  24.387  0.00  0.00    +0.004 A 
ATOM      7  C   UNL     1      -2.114  -2.408  24.765  0.00  0.00    +0.001 A 
ATOM      8  C   UNL     1      -1.806  -1.834  25.049  0.00  0.00    +0.020 A 
ATOM      9  C   UNL     1      -2.096  -1.016  25.082  0.00  0.00    +0.122 A 
ATOM     10  C   UNL     1      -2.834  -0.924  24.726  0.00  0.00    +0.024 A 
BRANCH   5   2
ATOM      1  F   UNL     1      -4.982  -1.396  24.025  0.00  0.00    -0.166 F 
ATOM      2  C   UNL     1      -4.054  -1.465  23.985  0.00  0.00    +0.419 C 
ATOM      3  F   UNL     1      -4.272  -1.551  24.939  0.00  0.00    -0.166 F 
ATOM      4  F   UNL     1      -3.502  -1.432  23.274  0.00  0.00    -0.166 F 
ENDBRANCH   5   2
ENDBRANCH  11   9
ENDBRANCH  14  11
BRANCH  23  24
ATOM     24  N   UNL     1      -1.948   2.391  25.381  0.00  0.00    -0.174 NA
ATOM     25  C   UNL     1      -2.537   3.126  24.961  0.00  0.00    +0.250 C 
ATOM     26  O   UNL     1      -2.649   3.391  24.122  0.00  0.00    -0.273 OA
BRANCH  25  27
ATOM     27  C   UNL     1      -3.060   3.632  25.479  0.00  0.00    +0.113 C 
BRANCH  27  28
ATOM     28  C   UNL     1      -3.636   3.215  25.081  0.00  0.00    -0.013 A 
ATOM     29  C   UNL     1      -4.215   3.120  25.660  0.00  0.00    -0.004 A 
ATOM     30  C   UNL     1      -4.912   2.717  25.486  0.00  0.00    -0.000 A 
ATOM     31  C   UNL     1      -5.032   2.407  24.730  0.00  0.00    -0.000 A 
ATOM     32  C   UNL     1      -4.453   2.502  24.149  0.00  0.00    -0.000 A 
ATOM     33  C   UNL     1      -3.755   2.906  24.325  0.00  0.00    -0.004 A 
ENDBRANCH  27  28
ENDBRANCH  25  27
ENDBRANCH  23  24
TORSDOF 6
ENDMDL
MODEL 7
REMARK VINA RESULT:     -14.2      1.535      2.557
REMARK  Name = 
REMARK  6 active torsions:
REMARK  status: ('A' for Active; 'I' for Inactive)
REMARK    1  A    between atoms: C_2  and  C_5
REMARK    2  A    between atoms: C_9  and  S_11
REMARK    3  A    between atoms: S_11  and  N_14
REMARK    4  A    between atoms: C_23  and  N_24
REMARK    5  A    between atoms: C_25  and  C_27
REMARK    6  A    between atoms: C_27  and  C_28
REMARK                            x       y       z     vdW  Elec       q    Type
REMARK                         _______ _______ _______ _____ _____    ______ ____
ROOT
ATOM     14  N   UNL     1      -3.727   3.091  24.690  0.00  0.00    -0.155 NA
ATOM     15  C   UNL     1      -4.386   3.410  25.091  0.00  0.00    +0.098 C 
ATOM     16  C   UNL     1      -3.921   3.883  25.823  0.00  0.00    +0.041 C 
ATOM     17  C   UNL     1      -3.695   4.317  26.475  0.00  0.00    +0.011 C 
ATOM     18  C   UNL     1      -3.386   3.946  25.966  0.00  0.00    +0.056 C 
ATOM     19  C   UNL     1      -3.850   3.494  25.264  0.00  0.00    +0.102 C 
ATOM     20  C   UNL     1      -2.557   3.685  25.666  0.00  0.00    +0.041 A 
ATOM     21  C   UNL     1      -1.757   3.758  25.851  0.00  0.00    +0.014 A 
ATOM     22  C   UNL     1      -1.189   3.394  25.376  0.00  0.00    +0.023 A 
ATOM     23  C   UNL     1      -1.421   2.956  24.716  0.00  0.00    +0.129 A 
ATOM     34  C   UNL     1      -2.222   2.882  24.532  0.00  0.00    +0.276 A 
ATOM     35  O   UNL     1      -2.534   2.382  23.774  0.00  0.00    -0.266 OA
ATOM     36  N   UNL     1      -2.790   3.246  25.007  0.00  0.00    -0.298 N 
ATOM     37  C   UNL     1      -3.060   3.606  25.503  0.00  0.00    +0.110 C 
ENDROOT
BRANCH  14  11
ATOM     11  S   UNL     1      -3.434   2.619  24.032  0.00  0.00    +0.063 S 
ATOM     12  O   UNL     1      -2.882   2.477  23.356  0.00  0.00    -0.153 OA
ATOM     13  O   UNL     1      -2.821   3.238  23.866  0.00  0.00    -0.153 OA
BRANCH  11   9
ATOM      5  C   UNL     1      -4.622   0.812  24.913  0.00  0.00    +0.073 A 
ATOM      6  C   UNL     1      -5.300   1.034  24.965  0.00  0.00    +0.004 A 
ATOM      7  C   UNL     1      -5.554   1.877  24.711  0.00  0.00    +0.001 A 
ATOM      8  C   UNL     1      -5.015   2.271  24.465  0.00  0.00    +0.020 A 
ATOM      9  C   UNL     1      -4.176   2.060  24.378  0.00  0.00    +0.122 A 
ATOM     10  C   UNL     1      -4.014   1.289  24.623  0.00  0.00    +0.024 A 
BRANCH   5   2
ATOM      1  F   UNL     1      -4.218  -0.954  25.014  0.00  0.00    -0.166 F 
ATOM      2  C   UNL     1      -4.431  -0.065  25.190  0.00  0.00    +0.419 C 
ATOM      3  F   UNL     1      -4.378  -0.122  24.210  0.00  0.00    -0.166 F 
ATOM      4  F   UNL     1      -4.559   0.354  25.977  0.00  0.00    -0.166 F 
ENDBRANCH   5   2
ENDBRANCH  11   9
ENDBRANCH  14  11
BRANCH  23  24
ATOM     24  N   UNL     1      -0.806   2.490  24.099  0.00  0.00    -0.174 NA
ATOM     25  C   UNL     1      -0.030   1.899  24.430  0.00  0.00    +0.250 C 
ATOM     26  O   UNL     1       0.249   1.684  25.245  0.00  0.00    -0.273 OA
BRANCH  25  27
ATOM     27  C   UNL     1       0.507   1.493  23.843  0.00  0.00    +0.113 C 
BRANCH  27  28
ATOM     28  C   UNL     1       0.126   0.837  24.146  0.00  0.00    -0.013 A 
ATOM     29  C   UNL     1       0.166   0.306  23.517  0.00  0.00    -0.004 A 
ATOM     30  C   UNL     1      -0.162  -0.446  23.590  0.00  0.00    -0.000 A 
ATOM     31  C   UNL     1      -0.532  -0.669  24.294  0.00  0.00    -0.000 A 
ATOM     32  C   UNL     1      -0.572  -0.137  24.923  0.00  0.00    -0.000 A 
ATOM     33  C   UNL     1      -0.243   0.616  24.849  0.00  0.00    -0.004 A 
ENDBRANCH  27  28
ENDBRANCH  25  27
ENDBRANCH  23  24
TORSDOF 6
ENDMDL
MODEL 8
REMARK VINA RESULT:     -14.2      1.232      3.538
REMARK  Name = 
REMARK  6 active torsions:
REMARK  status: ('A' for Active; 'I' for Inactive)
REMARK    1  A    between atoms: C_2  and  C_5
REMARK    2  A    between atoms: C_9  and  S_11
REMARK    3  A    between atoms: S_11  and  N_14
REMARK    4  A    between atoms: C_23  and  N_24
REMARK    5  A    between atoms: C_25  and  C_27
REMARK    6  A    between atoms: C_27  and  C_28
REMARK                            x       y       z     vdW  Elec       q    Type
REMARK                         _______ _______ _______ _____ _____    ______ ____
ROOT
ATOM     14  N   UNL     1      -1.078   1.578  24.751  0.00  0.00    -0.155 NA
ATOM     15  C   UNL     1      -0.327   1.302  24.992  0.00  0.00    +0.098 C 
ATOM     16  C   UNL     1      -0.104   1.992  25.663  0.00  0.00    +0.041 C 
ATOM     17  C   UNL     1       0.223   2.472  26.234  0.00  0.00    +0.011 C 
ATOM     18  C   UNL     1      -0.367   2.445  25.855  0.00  0.00    +0.056 C 
ATOM     19  C   UNL     1      -0.568   1.770  25.209  0.00  0.00    +0.102 C 
ATOM     20  C   UNL     1      -1.159   2.891  25.722  0.00  0.00    +0.041 A 
ATOM     21  C   UNL     1      -1.573   3.553  25.986  0.00  0.00    +0.014 A 
ATOM     22  C   UNL     1      -2.316   3.728  25.671  0.00  0.00    +0.023 A 
ATOM     23  C   UNL     1      -2.644   3.239  25.093  0.00  0.00    +0.129 A 
ATOM     34  C   UNL     1      -2.230   2.577  24.829  0.00  0.00    +0.276 A 
ATOM     35  O   UNL     1      -2.577   1.984  24.158  0.00  0.00    -0.266 OA
ATOM     36  N   UNL     1      -1.488   2.402  25.143  0.00  0.00    -0.298 N 
ATOM     37  C   UNL     1      -0.934   2.451  25.517  0.00  0.00    +0.110 C 
ENDROOT
BRANCH  14  11
ATOM     11  S   UNL     1      -1.766   1.466  24.247  0.00  0.00    +0.063 S 
ATOM     12  O   UNL     1      -2.390   1.767  23.698  0.00  0.00    -0.153 OA
ATOM     13  O   UNL     1      -1.759   2.331  24.052  0.00  0.00    -0.153 OA
BRANCH  11   9
ATOM      5  C   UNL     1      -2.047  -0.569  25.358  0.00  0.00    +0.073 A 
ATOM      6  C   UNL     1      -1.462  -0.952  25.209  0.00  0.00    +0.004 A 
ATOM      7  C   UNL     1      -0.790  -0.624  24.678  0.00  0.00    +0.001 A 
ATOM      8  C   UNL     1      -0.916   0.034  24.441  0.00  0.00    +0.020 A 
ATOM      9  C   UNL     1      -1.602   0.548  24.585  0.00  0.00    +0.122 A 
ATOM     10  C   UNL     1      -2.169   0.195  25.069  0.00  0.00    +0.024 A 
BRANCH   5   2
ATOM      1  F   UNL     1      -3.534  -1.349  26.045  0.00  0.00    -0.166 F 
ATOM      2  C   UNL     1      -2.696  -0.965  25.909  0.00  0.00    +0.419 C 
ATOM      3  F   UNL     1      -3.128  -0.950  25.026  0.00  0.00    -0.166 F 
ATOM      4  F   UNL     1      -2.027  -0.813  26.492  0.00  0.00    -0.166 F 
ENDBRANCH   5   2
ENDBRANCH  11   9
ENDBRANCH  14  11
BRANCH  23  24
ATOM     24  N   UNL     1      -3.525   3.378  24.666  0.00  0.00    -0.174 NA
ATOM     25  C   UNL     1      -4.374   3.603  25.207  0.00  0.00    +0.250 C 
ATOM     26  O   UNL     1      -4.513   3.716  26.076  0.00  0.00    -0.273 OA
BRANCH  25  27
ATOM     27  C   UNL     1      -5.154   3.722  24.788  0.00  0.00    +0.113 C 
BRANCH  27  28
ATOM     28  C   UNL     1      -5.331   3.042  25.203  0.00  0.00    -0.013 A 
ATOM     29  C   UNL     1      -5.694   2.576  24.628  0.00  0.00    -0.004 A 
ATOM     30  C   UNL     1      -5.967   1.822  24.820  0.00  0.00    -0.000 A 
ATOM     31  C   UNL     1      -5.877   1.533  25.588  0.00  0.00    -0.000 A 
ATOM     32  C   UNL     1      -5.513   2.000  26.164  0.00  0.00    -0.000 A 
ATOM     33  C   UNL     1      -5.241   2.754  25.971  0.00  0.00    -0.004 A 
ENDBRANCH  27  28
ENDBRANCH  25  27
ENDBRANCH  23  24
TORSDOF 6
ENDMDL
MODEL 9
REMARK VINA RESULT:     -14.0      1.934      3.724
REMARK  Name = 
REMARK  6 active torsions:
REMARK  status: ('A' for Active; 'I' for Inactive)
REMARK    1  A    between atoms: C_2  and  C_5
REMARK    2  A    between atoms: C_9  and  S_11
REMARK    3  A    between atoms: S_11  and  N_14
REMARK    4  A    between atoms: C_23  and  N_24
REMARK    5  A    between atoms: C_25  and  C_27
REMARK    6  A    between atoms: C_27  and  C_28
REMARK                            x       y       z     vdW  Elec       q    Type
REMARK                         _______ _______ _______ _____ _____    ______ ____
ROOT
ATOM     14  N   UNL     1      -2.561  -1.512  25.166  0.00  0.00    -0.155 NA
ATOM     15  C   UNL     1      -2.309  -2.267  24.914  0.00  0.00    +0.098 C 
ATOM     16  C   UNL     1      -3.057  -2.499  24.311  0.00  0.00    +0.041 C 
ATOM     17  C   UNL     1      -3.587  -2.834  23.791  0.00  0.00    +0.011 C 
ATOM     18  C   UNL     1      -3.525  -2.238  24.156  0.00  0.00    +0.056 C 
ATOM     19  C   UNL     1      -2.795  -2.028  24.735  0.00  0.00    +0.102 C 
ATOM     20  C   UNL     1      -3.956  -1.442  24.317  0.00  0.00    +0.041 A 
ATOM     21  C   UNL     1      -4.640  -1.031  24.107  0.00  0.00    +0.014 A 
ATOM     22  C   UNL     1      -4.784  -0.283  24.424  0.00  0.00    +0.023 A 
ATOM     23  C   UNL     1      -4.245   0.053  24.950  0.00  0.00    +0.129 A 
ATOM     34  C   UNL     1      -3.562  -0.358  25.160  0.00  0.00    +0.276 A 
ATOM     35  O   UNL     1      -2.911  -0.002  25.769  0.00  0.00    -0.266 OA
ATOM     36  N   UNL     1      -3.418  -1.106  24.843  0.00  0.00    -0.298 N 
ATOM     37  C   UNL     1      -3.501  -1.665  24.485  0.00  0.00    +0.110 C 
ENDROOT
BRANCH  14  11
ATOM     11  S   UNL     1      -2.404  -0.815  25.647  0.00  0.00    +0.063 S 
ATOM     12  O   UNL     1      -2.656  -0.176  26.203  0.00  0.00    -0.153 OA
ATOM     13  O   UNL     1      -3.253  -0.804  25.901  0.00  0.00    -0.153 OA
BRANCH  11   9
ATOM      5  C   UNL     1      -0.452  -0.596  24.384  0.00  0.00    +0.073 A 
ATOM      6  C   UNL     1      -0.065  -1.181  24.524  0.00  0.00    +0.004 A 
ATOM      7  C   UNL     1      -0.361  -1.831  25.099  0.00  0.00    +0.001 A 
ATOM      8  C   UNL     1      -0.999  -1.689  25.379  0.00  0.00    +0.020 A 
ATOM      9  C   UNL     1      -1.514  -1.001  25.249  0.00  0.00    +0.122 A 
ATOM     10  C   UNL     1      -1.191  -0.455  24.723  0.00  0.00    +0.024 A 
BRANCH   5   2
ATOM      1  F   UNL     1       0.237   0.880  23.583  0.00  0.00    -0.166 F 
ATOM      2  C   UNL     1      -0.089   0.031  23.786  0.00  0.00    +0.419 C 
ATOM      3  F   UNL     1      -0.158   0.536  24.627  0.00  0.00    -0.166 F 
ATOM      4  F   UNL     1      -0.176  -0.696  23.262  0.00  0.00    -0.166 F 
ENDBRANCH   5   2
ENDBRANCH  11   9
ENDBRANCH  14  11
BRANCH  23  24
ATOM     24  N   UNL     1      -4.344   0.941  25.373  0.00  0.00    -0.174 NA
ATOM     25  C   UNL     1      -4.649   1.775  24.849  0.00  0.00    +0.250 C 
ATOM     26  O   UNL     1      -4.872   1.894  23.998  0.00  0.00    -0.273 OA
BRANCH  25  27
ATOM     27  C   UNL     1      -4.727   2.562  25.264  0.00  0.00    +0.113 C 
BRANCH  27  28
ATOM     28  C   UNL     1      -4.074   2.722  24.803  0.00  0.00    -0.013 A 
ATOM     29  C   UNL     1      -3.605   3.169  25.314  0.00  0.00    -0.004 A 
ATOM     30  C   UNL     1      -2.874   3.452  25.061  0.00  0.00    -0.000 A 
ATOM     31  C   UNL     1      -2.609   3.289  24.296  0.00  0.00    -0.000 A 
ATOM     32  C   UNL     1      -3.078   2.842  23.785  0.00  0.00    -0.000 A 
ATOM     33  C   UNL     1      -3.810   2.559  24.038  0.00  0.00    -0.004 A 
ENDBRANCH  27  28
ENDBRANCH  25  27
ENDBRANCH  23  24
TORSDOF 6
ENDMDL
MODEL 10
REMARK VINA RESULT:     -13.5      1.797      4.157
REMARK  Name = 
REMARK  6 active torsions:
REMARK  status: ('A' for Active; 'I' for Inactive)
REMARK    1  A    between atoms: C_2  and  C_5
REMARK    2  A    between atoms: C_9  and  S_11
REMARK    3  A    between atoms: S_11  and  N_14
REMARK    4  A    between atoms: C_23  and  N_24
REMARK    5  A    between atoms: C_25  and  C_27
REMARK    6  A    between atoms: C_27  and  C_28
REMARK                            x       y       z     vdW  Elec       q    Type
REMARK                         _______ _______ _______ _____ _____    ______ ____
ROOT
ATOM     14  N   UNL     1      -1.399   0.309  24.423  0.00  0.00    -0.155 NA
ATOM     15  C   UNL     1      -0.677  -0.059  24.626  0.00  0.00    +0.098 C 
ATOM     16  C   UNL     1      -1.010  -0.742  25.257  0.00  0.00    +0.041 C 
ATOM     17  C   UNL     1      -1.121  -1.348  25.790  0.00  0.00    +0.011 C 
ATOM     18  C   UNL     1      -1.515  -0.878  25.450  0.00  0.00    +0.056 C 
ATOM     19  C   UNL     1      -1.178  -0.223  24.842  0.00  0.00    +0.102 C 
ATOM     20  C   UNL     1      -2.388  -0.605  25.351  0.00  0.00    +0.041 A 
ATOM     21  C   UNL     1      -3.148  -0.782  25.618  0.00  0.00    +0.014 A 
ATOM     22  C   UNL     1      -3.792  -0.345  25.345  0.00  0.00    +0.023 A 
ATOM     23  C   UNL     1      -3.676   0.268  24.806  0.00  0.00    +0.129 A 
ATOM     34  C   UNL     1      -2.916   0.445  24.539  0.00  0.00    +0.276 A 
ATOM     35  O   UNL     1      -2.739   1.151  23.913  0.00  0.00    -0.266 OA
ATOM     36  N   UNL     1      -2.272   0.009  24.812  0.00  0.00    -0.298 N 
ATOM     37  C   UNL     1      -1.918  -0.450  25.148  0.00  0.00    +0.110 C 
ENDROOT
BRANCH  14  11
ATOM     11  S   UNL     1      -1.803   0.917  23.968  0.00  0.00    +0.063 S 
ATOM     12  O   UNL     1      -2.461   1.197  23.448  0.00  0.00    -0.153 OA
ATOM     13  O   UNL     1      -2.427   0.329  23.742  0.00  0.00    -0.153 OA
BRANCH  11   9
ATOM      5  C   UNL     1      -0.509   2.449  25.164  0.00  0.00    +0.073 A 
ATOM      6  C   UNL     1       0.170   2.301  24.996  0.00  0.00    +0.004 A 
ATOM      7  C   UNL     1       0.388   1.625  24.417  0.00  0.00    +0.001 A 
ATOM      8  C   UNL     1      -0.178   1.278  24.164  0.00  0.00    +0.020 A 
ATOM      9  C   UNL     1      -1.021   1.409  24.329  0.00  0.00    +0.122 A 
ATOM     10  C   UNL     1      -1.150   2.030  24.856  0.00  0.00    +0.024 A 
BRANCH   5   2
ATOM      1  F   UNL     1      -0.949   4.020  25.960  0.00  0.00    -0.166 F 
ATOM      2  C   UNL     1      -0.662   3.155  25.765  0.00  0.00    +0.419 C 
ATOM      3  F   UNL     1      -0.958   3.524  24.903  0.00  0.00    -0.166 F 
ATOM      4  F   UNL     1      -0.326   2.521  26.308  0.00  0.00    -0.166 F 
ENDBRANCH   5   2
ENDBRANCH  11   9
ENDBRANCH  14  11
BRANCH  23  24
ATOM     24  N   UNL     1      -4.393   0.837  24.431  0.00  0.00    -0.174 NA
ATOM     25  C   UNL     1      -5.112   1.284  25.020  0.00  0.00    +0.250 C 
ATOM     26  O   UNL     1      -5.254   1.273  25.896  0.00  0.00    -0.273 OA
BRANCH  25  27
ATOM     27  C   UNL     1      -5.744   1.792  24.647  0.00  0.00    +0.113 C 
BRANCH  27  28
ATOM     28  C   UNL     1      -5.340   2.369  25.059  0.00  0.00    -0.013 A 
ATOM     29  C   UNL     1      -5.235   2.952  24.486  0.00  0.00    -0.004 A 
ATOM     30  C   UNL     1      -4.841   3.650  24.675  0.00  0.00    -0.000 A 
ATOM     31  C   UNL     1      -4.551   3.767  25.439  0.00  0.00    -0.000 A 
ATOM     32  C   UNL     1      -4.656   3.184  26.013  0.00  0.00    -0.000 A 
ATOM     33  C   UNL     1      -5.051   2.485  25.823  0.00  0.00    -0.004 A 
ENDBRANCH  27  28
ENDBRANCH  25  27
ENDBRANCH  23  24
TORSDOF 6
ENDMDL
