MODEL 1
REMARK VINA RESULT:      -9.9      0.000      0.000
REMARK  Name = 
REMARK  9 active torsions:
REMARK  status: ('A' for Active; 'I' for Inactive)
REMARK    1  A    between atoms: C_2  and  C_4
REMARK    2  A    between atoms: C_6  and  C_7
REMARK    3  A    between atoms: C_7  and  C_8
REMARK    4  A    between atoms: C_21  and  C_22
REMARK    5  A    between atoms: C_22  and  N_23
REMARK    6  A    between atoms: C_24  and  C_26
REMARK    7  A    between atoms: C_26  and  C_27
REMARK    8  A    between atoms: C_27  and  C_28
REMARK    9  A    between atoms: C_28  and  C_29
REMARK                            x       y       z     vdW  Elec       q    Type
REMARK                         _______ _______ _______ _____ _____    ______ ____
ROOT
ATOM      4  C   UNL     1      -1.487   1.565  24.547  0.00  0.00    +0.006 C 
ATOM      5  C   UNL     1      -2.127   2.079  24.468  0.00  0.00    +0.005 C 
ATOM      6  C   UNL     1      -2.460   2.210  23.725  0.00  0.00    +0.026 C 
ATOM     18  C   UNL     1      -2.153   1.829  23.061  0.00  0.00    -0.048 C 
ATOM     19  C   UNL     1      -2.487   1.960  22.318  0.00  0.00    +0.026 C 
ATOM     20  C   UNL     1      -1.513   1.315  23.141  0.00  0.00    -0.033 C 
ATOM     21  C   UNL     1      -1.179   1.183  23.884  0.00  0.00    +0.043 C 
ENDROOT
BRANCH   4   2
ATOM      1  C   UNL     1      -1.354   0.758  25.719  0.00  0.00    +0.000 C 
ATOM      2  C   UNL     1      -1.153   1.434  25.290  0.00  0.00    +0.000 C 
ATOM      3  C   UNL     1      -0.618   1.977  25.605  0.00  0.00    +0.000 C 
ENDBRANCH   4   2
BRANCH   6   7
ATOM      7  C   UNL     1      -3.101   2.724  23.645  0.00  0.00    +0.070 C 
BRANCH   7   8
ATOM      8  C   UNL     1      -3.736   2.677  24.170  0.00  0.00    +0.139 A 
ATOM      9  N   UNL     1      -3.938   3.241  24.739  0.00  0.00    -0.229 NA
ATOM     10  C   UNL     1      -4.607   2.970  25.139  0.00  0.00    +0.100 A 
ATOM     11  C   UNL     1      -4.818   2.240  24.819  0.00  0.00    +0.096 A 
ATOM     12  N   UNL     1      -4.280   2.059  24.220  0.00  0.00    -0.230 NA
ATOM     13  C   UNL     1      -5.473   1.834  25.113  0.00  0.00    -0.003 A 
ATOM     14  C   UNL     1      -5.684   1.104  24.792  0.00  0.00    +0.033 C 
ATOM     15  C   UNL     1      -5.916   2.159  25.728  0.00  0.00    -0.003 A 
ATOM     16  C   UNL     1      -5.705   2.889  26.048  0.00  0.00    +0.001 A 
ATOM     17  C   UNL     1      -5.050   3.294  25.754  0.00  0.00    +0.021 A 
ENDBRANCH   7   8
ENDBRANCH   6   7
BRANCH  21  22
ATOM     22  C   UNL     1      -0.539   0.669  23.963  0.00  0.00    +0.119 C 
BRANCH  22  23
ATOM     23  N   UNL     1       0.069   0.678  23.406  0.00  0.00    -0.205 NA
ATOM     24  C   UNL     1       0.558   0.020  23.316  0.00  0.00    +0.241 C 
ATOM     25  O   UNL     1       0.438  -0.649  23.785  0.00  0.00    -0.273 OA
BRANCH  24  26
ATOM     26  C   UNL     1       1.165   0.029  22.759  0.00  0.00    +0.087 C 
BRANCH  26  27
ATOM     27  C   UNL     1       1.946   0.143  23.001  0.00  0.00    +0.021 C 
BRANCH  27  28
ATOM     28  C   UNL     1       2.551   0.171  22.442  0.00  0.00    +0.115 C 
BRANCH  28  29
ATOM     29  C   UNL     1       3.318   0.372  22.672  0.00  0.00    +0.365 C 
ATOM     30  O   UNL     1       3.530   1.164  22.753  0.00  0.00    -0.246 OA
ATOM     31  O   UNL     1       3.872  -0.221  22.821  0.00  0.00    -0.246 OA
ENDBRANCH  28  29
ENDBRANCH  27  28
ENDBRANCH  26  27
ENDBRANCH  24  26
ENDBRANCH  22  23
ENDBRANCH  21  22
TORSDOF 9
ENDMDL
MODEL 2
REMARK VINA RESULT:      -9.9      3.064      4.910
REMARK  Name = 
REMARK  9 active torsions:
REMARK  status: ('A' for Active; 'I' for Inactive)
REMARK    1  A    between atoms: C_2  and  C_4
REMARK    2  A    between atoms: C_6  and  C_7
REMARK    3  A    between atoms: C_7  and  C_8
REMARK    4  A    between atoms: C_21  and  C_22
REMARK    5  A    between atoms: C_22  and  N_23
REMARK    6  A    between atoms: C_24  and  C_26
REMARK    7  A    between atoms: C_26  and  C_27
REMARK    8  A    between atoms: C_27  and  C_28
REMARK    9  A    between atoms: C_28  and  C_29
REMARK                            x       y       z     vdW  Elec       q    Type
REMARK                         _______ _______ _______ _____ _____    ______ ____
ROOT
ATOM      4  C   UNL     1      -4.531   1.511  24.721  0.00  0.00    +0.006 C 
ATOM      5  C   UNL     1      -4.426   0.836  24.259  0.00  0.00    +0.005 C 
ATOM      6  C   UNL     1      -3.757   0.763  23.781  0.00  0.00    +0.026 C 
ATOM     18  C   UNL     1      -3.193   1.365  23.765  0.00  0.00    -0.048 C 
ATOM     19  C   UNL     1      -2.525   1.293  23.287  0.00  0.00    +0.026 C 
ATOM     20  C   UNL     1      -3.299   2.040  24.228  0.00  0.00    -0.033 C 
ATOM     21  C   UNL     1      -3.968   2.113  24.705  0.00  0.00    +0.043 C 
ENDROOT
BRANCH   4   2
ATOM      1  C   UNL     1      -5.202   1.258  25.957  0.00  0.00    +0.000 C 
ATOM      2  C   UNL     1      -5.199   1.583  25.199  0.00  0.00    +0.000 C 
ATOM      3  C   UNL     1      -5.865   1.981  24.919  0.00  0.00    +0.000 C 
ENDBRANCH   4   2
BRANCH   6   7
ATOM      7  C   UNL     1      -3.652   0.088  23.318  0.00  0.00    +0.070 C 
BRANCH   7   8
ATOM      8  C   UNL     1      -3.569  -0.650  23.678  0.00  0.00    +0.139 A 
ATOM      9  N   UNL     1      -4.125  -1.260  23.668  0.00  0.00    -0.229 NA
ATOM     10  C   UNL     1      -3.815  -1.895  24.095  0.00  0.00    +0.100 A 
ATOM     11  C   UNL     1      -3.068  -1.677  24.369  0.00  0.00    +0.096 A 
ATOM     12  N   UNL     1      -2.916  -0.908  24.111  0.00  0.00    -0.230 NA
ATOM     13  C   UNL     1      -2.622  -2.207  24.817  0.00  0.00    -0.003 A 
ATOM     14  C   UNL     1      -1.874  -1.989  25.091  0.00  0.00    +0.033 C 
ATOM     15  C   UNL     1      -2.924  -2.954  24.991  0.00  0.00    -0.003 A 
ATOM     16  C   UNL     1      -3.671  -3.172  24.718  0.00  0.00    +0.001 A 
ATOM     17  C   UNL     1      -4.116  -2.642  24.270  0.00  0.00    +0.021 A 
ENDBRANCH   7   8
ENDBRANCH   6   7
BRANCH  21  22
ATOM     22  C   UNL     1      -4.072   2.788  25.168  0.00  0.00    +0.119 C 
BRANCH  22  23
ATOM     23  N   UNL     1      -3.580   3.441  25.062  0.00  0.00    -0.205 NA
ATOM     24  C   UNL     1      -3.439   3.958  25.690  0.00  0.00    +0.241 C 
ATOM     25  O   UNL     1      -3.790   3.821  26.424  0.00  0.00    -0.273 OA
BRANCH  24  26
ATOM     26  C   UNL     1      -2.946   4.611  25.584  0.00  0.00    +0.087 C 
BRANCH  26  27
ATOM     27  C   UNL     1      -2.129   4.508  25.535  0.00  0.00    +0.021 C 
BRANCH  27  28
ATOM     28  C   UNL     1      -1.650   5.129  25.281  0.00  0.00    +0.115 C 
BRANCH  28  29
ATOM     29  C   UNL     1      -0.880   4.978  25.024  0.00  0.00    +0.365 C 
ATOM     30  O   UNL     1      -0.480   5.538  24.570  0.00  0.00    -0.246 OA
ATOM     31  O   UNL     1      -0.512   4.267  25.221  0.00  0.00    -0.246 OA
ENDBRANCH  28  29
ENDBRANCH  27  28
ENDBRANCH  26  27
ENDBRANCH  24  26
ENDBRANCH  22  23
ENDBRANCH  21  22
TORSDOF 9
ENDMDL
MODEL 3
REMARK VINA RESULT:      -9.4      2.622      4.253
REMARK  Name = 
REMARK  9 active torsions:
REMARK  status: ('A' for Active; 'I' for Inactive)
REMARK    1  A    between atoms: C_2  and  C_4
REMARK    2  A    between atoms: C_6  and  C_7
REMARK    3  A    between atoms: C_7  and  C_8
REMARK    4  A    between atoms: C_21  and  C_22
REMARK    5  A    between atoms: C_22  and  N_23
REMARK    6  A    between atoms: C_24  and  C_26
REMARK    7  A    between atoms: C_26  and  C_27
REMARK    8  A    between atoms: C_27  and  C_28
REMARK    9  A    between atoms: C_28  and  C_29
REMARK                            x       y       z     vdW  Elec       q    Type
REMARK                         _______ _______ _______ _____ _____    ______ ____
ROOT
ATOM      4  C   UNL     1      -3.258   1.731  23.720  0.00  0.00    +0.006 C 
ATOM      5  C   UNL     1      -3.766   1.082  23.754  0.00  0.00    +0.005 C 
ATOM      6  C   UNL     1      -4.311   1.018  24.370  0.00  0.00    +0.026 C 
ATOM     18  C   UNL     1      -4.349   1.602  24.951  0.00  0.00    -0.048 C 
ATOM     19  C   UNL     1      -4.894   1.537  25.567  0.00  0.00    +0.026 C 
ATOM     20  C   UNL     1      -3.840   2.250  24.916  0.00  0.00    -0.033 C 
ATOM     21  C   UNL     1      -3.295   2.315  24.301  0.00  0.00    +0.043 C 
ENDROOT
BRANCH   4   2
ATOM      1  C   UNL     1      -1.989   1.402  23.150  0.00  0.00    +0.000 C 
ATOM      2  C   UNL     1      -2.713   1.795  23.104  0.00  0.00    +0.000 C 
ATOM      3  C   UNL     1      -2.890   2.253  22.442  0.00  0.00    +0.000 C 
ENDBRANCH   4   2
BRANCH   6   7
ATOM      7  C   UNL     1      -4.820   0.368  24.405  0.00  0.00    +0.070 C 
BRANCH   7   8
ATOM      8  C   UNL     1      -4.511  -0.396  24.437  0.00  0.00    +0.139 A 
ATOM      9  N   UNL     1      -4.584  -0.974  23.851  0.00  0.00    -0.229 NA
ATOM     10  C   UNL     1      -4.193  -1.652  24.112  0.00  0.00    +0.100 A 
ATOM     11  C   UNL     1      -3.879  -1.494  24.859  0.00  0.00    +0.096 A 
ATOM     12  N   UNL     1      -4.076  -0.718  25.059  0.00  0.00    -0.230 NA
ATOM     13  C   UNL     1      -3.455  -2.077  25.260  0.00  0.00    -0.003 A 
ATOM     14  C   UNL     1      -3.141  -1.919  26.006  0.00  0.00    +0.033 C 
ATOM     15  C   UNL     1      -3.346  -2.818  24.914  0.00  0.00    -0.003 A 
ATOM     16  C   UNL     1      -3.660  -2.975  24.167  0.00  0.00    +0.001 A 
ATOM     17  C   UNL     1      -4.083  -2.393  23.767  0.00  0.00    +0.021 A 
ENDBRANCH   7   8
ENDBRANCH   6   7
BRANCH  21  22
ATOM     22  C   UNL     1      -2.787   2.964  24.267  0.00  0.00    +0.119 C 
BRANCH  22  23
ATOM     23  N   UNL     1      -2.208   3.066  24.845  0.00  0.00    -0.205 NA
ATOM     24  C   UNL     1      -1.916   3.821  25.009  0.00  0.00    +0.241 C 
ATOM     25  O   UNL     1      -2.204   4.473  24.594  0.00  0.00    -0.273 OA
BRANCH  24  26
ATOM     26  C   UNL     1      -1.337   3.923  25.587  0.00  0.00    +0.087 C 
BRANCH  26  27
ATOM     27  C   UNL     1      -0.651   3.465  25.570  0.00  0.00    +0.021 C 
BRANCH  27  28
ATOM     28  C   UNL     1      -0.383   3.099  26.258  0.00  0.00    +0.115 C 
BRANCH  28  29
ATOM     29  C   UNL     1       0.326   2.676  26.252  0.00  0.00    +0.365 C 
ATOM     30  O   UNL     1       0.811   2.674  26.918  0.00  0.00    -0.246 OA
ATOM     31  O   UNL     1       0.549   2.256  25.578  0.00  0.00    -0.246 OA
ENDBRANCH  28  29
ENDBRANCH  27  28
ENDBRANCH  26  27
ENDBRANCH  24  26
ENDBRANCH  22  23
ENDBRANCH  21  22
TORSDOF 9
ENDMDL
MODEL 4
REMARK VINA RESULT:      -9.0      1.269      1.571
REMARK  Name = 
REMARK  9 active torsions:
REMARK  status: ('A' for Active; 'I' for Inactive)
REMARK    1  A    between atoms: C_2  and  C_4
REMARK    2  A    between atoms: C_6  and  C_7
REMARK    3  A    between atoms: C_7  and  C_8
REMARK    4  A    between atoms: C_21  and  C_22
REMARK    5  A    between atoms: C_22  and  N_23
REMARK    6  A    between atoms: C_24  and  C_26
REMARK    7  A    between atoms: C_26  and  C_27
REMARK    8  A    between atoms: C_27  and  C_28
REMARK    9  A    between atoms: C_28  and  C_29
REMARK                            x       y       z     vdW  Elec       q    Type
REMARK                         _______ _______ _______ _____ _____    ______ ____
ROOT
ATOM      4  C   UNL     1      -1.100   1.160  24.922  0.00  0.00    +0.006 C 
ATOM      5  C   UNL     1      -1.459   1.823  25.256  0.00  0.00    +0.005 C 
ATOM      6  C   UNL     1      -1.177   2.577  25.079  0.00  0.00    +0.026 C 
ATOM     18  C   UNL     1      -0.536   2.669  24.568  0.00  0.00    -0.048 C 
ATOM     19  C   UNL     1      -0.254   3.424  24.391  0.00  0.00    +0.026 C 
ATOM     20  C   UNL     1      -0.178   2.005  24.234  0.00  0.00    -0.033 C 
ATOM     21  C   UNL     1      -0.460   1.250  24.411  0.00  0.00    +0.043 C 
ENDROOT
BRANCH   4   2
ATOM      1  C   UNL     1      -1.959   0.057  24.622  0.00  0.00    +0.000 C 
ATOM      2  C   UNL     1      -1.383   0.405  25.099  0.00  0.00    +0.000 C 
ATOM      3  C   UNL     1      -1.090  -0.003  25.754  0.00  0.00    +0.000 C 
ENDBRANCH   4   2
BRANCH   6   7
ATOM      7  C   UNL     1      -1.536   3.241  25.413  0.00  0.00    +0.070 C 
BRANCH   7   8
ATOM      8  C   UNL     1      -2.354   3.335  25.368  0.00  0.00    +0.139 A 
ATOM      9  N   UNL     1      -2.872   3.392  26.008  0.00  0.00    -0.229 NA
ATOM     10  C   UNL     1      -3.637   3.480  25.710  0.00  0.00    +0.100 A 
ATOM     11  C   UNL     1      -3.591   3.478  24.886  0.00  0.00    +0.096 A 
ATOM     12  N   UNL     1      -2.798   3.389  24.675  0.00  0.00    -0.230 NA
ATOM     13  C   UNL     1      -4.277   3.558  24.435  0.00  0.00    -0.003 A 
ATOM     14  C   UNL     1      -4.231   3.556  23.611  0.00  0.00    +0.033 C 
ATOM     15  C   UNL     1      -5.008   3.640  24.808  0.00  0.00    -0.003 A 
ATOM     16  C   UNL     1      -5.053   3.642  25.631  0.00  0.00    +0.001 A 
ATOM     17  C   UNL     1      -4.368   3.562  26.082  0.00  0.00    +0.021 A 
ENDBRANCH   7   8
ENDBRANCH   6   7
BRANCH  21  22
ATOM     22  C   UNL     1      -0.101   0.587  24.077  0.00  0.00    +0.119 C 
BRANCH  22  23
ATOM     23  N   UNL     1       0.507   0.680  23.527  0.00  0.00    -0.205 NA
ATOM     24  C   UNL     1       0.890   0.017  23.219  0.00  0.00    +0.241 C 
ATOM     25  O   UNL     1       0.664  -0.739  23.461  0.00  0.00    -0.273 OA
BRANCH  24  26
ATOM     26  C   UNL     1       1.498   0.109  22.670  0.00  0.00    +0.087 C 
BRANCH  26  27
ATOM     27  C   UNL     1       2.285   0.079  22.915  0.00  0.00    +0.021 C 
BRANCH  27  28
ATOM     28  C   UNL     1       2.888   0.292  22.395  0.00  0.00    +0.115 C 
BRANCH  28  29
ATOM     29  C   UNL     1       3.644   0.455  22.683  0.00  0.00    +0.365 C 
ATOM     30  O   UNL     1       3.925   1.230  22.690  0.00  0.00    -0.246 OA
ATOM     31  O   UNL     1       4.119  -0.158  22.965  0.00  0.00    -0.246 OA
ENDBRANCH  28  29
ENDBRANCH  27  28
ENDBRANCH  26  27
ENDBRANCH  24  26
ENDBRANCH  22  23
ENDBRANCH  21  22
TORSDOF 9
ENDMDL
MODEL 5
REMARK VINA RESULT:      -8.7      2.784      4.131
REMARK  Name = 
REMARK  9 active torsions:
REMARK  status: ('A' for Active; 'I' for Inactive)
REMARK    1  A    between atoms: C_2  and  C_4
REMARK    2  A    between atoms: C_6  and  C_7
REMARK    3  A    between atoms: C_7  and  C_8
REMARK    4  A    between atoms: C_21  and  C_22
REMARK    5  A    between atoms: C_22  and  N_23
REMARK    6  A    between atoms: C_24  and  C_26
REMARK    7  A    between atoms: C_26  and  C_27
REMARK    8  A    between atoms: C_27  and  C_28
REMARK    9  A    between atoms: C_28  and  C_29
REMARK                            x       y       z     vdW  Elec       q    Type
REMARK                         _______ _______ _______ _____ _____    ______ ____
ROOT
ATOM      4  C   UNL     1      -4.476   1.335  24.493  0.00  0.00    +0.006 C 
ATOM      5  C   UNL     1      -4.166   2.048  24.219  0.00  0.00    +0.005 C 
ATOM      6  C   UNL     1      -3.555   2.047  23.664  0.00  0.00    +0.026 C 
ATOM     18  C   UNL     1      -3.254   1.332  23.383  0.00  0.00    -0.048 C 
ATOM     19  C   UNL     1      -2.644   1.330  22.828  0.00  0.00    +0.026 C 
ATOM     20  C   UNL     1      -3.565   0.619  23.658  0.00  0.00    -0.033 C 
ATOM     21  C   UNL     1      -4.175   0.620  24.212  0.00  0.00    +0.043 C 
ENDROOT
BRANCH   4   2
ATOM      1  C   UNL     1      -4.913   1.293  25.853  0.00  0.00    +0.000 C 
ATOM      2  C   UNL     1      -5.086   1.337  25.047  0.00  0.00    +0.000 C 
ATOM      3  C   UNL     1      -5.871   1.382  24.797  0.00  0.00    +0.000 C 
ENDBRANCH   4   2
BRANCH   6   7
ATOM      7  C   UNL     1      -3.245   2.761  23.390  0.00  0.00    +0.070 C 
BRANCH   7   8
ATOM      8  C   UNL     1      -2.806   3.242  23.896  0.00  0.00    +0.139 A 
ATOM      9  N   UNL     1      -3.073   3.932  24.263  0.00  0.00    -0.229 NA
ATOM     10  C   UNL     1      -2.454   4.234  24.718  0.00  0.00    +0.100 A 
ATOM     11  C   UNL     1      -1.806   3.731  24.633  0.00  0.00    +0.096 A 
ATOM     12  N   UNL     1      -2.023   3.118  24.125  0.00  0.00    -0.230 NA
ATOM     13  C   UNL     1      -1.101   3.896  25.029  0.00  0.00    -0.003 A 
ATOM     14  C   UNL     1      -0.452   3.393  24.944  0.00  0.00    +0.033 C 
ATOM     15  C   UNL     1      -1.046   4.563  25.510  0.00  0.00    -0.003 A 
ATOM     16  C   UNL     1      -1.695   5.066  25.595  0.00  0.00    +0.001 A 
ATOM     17  C   UNL     1      -2.398   4.901  25.199  0.00  0.00    +0.021 A 
ENDBRANCH   7   8
ENDBRANCH   6   7
BRANCH  21  22
ATOM     22  C   UNL     1      -4.485  -0.094  24.486  0.00  0.00    +0.119 C 
BRANCH  22  23
ATOM     23  N   UNL     1      -3.982  -0.674  24.787  0.00  0.00    -0.205 NA
ATOM     24  C   UNL     1      -4.106  -1.467  24.596  0.00  0.00    +0.241 C 
ATOM     25  O   UNL     1      -4.734  -1.680  24.105  0.00  0.00    -0.273 OA
BRANCH  24  26
ATOM     26  C   UNL     1      -3.603  -2.047  24.897  0.00  0.00    +0.087 C 
BRANCH  26  27
ATOM     27  C   UNL     1      -2.916  -2.250  24.488  0.00  0.00    +0.021 C 
BRANCH  27  28
ATOM     28  C   UNL     1      -2.276  -2.576  24.893  0.00  0.00    +0.115 C 
BRANCH  28  29
ATOM     29  C   UNL     1      -1.513  -2.505  24.587  0.00  0.00    +0.365 C 
ATOM     30  O   UNL     1      -1.337  -2.810  23.842  0.00  0.00    -0.246 OA
ATOM     31  O   UNL     1      -0.926  -2.127  25.027  0.00  0.00    -0.246 OA
ENDBRANCH  28  29
ENDBRANCH  27  28
ENDBRANCH  26  27
ENDBRANCH  24  26
ENDBRANCH  22  23
ENDBRANCH  21  22
TORSDOF 9
ENDMDL
MODEL 6
REMARK VINA RESULT:      -8.6      1.590      2.598
REMARK  Name = 
REMARK  9 active torsions:
REMARK  status: ('A' for Active; 'I' for Inactive)
REMARK    1  A    between atoms: C_2  and  C_4
REMARK    2  A    between atoms: C_6  and  C_7
REMARK    3  A    between atoms: C_7  and  C_8
REMARK    4  A    between atoms: C_21  and  C_22
REMARK    5  A    between atoms: C_22  and  N_23
REMARK    6  A    between atoms: C_24  and  C_26
REMARK    7  A    between atoms: C_26  and  C_27
REMARK    8  A    between atoms: C_27  and  C_28
REMARK    9  A    between atoms: C_28  and  C_29
REMARK                            x       y       z     vdW  Elec       q    Type
REMARK                         _______ _______ _______ _____ _____    ______ ____
ROOT
ATOM      4  C   UNL     1      -1.319   2.132  24.452  0.00  0.00    +0.006 C 
ATOM      5  C   UNL     1      -1.946   2.630  24.257  0.00  0.00    +0.005 C 
ATOM      6  C   UNL     1      -2.471   2.416  23.658  0.00  0.00    +0.026 C 
ATOM     18  C   UNL     1      -2.370   1.704  23.254  0.00  0.00    -0.048 C 
ATOM     19  C   UNL     1      -2.895   1.490  22.655  0.00  0.00    +0.026 C 
ATOM     20  C   UNL     1      -1.742   1.206  23.450  0.00  0.00    -0.033 C 
ATOM     21  C   UNL     1      -1.216   1.420  24.049  0.00  0.00    +0.043 C 
ENDROOT
BRANCH   4   2
ATOM      1  C   UNL     1      -0.970   2.170  25.837  0.00  0.00    +0.000 C 
ATOM      2  C   UNL     1      -0.793   2.346  25.051  0.00  0.00    +0.000 C 
ATOM      3  C   UNL     1      -0.091   2.736  24.864  0.00  0.00    +0.000 C 
ENDBRANCH   4   2
BRANCH   6   7
ATOM      7  C   UNL     1      -3.100   2.915  23.462  0.00  0.00    +0.070 C 
BRANCH   7   8
ATOM      8  C   UNL     1      -3.709   3.043  24.003  0.00  0.00    +0.139 A 
ATOM      9  N   UNL     1      -3.833   3.732  24.441  0.00  0.00    -0.229 NA
ATOM     10  C   UNL     1      -4.502   3.619  24.910  0.00  0.00    +0.100 A 
ATOM     11  C   UNL     1      -4.792   2.861  24.763  0.00  0.00    +0.096 A 
ATOM     12  N   UNL     1      -4.302   2.505  24.202  0.00  0.00    -0.230 NA
ATOM     13  C   UNL     1      -5.465   2.592  25.157  0.00  0.00    -0.003 A 
ATOM     14  C   UNL     1      -5.755   1.834  25.010  0.00  0.00    +0.033 C 
ATOM     15  C   UNL     1      -5.847   3.082  25.699  0.00  0.00    -0.003 A 
ATOM     16  C   UNL     1      -5.557   3.841  25.847  0.00  0.00    +0.001 A 
ATOM     17  C   UNL     1      -4.885   4.108  25.452  0.00  0.00    +0.021 A 
ENDBRANCH   7   8
ENDBRANCH   6   7
BRANCH  21  22
ATOM     22  C   UNL     1      -0.589   0.921  24.244  0.00  0.00    +0.119 C 
BRANCH  22  23
ATOM     23  N   UNL     1      -0.738   0.166  24.538  0.00  0.00    -0.205 NA
ATOM     24  C   UNL     1      -0.237  -0.460  24.342  0.00  0.00    +0.241 C 
ATOM     25  O   UNL     1       0.413  -0.330  23.851  0.00  0.00    -0.273 OA
BRANCH  24  26
ATOM     26  C   UNL     1      -0.386  -1.216  24.636  0.00  0.00    +0.087 C 
BRANCH  26  27
ATOM     27  C   UNL     1      -1.014  -1.660  24.335  0.00  0.00    +0.021 C 
BRANCH  27  28
ATOM     28  C   UNL     1      -1.373  -2.236  24.803  0.00  0.00    +0.115 C 
BRANCH  28  29
ATOM     29  C   UNL     1      -2.051  -2.622  24.535  0.00  0.00    +0.365 C 
ATOM     30  O   UNL     1      -2.022  -3.081  23.851  0.00  0.00    -0.246 OA
ATOM     31  O   UNL     1      -2.759  -2.549  24.953  0.00  0.00    -0.246 OA
ENDBRANCH  28  29
ENDBRANCH  27  28
ENDBRANCH  26  27
ENDBRANCH  24  26
ENDBRANCH  22  23
ENDBRANCH  21  22
TORSDOF 9
ENDMDL
