MODEL 1
REMARK VINA RESULT:     -13.9      0.000      0.000
REMARK  Name = 
REMARK  4 active torsions:
REMARK  status: ('A' for Active; 'I' for Inactive)
REMARK    1  A    between atoms: C_2  and  C_3
REMARK    2  A    between atoms: C_3  and  S_4
REMARK    3  A    between atoms: S_4  and  N_7
REMARK    4  A    between atoms: C_16  and  C_21
REMARK                            x       y       z     vdW  Elec       q    Type
REMARK                         _______ _______ _______ _____ _____    ______ ____
ROOT
ATOM      7  N   UNL     1      -2.526   1.767  24.561  0.00  0.00    -0.159 NA
ATOM      8  C   UNL     1      -2.551   2.596  24.459  0.00  0.00    +0.097 C 
ATOM      9  C   UNL     1      -3.528   2.738  24.498  0.00  0.00    +0.041 C 
ATOM     10  C   UNL     1      -4.293   3.018  24.507  0.00  0.00    +0.011 C 
ATOM     11  C   UNL     1      -3.966   2.399  24.565  0.00  0.00    +0.056 C 
ATOM     12  C   UNL     1      -3.020   2.279  24.526  0.00  0.00    +0.101 C 
ATOM     13  C   UNL     1      -4.135   1.504  24.687  0.00  0.00    +0.041 A 
ATOM     14  C   UNL     1      -4.762   0.979  24.788  0.00  0.00    +0.013 A 
ATOM     15  C   UNL     1      -4.614   0.173  24.881  0.00  0.00    +0.006 A 
ATOM     16  C   UNL     1      -3.838  -0.108  24.871  0.00  0.00    +0.056 A 
ATOM     17  C   UNL     1      -3.211   0.417  24.769  0.00  0.00    +0.261 A 
ATOM     18  O   UNL     1      -2.435   0.137  24.760  0.00  0.00    -0.267 OA
ATOM     19  N   UNL     1      -3.359   1.224  24.677  0.00  0.00    -0.299 N 
ATOM     20  C   UNL     1      -3.694   1.800  24.624  0.00  0.00    +0.110 C 
ENDROOT
BRANCH  16  21
ATOM     21  C   UNL     1      -3.691  -0.914  24.963  0.00  0.00    +0.001 A 
ATOM     22  C   UNL     1      -3.346  -1.193  25.659  0.00  0.00    -0.000 A 
ATOM     23  C   UNL     1      -3.198  -1.999  25.752  0.00  0.00    -0.000 A 
ATOM     24  C   UNL     1      -3.395  -2.527  25.149  0.00  0.00    -0.000 A 
ATOM     25  C   UNL     1      -3.739  -2.249  24.453  0.00  0.00    -0.004 A 
ATOM     26  C   UNL     1      -3.887  -1.442  24.360  0.00  0.00    -0.022 A 
ATOM     27  C   UNL     1      -4.232  -1.163  23.664  0.00  0.00    +0.031 C 
ENDBRANCH  16  21
BRANCH   7   4
ATOM      4  S   UNL     1      -2.205   1.010  24.637  0.00  0.00    +0.044 S 
ATOM      5  O   UNL     1      -2.246   0.910  23.819  0.00  0.00    -0.157 OA
ATOM      6  O   UNL     1      -2.165   1.109  25.456  0.00  0.00    -0.157 OA
BRANCH   4   3
ATOM      3  C   UNL     1      -1.885   0.253  24.713  0.00  0.00    +0.169 C 
BRANCH   3   2
ATOM      1  C   UNL     1      -0.605  -0.268  24.349  0.00  0.00    +0.002 C 
ATOM      2  C   UNL     1      -1.081   0.160  24.871  0.00  0.00    +0.027 C 
ENDBRANCH   3   2
ENDBRANCH   4   3
ENDBRANCH   7   4
TORSDOF 4
ENDMDL
MODEL 2
REMARK VINA RESULT:     -13.5      1.055      3.277
REMARK  Name = 
REMARK  4 active torsions:
REMARK  status: ('A' for Active; 'I' for Inactive)
REMARK    1  A    between atoms: C_2  and  C_3
REMARK    2  A    between atoms: C_3  and  S_4
REMARK    3  A    between atoms: S_4  and  N_7
REMARK    4  A    between atoms: C_16  and  C_21
REMARK                            x       y       z     vdW  Elec       q    Type
REMARK                         _______ _______ _______ _____ _____    ______ ____
ROOT
ATOM      7  N   UNL     1      -2.160  -1.298  25.003  0.00  0.00    -0.159 NA
ATOM      8  C   UNL     1      -2.037  -2.114  25.135  0.00  0.00    +0.097 C 
ATOM      9  C   UNL     1      -2.905  -2.466  24.821  0.00  0.00    +0.041 C 
ATOM     10  C   UNL     1      -3.555  -2.906  24.604  0.00  0.00    +0.011 C 
ATOM     11  C   UNL     1      -3.366  -2.231  24.612  0.00  0.00    +0.056 C 
ATOM     12  C   UNL     1      -2.522  -1.906  24.919  0.00  0.00    +0.101 C 
ATOM     13  C   UNL     1      -3.678  -1.392  24.402  0.00  0.00    +0.041 A 
ATOM     14  C   UNL     1      -4.345  -1.015  24.096  0.00  0.00    +0.013 A 
ATOM     15  C   UNL     1      -4.351  -0.195  24.011  0.00  0.00    +0.006 A 
ATOM     16  C   UNL     1      -3.692   0.249  24.232  0.00  0.00    +0.056 A 
ATOM     17  C   UNL     1      -3.025  -0.128  24.538  0.00  0.00    +0.261 A 
ATOM     18  O   UNL     1      -2.365   0.315  24.759  0.00  0.00    -0.267 OA
ATOM     19  N   UNL     1      -3.018  -0.949  24.623  0.00  0.00    -0.299 N 
ATOM     20  C   UNL     1      -3.223  -1.586  24.605  0.00  0.00    +0.110 C 
ENDROOT
BRANCH  16  21
ATOM     21  C   UNL     1      -3.699   1.069  24.147  0.00  0.00    +0.001 A 
ATOM     22  C   UNL     1      -3.213   1.429  23.586  0.00  0.00    -0.000 A 
ATOM     23  C   UNL     1      -3.220   2.250  23.500  0.00  0.00    -0.000 A 
ATOM     24  C   UNL     1      -3.713   2.710  23.974  0.00  0.00    -0.000 A 
ATOM     25  C   UNL     1      -4.200   2.350  24.535  0.00  0.00    -0.004 A 
ATOM     26  C   UNL     1      -4.193   1.529  24.621  0.00  0.00    -0.022 A 
ATOM     27  C   UNL     1      -4.679   1.168  25.182  0.00  0.00    +0.031 C 
ENDBRANCH  16  21
BRANCH   7   4
ATOM      4  S   UNL     1      -2.001  -0.488  24.986  0.00  0.00    +0.044 S 
ATOM      5  O   UNL     1      -2.308  -0.412  25.749  0.00  0.00    -0.157 OA
ATOM      6  O   UNL     1      -1.694  -0.565  24.224  0.00  0.00    -0.157 OA
BRANCH   4   3
ATOM      3  C   UNL     1      -1.842   0.321  24.969  0.00  0.00    +0.169 C 
BRANCH   3   2
ATOM      1  C   UNL     1      -0.888   1.117  25.675  0.00  0.00    +0.002 C 
ATOM      2  C   UNL     1      -1.069   0.591  25.065  0.00  0.00    +0.027 C 
ENDBRANCH   3   2
ENDBRANCH   4   3
ENDBRANCH   7   4
TORSDOF 4
ENDMDL
MODEL 3
REMARK VINA RESULT:     -13.3      2.478      3.850
REMARK  Name = 
REMARK  4 active torsions:
REMARK  status: ('A' for Active; 'I' for Inactive)
REMARK    1  A    between atoms: C_2  and  C_3
REMARK    2  A    between atoms: C_3  and  S_4
REMARK    3  A    between atoms: S_4  and  N_7
REMARK    4  A    between atoms: C_16  and  C_21
REMARK                            x       y       z     vdW  Elec       q    Type
REMARK                         _______ _______ _______ _____ _____    ______ ____
ROOT
ATOM      7  N   UNL     1      -4.361   2.342  24.472  0.00  0.00    -0.159 NA
ATOM      8  C   UNL     1      -5.179   2.174  24.481  0.00  0.00    +0.097 C 
ATOM      9  C   UNL     1      -5.457   2.744  25.238  0.00  0.00    +0.041 C 
ATOM     10  C   UNL     1      -5.841   3.153  25.829  0.00  0.00    +0.011 C 
ATOM     11  C   UNL     1      -5.187   3.089  25.584  0.00  0.00    +0.056 C 
ATOM     12  C   UNL     1      -4.934   2.533  24.850  0.00  0.00    +0.101 C 
ATOM     13  C   UNL     1      -4.331   3.391  25.727  0.00  0.00    +0.041 A 
ATOM     14  C   UNL     1      -3.903   3.893  26.221  0.00  0.00    +0.013 A 
ATOM     15  C   UNL     1      -3.089   3.980  26.117  0.00  0.00    +0.006 A 
ATOM     16  C   UNL     1      -2.703   3.565  25.517  0.00  0.00    +0.056 A 
ATOM     17  C   UNL     1      -3.131   3.062  25.023  0.00  0.00    +0.261 A 
ATOM     18  O   UNL     1      -2.745   2.647  24.423  0.00  0.00    -0.267 OA
ATOM     19  N   UNL     1      -3.945   2.975  25.127  0.00  0.00    -0.299 N 
ATOM     20  C   UNL     1      -4.559   3.054  25.380  0.00  0.00    +0.110 C 
ENDROOT
BRANCH  16  21
ATOM     21  C   UNL     1      -1.890   3.652  25.414  0.00  0.00    +0.001 A 
ATOM     22  C   UNL     1      -1.384   3.021  25.575  0.00  0.00    -0.000 A 
ATOM     23  C   UNL     1      -0.570   3.108  25.472  0.00  0.00    -0.000 A 
ATOM     24  C   UNL     1      -0.263   3.826  25.206  0.00  0.00    -0.000 A 
ATOM     25  C   UNL     1      -0.768   4.457  25.044  0.00  0.00    -0.004 A 
ATOM     26  C   UNL     1      -1.583   4.370  25.148  0.00  0.00    -0.022 A 
ATOM     27  C   UNL     1      -2.089   5.001  24.986  0.00  0.00    +0.031 C 
ENDBRANCH  16  21
BRANCH   7   4
ATOM      4  S   UNL     1      -3.571   2.312  24.233  0.00  0.00    +0.044 S 
ATOM      5  O   UNL     1      -3.434   1.694  24.763  0.00  0.00    -0.157 OA
ATOM      6  O   UNL     1      -3.708   2.931  23.704  0.00  0.00    -0.157 OA
BRANCH   4   3
ATOM      3  C   UNL     1      -2.782   2.282  23.994  0.00  0.00    +0.169 C 
BRANCH   3   2
ATOM      1  C   UNL     1      -2.240   1.881  22.734  0.00  0.00    +0.002 C 
ATOM      2  C   UNL     1      -2.528   1.687  23.483  0.00  0.00    +0.027 C 
ENDBRANCH   3   2
ENDBRANCH   4   3
ENDBRANCH   7   4
TORSDOF 4
ENDMDL
MODEL 4
REMARK VINA RESULT:     -12.9      1.989      3.099
REMARK  Name = 
REMARK  4 active torsions:
REMARK  status: ('A' for Active; 'I' for Inactive)
REMARK    1  A    between atoms: C_2  and  C_3
REMARK    2  A    between atoms: C_3  and  S_4
REMARK    3  A    between atoms: S_4  and  N_7
REMARK    4  A    between atoms: C_16  and  C_21
REMARK                            x       y       z     vdW  Elec       q    Type
REMARK                         _______ _______ _______ _____ _____    ______ ____
ROOT
ATOM      7  N   UNL     1      -4.287   3.393  25.345  0.00  0.00    -0.159 NA
ATOM      8  C   UNL     1      -5.092   3.573  25.472  0.00  0.00    +0.097 C 
ATOM      9  C   UNL     1      -5.495   2.702  25.237  0.00  0.00    +0.041 C 
ATOM     10  C   UNL     1      -5.974   2.061  25.080  0.00  0.00    +0.011 C 
ATOM     11  C   UNL     1      -5.289   2.213  25.066  0.00  0.00    +0.056 C 
ATOM     12  C   UNL     1      -4.915   3.060  25.297  0.00  0.00    +0.101 C 
ATOM     13  C   UNL     1      -4.472   1.837  24.876  0.00  0.00    +0.041 A 
ATOM     14  C   UNL     1      -4.136   1.127  24.625  0.00  0.00    +0.013 A 
ATOM     15  C   UNL     1      -3.318   1.067  24.534  0.00  0.00    +0.006 A 
ATOM     16  C   UNL     1      -2.836   1.718  24.694  0.00  0.00    +0.056 A 
ATOM     17  C   UNL     1      -3.172   2.428  24.945  0.00  0.00    +0.261 A 
ATOM     18  O   UNL     1      -2.690   3.078  25.105  0.00  0.00    -0.267 OA
ATOM     19  N   UNL     1      -3.990   2.488  25.036  0.00  0.00    -0.299 N 
ATOM     20  C   UNL     1      -4.637   2.318  25.041  0.00  0.00    +0.110 C 
ENDROOT
BRANCH  16  21
ATOM     21  C   UNL     1      -2.019   1.657  24.603  0.00  0.00    +0.001 A 
ATOM     22  C   UNL     1      -1.530   1.649  25.267  0.00  0.00    -0.000 A 
ATOM     23  C   UNL     1      -0.712   1.588  25.176  0.00  0.00    -0.000 A 
ATOM     24  C   UNL     1      -0.384   1.536  24.421  0.00  0.00    -0.000 A 
ATOM     25  C   UNL     1      -0.872   1.544  23.757  0.00  0.00    -0.004 A 
ATOM     26  C   UNL     1      -1.691   1.605  23.848  0.00  0.00    -0.022 A 
ATOM     27  C   UNL     1      -2.180   1.614  23.183  0.00  0.00    +0.031 C 
ENDBRANCH  16  21
BRANCH   7   4
ATOM      4  S   UNL     1      -3.470   3.505  25.307  0.00  0.00    +0.044 S 
ATOM      5  O   UNL     1      -3.399   3.256  26.091  0.00  0.00    -0.157 OA
ATOM      6  O   UNL     1      -3.540   3.754  24.523  0.00  0.00    -0.157 OA
BRANCH   4   3
ATOM      3  C   UNL     1      -2.653   3.617  25.269  0.00  0.00    +0.169 C 
BRANCH   3   2
ATOM      1  C   UNL     1      -1.836   4.788  25.214  0.00  0.00    +0.002 C 
ATOM      2  C   UNL     1      -2.308   4.265  25.644  0.00  0.00    +0.027 C 
ENDBRANCH   3   2
ENDBRANCH   4   3
ENDBRANCH   7   4
TORSDOF 4
ENDMDL
MODEL 5
REMARK VINA RESULT:     -12.9      1.251      2.505
REMARK  Name = 
REMARK  4 active torsions:
REMARK  status: ('A' for Active; 'I' for Inactive)
REMARK    1  A    between atoms: C_2  and  C_3
REMARK    2  A    between atoms: C_3  and  S_4
REMARK    3  A    between atoms: S_4  and  N_7
REMARK    4  A    between atoms: C_16  and  C_21
REMARK                            x       y       z     vdW  Elec       q    Type
REMARK                         _______ _______ _______ _____ _____    ______ ____
ROOT
ATOM      7  N   UNL     1      -3.447   2.995  25.058  0.00  0.00    -0.159 NA
ATOM      8  C   UNL     1      -3.133   3.755  25.201  0.00  0.00    +0.097 C 
ATOM      9  C   UNL     1      -2.170   3.534  25.224  0.00  0.00    +0.041 C 
ATOM     10  C   UNL     1      -1.357   3.519  25.271  0.00  0.00    +0.011 C 
ATOM     11  C   UNL     1      -1.879   3.062  25.164  0.00  0.00    +0.056 C 
ATOM     12  C   UNL     1      -2.806   3.292  25.145  0.00  0.00    +0.101 C 
ATOM     13  C   UNL     1      -2.036   2.170  25.009  0.00  0.00    +0.041 A 
ATOM     14  C   UNL     1      -1.634   1.456  24.916  0.00  0.00    +0.013 A 
ATOM     15  C   UNL     1      -2.056   0.761  24.777  0.00  0.00    +0.006 A 
ATOM     16  C   UNL     1      -2.879   0.780  24.730  0.00  0.00    +0.056 A 
ATOM     17  C   UNL     1      -3.281   1.495  24.822  0.00  0.00    +0.261 A 
ATOM     18  O   UNL     1      -4.105   1.514  24.775  0.00  0.00    -0.267 OA
ATOM     19  N   UNL     1      -2.859   2.190  24.962  0.00  0.00    -0.299 N 
ATOM     20  C   UNL     1      -2.344   2.604  25.061  0.00  0.00    +0.110 C 
ENDROOT
BRANCH  16  21
ATOM     21  C   UNL     1      -3.300   0.085  24.590  0.00  0.00    +0.001 A 
ATOM     22  C   UNL     1      -3.706  -0.015  23.879  0.00  0.00    -0.000 A 
ATOM     23  C   UNL     1      -4.127  -0.711  23.738  0.00  0.00    -0.000 A 
ATOM     24  C   UNL     1      -4.143  -1.306  24.309  0.00  0.00    -0.000 A 
ATOM     25  C   UNL     1      -3.737  -1.206  25.021  0.00  0.00    -0.004 A 
ATOM     26  C   UNL     1      -3.316  -0.510  25.161  0.00  0.00    -0.022 A 
ATOM     27  C   UNL     1      -2.910  -0.410  25.873  0.00  0.00    +0.031 C 
ENDBRANCH  16  21
BRANCH   7   4
ATOM      4  S   UNL     1      -4.013   2.407  24.927  0.00  0.00    +0.044 S 
ATOM      5  O   UNL     1      -4.078   2.290  25.741  0.00  0.00    -0.157 OA
ATOM      6  O   UNL     1      -3.947   2.525  24.113  0.00  0.00    -0.157 OA
BRANCH   4   3
ATOM      3  C   UNL     1      -4.578   1.820  24.797  0.00  0.00    +0.169 C 
BRANCH   3   2
ATOM      1  C   UNL     1      -5.968   1.802  25.128  0.00  0.00    +0.002 C 
ATOM      2  C   UNL     1      -5.356   2.029  24.622  0.00  0.00    +0.027 C 
ENDBRANCH   3   2
ENDBRANCH   4   3
ENDBRANCH   7   4
TORSDOF 4
ENDMDL
MODEL 6
REMARK VINA RESULT:     -12.6      1.153      3.525
REMARK  Name = 
REMARK  4 active torsions:
REMARK  status: ('A' for Active; 'I' for Inactive)
REMARK    1  A    between atoms: C_2  and  C_3
REMARK    2  A    between atoms: C_3  and  S_4
REMARK    3  A    between atoms: S_4  and  N_7
REMARK    4  A    between atoms: C_16  and  C_21
REMARK                            x       y       z     vdW  Elec       q    Type
REMARK                         _______ _______ _______ _____ _____    ______ ____
ROOT
ATOM      7  N   UNL     1      -3.773  -0.422  24.334  0.00  0.00    -0.159 NA
ATOM      8  C   UNL     1      -4.341  -1.024  24.219  0.00  0.00    +0.097 C 
ATOM      9  C   UNL     1      -3.789  -1.814  24.436  0.00  0.00    +0.041 C 
ATOM     10  C   UNL     1      -3.477  -2.553  24.582  0.00  0.00    +0.011 C 
ATOM     11  C   UNL     1      -3.259  -1.886  24.593  0.00  0.00    +0.056 C 
ATOM     12  C   UNL     1      -3.805  -1.132  24.380  0.00  0.00    +0.101 C 
ATOM     13  C   UNL     1      -2.516  -1.374  24.765  0.00  0.00    +0.041 A 
ATOM     14  C   UNL     1      -1.727  -1.446  24.995  0.00  0.00    +0.013 A 
ATOM     15  C   UNL     1      -1.258  -0.773  25.077  0.00  0.00    +0.006 A 
ATOM     16  C   UNL     1      -1.577  -0.027  24.929  0.00  0.00    +0.056 A 
ATOM     17  C   UNL     1      -2.365   0.046  24.698  0.00  0.00    +0.261 A 
ATOM     18  O   UNL     1      -2.685   0.792  24.550  0.00  0.00    -0.267 OA
ATOM     19  N   UNL     1      -2.835  -0.627  24.617  0.00  0.00    -0.299 N 
ATOM     20  C   UNL     1      -3.018  -1.271  24.614  0.00  0.00    +0.110 C 
ENDROOT
BRANCH  16  21
ATOM     21  C   UNL     1      -1.107   0.646  25.011  0.00  0.00    +0.001 A 
ATOM     22  C   UNL     1      -1.247   1.173  25.630  0.00  0.00    -0.000 A 
ATOM     23  C   UNL     1      -0.777   1.846  25.713  0.00  0.00    -0.000 A 
ATOM     24  C   UNL     1      -0.168   1.992  25.176  0.00  0.00    -0.000 A 
ATOM     25  C   UNL     1      -0.027   1.466  24.557  0.00  0.00    -0.004 A 
ATOM     26  C   UNL     1      -0.498   0.792  24.474  0.00  0.00    -0.022 A 
ATOM     27  C   UNL     1      -0.358   0.265  23.855  0.00  0.00    +0.031 C 
ENDBRANCH  16  21
BRANCH   7   4
ATOM      4  S   UNL     1      -3.453   0.339  24.366  0.00  0.00    +0.044 S 
ATOM      5  O   UNL     1      -3.661   0.392  25.163  0.00  0.00    -0.157 OA
ATOM      6  O   UNL     1      -3.246   0.285  23.569  0.00  0.00    -0.157 OA
BRANCH   4   3
ATOM      3  C   UNL     1      -3.133   1.099  24.399  0.00  0.00    +0.169 C 
BRANCH   3   2
ATOM      1  C   UNL     1      -3.561   2.319  23.791  0.00  0.00    +0.002 C 
ATOM      2  C   UNL     1      -3.631   1.756  24.390  0.00  0.00    +0.027 C 
ENDBRANCH   3   2
ENDBRANCH   4   3
ENDBRANCH   7   4
TORSDOF 4
ENDMDL
