MODEL 1
REMARK VINA RESULT:      -7.8      0.000      0.000
REMARK  Name = 
REMARK  7 active torsions:
REMARK  status: ('A' for Active; 'I' for Inactive)
REMARK    1  A    between atoms: O_2  and  C_3
REMARK    2  A    between atoms: C_3  and  C_4
REMARK    3  A    between atoms: N_6  and  C_7
REMARK    4  A    between atoms: C_7  and  C_8
REMARK    5  A    between atoms: C_12  and  C_13
REMARK    6  A    between atoms: C_13  and  C_14
REMARK    7  A    between atoms: C_26  and  C_27
REMARK                            x       y       z     vdW  Elec       q    Type
REMARK                         _______ _______ _______ _____ _____    ______ ____
ROOT
ATOM      8  C   UNL     1      -0.412   0.422  23.803  0.00  0.00    +0.043 C 
ATOM      9  C   UNL     1      -0.528   1.185  23.509  0.00  0.00    -0.033 C 
ATOM     10  C   UNL     1      -1.218   1.597  23.696  0.00  0.00    -0.048 C 
ATOM     11  C   UNL     1      -1.334   2.360  23.402  0.00  0.00    +0.026 C 
ATOM     12  C   UNL     1      -1.790   1.248  24.175  0.00  0.00    +0.027 C 
ATOM     25  C   UNL     1      -1.674   0.486  24.468  0.00  0.00    +0.005 C 
ATOM     26  C   UNL     1      -0.984   0.073  24.282  0.00  0.00    +0.006 C 
ENDROOT
BRANCH  26  27
ATOM     27  C   UNL     1      -0.868  -0.689  24.576  0.00  0.00    +0.000 C 
ATOM     28  C   UNL     1      -1.045  -1.344  24.105  0.00  0.00    +0.000 C 
ATOM     29  C   UNL     1      -0.577  -0.797  25.340  0.00  0.00    +0.000 C 
ENDBRANCH  26  27
BRANCH   8   7
ATOM      7  C   UNL     1       0.278   0.010  23.617  0.00  0.00    +0.119 C 
BRANCH   7   6
ATOM      4  C   UNL     1       1.572   0.106  23.018  0.00  0.00    +0.272 C 
ATOM      5  O   UNL     1       1.450  -0.616  22.638  0.00  0.00    -0.271 OA
ATOM      6  N   UNL     1       0.986   0.420  23.507  0.00  0.00    -0.203 NA
BRANCH   4   3
ATOM      3  C   UNL     1       2.280   0.516  22.909  0.00  0.00    +0.229 C 
BRANCH   3   2
ATOM      1  C   UNL     1       3.645   0.530  22.485  0.00  0.00    +0.175 C 
ATOM      2  O   UNL     1       2.913   0.150  22.526  0.00  0.00    -0.342 OA
ENDBRANCH   3   2
ENDBRANCH   4   3
ENDBRANCH   7   6
ENDBRANCH   8   7
BRANCH  12  13
ATOM     13  C   UNL     1      -2.480   1.661  24.361  0.00  0.00    +0.089 C 
BRANCH  13  14
ATOM     14  C   UNL     1      -3.216   1.310  24.237  0.00  0.00    +0.226 C 
ATOM     15  O   UNL     1      -3.290   0.682  23.708  0.00  0.00    -0.275 OA
ATOM     16  N   UNL     1      -3.880   1.589  24.642  0.00  0.00    -0.276 N 
ATOM     17  C   UNL     1      -4.616   1.238  24.518  0.00  0.00    +0.115 C 
ATOM     18  C   UNL     1      -5.278   1.516  24.924  0.00  0.00    +0.115 C 
ATOM     19  N   UNL     1      -5.204   2.145  25.453  0.00  0.00    -0.276 N 
ATOM     20  C   UNL     1      -4.468   2.495  25.576  0.00  0.00    +0.115 C 
ATOM     21  C   UNL     1      -3.806   2.217  25.171  0.00  0.00    +0.115 C 
ATOM     22  C   UNL     1      -5.867   2.422  25.858  0.00  0.00    +0.226 C 
ATOM     23  C   UNL     1      -6.604   2.072  25.735  0.00  0.00    +0.095 C 
ATOM     24  O   UNL     1      -5.793   3.051  26.387  0.00  0.00    -0.275 OA
ENDBRANCH  13  14
ENDBRANCH  12  13
TORSDOF 7
ENDMDL
MODEL 2
REMARK VINA RESULT:      -7.6      1.127      6.167
REMARK  Name = 
REMARK  7 active torsions:
REMARK  status: ('A' for Active; 'I' for Inactive)
REMARK    1  A    between atoms: O_2  and  C_3
REMARK    2  A    between atoms: C_3  and  C_4
REMARK    3  A    between atoms: N_6  and  C_7
REMARK    4  A    between atoms: C_7  and  C_8
REMARK    5  A    between atoms: C_12  and  C_13
REMARK    6  A    between atoms: C_13  and  C_14
REMARK    7  A    between atoms: C_26  and  C_27
REMARK                            x       y       z     vdW  Elec       q    Type
REMARK                         _______ _______ _______ _____ _____    ______ ____
ROOT
ATOM      8  C   UNL     1      -3.261   1.318  24.332  0.00  0.00    +0.043 C 
ATOM      9  C   UNL     1      -3.072   0.653  24.783  0.00  0.00    -0.033 C 
ATOM     10  C   UNL     1      -2.317   0.324  24.734  0.00  0.00    -0.048 C 
ATOM     11  C   UNL     1      -2.127  -0.340  25.186  0.00  0.00    +0.026 C 
ATOM     12  C   UNL     1      -1.753   0.658  24.235  0.00  0.00    +0.027 C 
ATOM     25  C   UNL     1      -1.942   1.322  23.783  0.00  0.00    +0.005 C 
ATOM     26  C   UNL     1      -2.697   1.652  23.832  0.00  0.00    +0.006 C 
ENDROOT
BRANCH  26  27
ATOM     27  C   UNL     1      -2.887   2.315  23.380  0.00  0.00    +0.000 C 
ATOM     28  C   UNL     1      -3.083   2.229  22.583  0.00  0.00    +0.000 C 
ATOM     29  C   UNL     1      -2.880   3.065  23.725  0.00  0.00    +0.000 C 
ENDBRANCH  26  27
BRANCH   8   7
ATOM      7  C   UNL     1      -4.016   1.647  24.381  0.00  0.00    +0.119 C 
BRANCH   7   6
ATOM      4  C   UNL     1      -5.299   1.711  25.006  0.00  0.00    +0.272 C 
ATOM      5  O   UNL     1      -5.537   2.282  24.460  0.00  0.00    -0.271 OA
ATOM      6  N   UNL     1      -4.539   1.393  24.967  0.00  0.00    -0.203 NA
BRANCH   4   3
ATOM      3  C   UNL     1      -5.822   1.458  25.593  0.00  0.00    +0.229 C 
BRANCH   3   2
ATOM      1  C   UNL     1      -6.547   1.742  26.791  0.00  0.00    +0.175 C 
ATOM      2  O   UNL     1      -6.152   2.004  26.115  0.00  0.00    -0.342 OA
ENDBRANCH   3   2
ENDBRANCH   4   3
ENDBRANCH   7   6
ENDBRANCH   8   7
BRANCH  12  13
ATOM     13  C   UNL     1      -0.997   0.328  24.186  0.00  0.00    +0.089 C 
BRANCH  13  14
ATOM     14  C   UNL     1      -0.332   0.805  24.291  0.00  0.00    +0.226 C 
ATOM     15  O   UNL     1      -0.351   1.427  24.831  0.00  0.00    -0.275 OA
ATOM     16  N   UNL     1       0.352   0.658  23.853  0.00  0.00    -0.276 N 
ATOM     17  C   UNL     1       1.017   1.135  23.957  0.00  0.00    +0.115 C 
ATOM     18  C   UNL     1       1.701   0.988  23.520  0.00  0.00    +0.115 C 
ATOM     19  N   UNL     1       1.720   0.365  22.980  0.00  0.00    -0.276 N 
ATOM     20  C   UNL     1       1.055  -0.111  22.876  0.00  0.00    +0.115 C 
ATOM     21  C   UNL     1       0.371   0.035  23.312  0.00  0.00    +0.115 C 
ATOM     22  C   UNL     1       2.405   0.219  22.543  0.00  0.00    +0.226 C 
ATOM     23  C   UNL     1       3.071   0.696  22.646  0.00  0.00    +0.095 C 
ATOM     24  O   UNL     1       2.424  -0.403  22.002  0.00  0.00    -0.275 OA
ENDBRANCH  13  14
ENDBRANCH  12  13
TORSDOF 7
ENDMDL
MODEL 3
REMARK VINA RESULT:      -7.2      1.186      5.922
REMARK  Name = 
REMARK  7 active torsions:
REMARK  status: ('A' for Active; 'I' for Inactive)
REMARK    1  A    between atoms: O_2  and  C_3
REMARK    2  A    between atoms: C_3  and  C_4
REMARK    3  A    between atoms: N_6  and  C_7
REMARK    4  A    between atoms: C_7  and  C_8
REMARK    5  A    between atoms: C_12  and  C_13
REMARK    6  A    between atoms: C_13  and  C_14
REMARK    7  A    between atoms: C_26  and  C_27
REMARK                            x       y       z     vdW  Elec       q    Type
REMARK                         _______ _______ _______ _____ _____    ______ ____
ROOT
ATOM      8  C   UNL     1      -3.110   0.781  24.807  0.00  0.00    +0.043 C 
ATOM      9  C   UNL     1      -2.706   1.482  24.639  0.00  0.00    -0.033 C 
ATOM     10  C   UNL     1      -1.895   1.464  24.492  0.00  0.00    -0.048 C 
ATOM     11  C   UNL     1      -1.491   2.165  24.323  0.00  0.00    +0.026 C 
ATOM     12  C   UNL     1      -1.487   0.749  24.513  0.00  0.00    +0.027 C 
ATOM     25  C   UNL     1      -1.889   0.049  24.681  0.00  0.00    +0.005 C 
ATOM     26  C   UNL     1      -2.702   0.066  24.828  0.00  0.00    +0.006 C 
ENDROOT
BRANCH  26  27
ATOM     27  C   UNL     1      -3.104  -0.634  24.996  0.00  0.00    +0.000 C 
ATOM     28  C   UNL     1      -3.510  -1.031  24.396  0.00  0.00    +0.000 C 
ATOM     29  C   UNL     1      -3.102  -0.938  25.764  0.00  0.00    +0.000 C 
ENDBRANCH  26  27
BRANCH   8   7
ATOM      7  C   UNL     1      -3.921   0.799  24.955  0.00  0.00    +0.119 C 
BRANCH   7   6
ATOM      4  C   UNL     1      -5.083   1.598  25.186  0.00  0.00    +0.272 C 
ATOM      5  O   UNL     1      -5.390   1.010  25.676  0.00  0.00    -0.271 OA
ATOM      6  N   UNL     1      -4.349   1.493  24.825  0.00  0.00    -0.203 NA
BRANCH   4   3
ATOM      3  C   UNL     1      -5.510   2.292  25.056  0.00  0.00    +0.229 C 
BRANCH   3   2
ATOM      1  C   UNL     1      -5.764   3.600  25.573  0.00  0.00    +0.175 C 
ATOM      2  O   UNL     1      -5.697   2.785  25.690  0.00  0.00    -0.342 OA
ENDBRANCH   3   2
ENDBRANCH   4   3
ENDBRANCH   7   6
ENDBRANCH   8   7
BRANCH  12  13
ATOM     13  C   UNL     1      -0.675   0.732  24.365  0.00  0.00    +0.089 C 
BRANCH  13  14
ATOM     14  C   UNL     1      -0.371   0.227  23.788  0.00  0.00    +0.226 C 
ATOM     15  O   UNL     1      -0.846  -0.366  23.468  0.00  0.00    -0.275 OA
ATOM     16  N   UNL     1       0.408   0.315  23.531  0.00  0.00    -0.276 N 
ATOM     17  C   UNL     1       0.711  -0.190  22.953  0.00  0.00    +0.115 C 
ATOM     18  C   UNL     1       1.490  -0.101  22.697  0.00  0.00    +0.115 C 
ATOM     19  N   UNL     1       1.965   0.493  23.017  0.00  0.00    -0.276 N 
ATOM     20  C   UNL     1       1.661   0.998  23.594  0.00  0.00    +0.115 C 
ATOM     21  C   UNL     1       0.883   0.909  23.851  0.00  0.00    +0.115 C 
ATOM     22  C   UNL     1       2.744   0.581  22.759  0.00  0.00    +0.226 C 
ATOM     23  C   UNL     1       3.049   0.077  22.182  0.00  0.00    +0.095 C 
ATOM     24  O   UNL     1       3.219   1.175  23.080  0.00  0.00    -0.275 OA
ENDBRANCH  13  14
ENDBRANCH  12  13
TORSDOF 7
ENDMDL
