MODEL 1
REMARK VINA RESULT:     -11.3      0.000      0.000
REMARK  Name = 
REMARK  7 active torsions:
REMARK  status: ('A' for Active; 'I' for Inactive)
REMARK    1  A    between atoms: C_2  and  C_3
REMARK    2  A    between atoms: C_10  and  C_11
REMARK    3  A    between atoms: C_11  and  N_12
REMARK    4  A    between atoms: N_12  and  C_13
REMARK    5  A    between atoms: C_13  and  C_14
REMARK    6  A    between atoms: C_17  and  O_18
REMARK    7  A    between atoms: O_18  and  C_19
REMARK                            x       y       z     vdW  Elec       q    Type
REMARK                         _______ _______ _______ _____ _____    ______ ____
ROOT
ATOM     12  N   UNL     1      -3.574   1.511  24.958  0.00  0.00    -0.212 NA
ENDROOT
BRANCH  12  11
ATOM     11  C   UNL     1      -4.039   0.896  24.663  0.00  0.00    +0.105 C 
BRANCH  11  10
ATOM      3  C   UNL     1      -3.894  -1.461  24.467  0.00  0.00    +0.016 C 
ATOM      4  C   UNL     1      -4.178  -1.064  23.861  0.00  0.00    +0.072 C 
ATOM      5  N   UNL     1      -3.919  -0.743  24.576  0.00  0.00    -0.273 NA
ATOM      6  C   UNL     1      -3.600  -1.541  25.176  0.00  0.00    +0.072 C 
ATOM      7  C   UNL     1      -3.351  -1.765  25.737  0.00  0.00    +0.017 C 
ATOM      8  C   UNL     1      -3.642  -1.138  25.165  0.00  0.00    +0.004 C 
ATOM      9  C   UNL     1      -3.605  -0.309  25.451  0.00  0.00    +0.018 C 
ATOM     10  C   UNL     1      -3.877   0.117  24.879  0.00  0.00    +0.075 C 
BRANCH   3   2
ATOM      1  C   UNL     1      -4.112  -2.650  23.703  0.00  0.00    +0.000 C 
ATOM      2  C   UNL     1      -3.847  -2.282  24.392  0.00  0.00    +0.001 C 
ENDBRANCH   3   2
ENDBRANCH  11  10
ENDBRANCH  12  11
BRANCH  12  13
ATOM     13  C   UNL     1      -3.698   2.283  24.695  0.00  0.00    +0.115 C 
BRANCH  13  14
ATOM     14  C   UNL     1      -3.187   2.886  24.932  0.00  0.00    -0.005 A 
ATOM     15  C   UNL     1      -2.411   2.903  24.653  0.00  0.00    +0.000 A 
ATOM     16  C   UNL     1      -1.901   3.506  24.890  0.00  0.00    +0.037 A 
ATOM     17  C   UNL     1      -2.166   4.092  25.407  0.00  0.00    +0.147 A 
ATOM     23  C   UNL     1      -2.942   4.074  25.687  0.00  0.00    +0.037 A 
ATOM     24  C   UNL     1      -3.452   3.472  25.450  0.00  0.00    +0.000 A 
BRANCH  17  18
ATOM     18  O   UNL     1      -1.656   4.695  25.645  0.00  0.00    -0.404 OA
BRANCH  18  19
ATOM     19  C   UNL     1      -1.127   5.024  25.105  0.00  0.00    +0.575 C 
ATOM     20  F   UNL     1      -0.597   5.353  24.564  0.00  0.00    -0.133 F 
ATOM     21  F   UNL     1      -1.692   5.586  24.893  0.00  0.00    -0.133 F 
ATOM     22  F   UNL     1      -0.561   4.462  25.317  0.00  0.00    -0.133 F 
ENDBRANCH  18  19
ENDBRANCH  17  18
ENDBRANCH  13  14
ENDBRANCH  12  13
TORSDOF 7
ENDMDL
MODEL 2
REMARK VINA RESULT:     -11.1      3.326      5.744
REMARK  Name = 
REMARK  7 active torsions:
REMARK  status: ('A' for Active; 'I' for Inactive)
REMARK    1  A    between atoms: C_2  and  C_3
REMARK    2  A    between atoms: C_10  and  C_11
REMARK    3  A    between atoms: C_11  and  N_12
REMARK    4  A    between atoms: N_12  and  C_13
REMARK    5  A    between atoms: C_13  and  C_14
REMARK    6  A    between atoms: C_17  and  O_18
REMARK    7  A    between atoms: O_18  and  C_19
REMARK                            x       y       z     vdW  Elec       q    Type
REMARK                         _______ _______ _______ _____ _____    ______ ____
ROOT
ATOM     12  N   UNL     1      -3.212   1.389  24.865  0.00  0.00    -0.212 NA
ENDROOT
BRANCH  12  11
ATOM     11  C   UNL     1      -3.202   2.212  24.926  0.00  0.00    +0.105 C 
BRANCH  11  10
ATOM      3  C   UNL     1      -1.700   4.032  25.135  0.00  0.00    +0.016 C 
ATOM      4  C   UNL     1      -2.443   4.194  24.970  0.00  0.00    +0.072 C 
ATOM      5  N   UNL     1      -2.120   3.442  25.081  0.00  0.00    -0.273 NA
ATOM      6  C   UNL     1      -1.100   3.570  25.287  0.00  0.00    +0.072 C 
ATOM      7  C   UNL     1      -0.512   3.320  25.424  0.00  0.00    +0.017 C 
ATOM      8  C   UNL     1      -1.390   3.292  25.242  0.00  0.00    +0.004 C 
ATOM      9  C   UNL     1      -1.753   2.493  25.212  0.00  0.00    +0.018 C 
ATOM     10  C   UNL     1      -2.490   2.608  25.052  0.00  0.00    +0.075 C 
BRANCH   3   2
ATOM      1  C   UNL     1      -1.447   5.437  25.051  0.00  0.00    +0.000 C 
ATOM      2  C   UNL     1      -1.181   4.672  25.206  0.00  0.00    +0.001 C 
ENDBRANCH   3   2
ENDBRANCH  11  10
ENDBRANCH  12  11
BRANCH  12  13
ATOM     13  C   UNL     1      -3.928   0.992  24.772  0.00  0.00    +0.115 C 
BRANCH  13  14
ATOM     14  C   UNL     1      -3.937   0.170  24.699  0.00  0.00    -0.005 A 
ATOM     15  C   UNL     1      -3.912  -0.305  25.373  0.00  0.00    +0.000 A 
ATOM     16  C   UNL     1      -3.921  -1.127  25.299  0.00  0.00    +0.037 A 
ATOM     17  C   UNL     1      -3.954  -1.473  24.551  0.00  0.00    +0.147 A 
ATOM     23  C   UNL     1      -3.979  -0.998  23.877  0.00  0.00    +0.037 A 
ATOM     24  C   UNL     1      -3.970  -0.177  23.950  0.00  0.00    +0.000 A 
BRANCH  17  18
ATOM     18  O   UNL     1      -3.963  -2.295  24.476  0.00  0.00    -0.404 OA
BRANCH  18  19
ATOM     19  C   UNL     1      -3.292  -2.734  24.673  0.00  0.00    +0.575 C 
ATOM     20  F   UNL     1      -2.621  -3.172  24.870  0.00  0.00    -0.133 F 
ATOM     21  F   UNL     1      -3.602  -2.869  25.426  0.00  0.00    -0.133 F 
ATOM     22  F   UNL     1      -2.982  -2.598  23.920  0.00  0.00    -0.133 F 
ENDBRANCH  18  19
ENDBRANCH  17  18
ENDBRANCH  13  14
ENDBRANCH  12  13
TORSDOF 7
ENDMDL
