MODEL 1
REMARK VINA RESULT:     -11.4      0.000      0.000
REMARK  Name = 
REMARK  4 active torsions:
REMARK  status: ('A' for Active; 'I' for Inactive)
REMARK    1  A    between atoms: C_1  and  N_2
REMARK    2  A    between atoms: C_1  and  C_18
REMARK    3  A    between atoms: C_5  and  C_7
REMARK    4  A    between atoms: C_10  and  C_12
REMARK                            x       y       z     vdW  Elec       q    Type
REMARK                         _______ _______ _______ _____ _____    ______ ____
ROOT
ATOM      2  N   UNL     1      -4.212   0.422  25.083  0.00  0.00    -0.268 NA
ATOM      3  C   UNL     1      -4.595   0.699  24.406  0.00  0.00    +0.073 C 
ATOM      4  C   UNL     1      -4.412   1.498  24.320  0.00  0.00    +0.028 C 
ATOM      5  C   UNL     1      -3.917   1.716  24.942  0.00  0.00    +0.096 C 
ATOM      6  C   UNL     1      -3.793   1.051  25.414  0.00  0.00    +0.082 C 
ENDROOT
BRANCH   5   7
ATOM      7  C   UNL     1      -3.600   2.468  25.070  0.00  0.00    +0.227 A 
ATOM      8  N   UNL     1      -4.011   3.125  25.351  0.00  0.00    -0.111 NA
ATOM      9  N   UNL     1      -3.482   3.758  25.394  0.00  0.00    -0.107 NA
ATOM     10  C   UNL     1      -2.744   3.489  25.140  0.00  0.00    +0.250 A 
ATOM     11  O   UNL     1      -2.817   2.693  24.940  0.00  0.00    -0.419 OA
BRANCH  10  12
ATOM     12  C   UNL     1      -2.054   3.939  25.094  0.00  0.00    +0.058 A 
ATOM     13  C   UNL     1      -1.326   3.567  24.978  0.00  0.00    +0.025 A 
ATOM     14  C   UNL     1      -0.637   4.019  24.933  0.00  0.00    +0.099 A 
ATOM     15  N   UNL     1      -0.675   4.840  25.002  0.00  0.00    -0.242 NA
ATOM     16  C   UNL     1      -1.403   5.210  25.117  0.00  0.00    +0.099 A 
ATOM     17  C   UNL     1      -2.092   4.760  25.163  0.00  0.00    +0.025 A 
ENDBRANCH  10  12
ENDBRANCH   5   7
BRANCH   2   1
ATOM      1  C   UNL     1      -4.243  -0.348  25.378  0.00  0.00    +0.099 C 
BRANCH   1  18
ATOM     18  C   UNL     1      -3.774  -0.938  25.041  0.00  0.00    -0.003 A 
ATOM     19  C   UNL     1      -4.098  -1.457  24.487  0.00  0.00    +0.000 A 
ATOM     20  C   UNL     1      -3.629  -2.046  24.151  0.00  0.00    +0.040 A 
ATOM     21  C   UNL     1      -2.836  -2.117  24.367  0.00  0.00    +0.176 A 
ATOM     22  O   UNL     1      -2.243  -2.638  24.131  0.00  0.00    -0.435 OA
ATOM     23  C   UNL     1      -1.553  -2.443  24.538  0.00  0.00    +0.429 C 
ATOM     24  O   UNL     1      -1.720  -1.799  25.026  0.00  0.00    -0.435 OA
ATOM     25  C   UNL     1      -2.512  -1.597  24.921  0.00  0.00    +0.176 A 
ATOM     26  C   UNL     1      -2.981  -1.007  25.258  0.00  0.00    +0.037 A 
ENDBRANCH   1  18
ENDBRANCH   2   1
TORSDOF 4
ENDMDL
MODEL 2
REMARK VINA RESULT:     -11.3      1.461      5.104
REMARK  Name = 
REMARK  4 active torsions:
REMARK  status: ('A' for Active; 'I' for Inactive)
REMARK    1  A    between atoms: C_1  and  N_2
REMARK    2  A    between atoms: C_1  and  C_18
REMARK    3  A    between atoms: C_5  and  C_7
REMARK    4  A    between atoms: C_10  and  C_12
REMARK                            x       y       z     vdW  Elec       q    Type
REMARK                         _______ _______ _______ _____ _____    ______ ____
ROOT
ATOM      2  N   UNL     1      -4.581   2.290  24.821  0.00  0.00    -0.268 NA
ATOM      3  C   UNL     1      -5.148   2.007  25.350  0.00  0.00    +0.073 C 
ATOM      4  C   UNL     1      -5.119   1.183  25.336  0.00  0.00    +0.028 C 
ATOM      5  C   UNL     1      -4.535   0.957  24.800  0.00  0.00    +0.096 C 
ATOM      6  C   UNL     1      -4.202   1.641  24.482  0.00  0.00    +0.082 C 
ENDROOT
BRANCH   5   7
ATOM      7  C   UNL     1      -4.320   0.182  24.615  0.00  0.00    +0.227 A 
ATOM      8  N   UNL     1      -4.791  -0.371  24.223  0.00  0.00    -0.111 NA
ATOM      9  N   UNL     1      -4.359  -1.072  24.155  0.00  0.00    -0.107 NA
ATOM     10  C   UNL     1      -3.621  -0.950  24.506  0.00  0.00    +0.250 A 
ATOM     11  O   UNL     1      -3.598  -0.176  24.789  0.00  0.00    -0.419 OA
BRANCH  10  12
ATOM     12  C   UNL     1      -3.014  -1.506  24.562  0.00  0.00    +0.058 A 
ATOM     13  C   UNL     1      -3.189  -2.313  24.525  0.00  0.00    +0.025 A 
ATOM     14  C   UNL     1      -2.581  -2.868  24.581  0.00  0.00    +0.099 A 
ATOM     15  N   UNL     1      -1.801  -2.618  24.674  0.00  0.00    -0.242 NA
ATOM     16  C   UNL     1      -1.627  -1.812  24.710  0.00  0.00    +0.099 A 
ATOM     17  C   UNL     1      -2.234  -1.258  24.654  0.00  0.00    +0.025 A 
ENDBRANCH  10  12
ENDBRANCH   5   7
BRANCH   2   1
ATOM      1  C   UNL     1      -4.421   3.084  24.661  0.00  0.00    +0.099 C 
BRANCH   1  18
ATOM     18  C   UNL     1      -3.751   3.443  24.983  0.00  0.00    -0.003 A 
ATOM     19  C   UNL     1      -3.781   3.765  25.743  0.00  0.00    +0.000 A 
ATOM     20  C   UNL     1      -3.112   4.124  26.064  0.00  0.00    +0.040 A 
ATOM     21  C   UNL     1      -2.413   4.162  25.628  0.00  0.00    +0.176 A 
ATOM     22  O   UNL     1      -1.672   4.479  25.798  0.00  0.00    -0.435 OA
ATOM     23  C   UNL     1      -1.184   4.355  25.146  0.00  0.00    +0.429 C 
ATOM     24  O   UNL     1      -1.624   3.960  24.571  0.00  0.00    -0.435 OA
ATOM     25  C   UNL     1      -2.384   3.841  24.868  0.00  0.00    +0.176 A 
ATOM     26  C   UNL     1      -3.053   3.481  24.546  0.00  0.00    +0.037 A 
ENDBRANCH   1  18
ENDBRANCH   2   1
TORSDOF 4
ENDMDL
MODEL 3
REMARK VINA RESULT:     -11.3      1.671      2.456
REMARK  Name = 
REMARK  4 active torsions:
REMARK  status: ('A' for Active; 'I' for Inactive)
REMARK    1  A    between atoms: C_1  and  N_2
REMARK    2  A    between atoms: C_1  and  C_18
REMARK    3  A    between atoms: C_5  and  C_7
REMARK    4  A    between atoms: C_10  and  C_12
REMARK                            x       y       z     vdW  Elec       q    Type
REMARK                         _______ _______ _______ _____ _____    ______ ____
ROOT
ATOM      2  N   UNL     1      -1.080  -0.415  25.288  0.00  0.00    -0.268 NA
ATOM      3  C   UNL     1      -0.600  -0.361  24.619  0.00  0.00    +0.073 C 
ATOM      4  C   UNL     1      -0.355   0.423  24.544  0.00  0.00    +0.028 C 
ATOM      5  C   UNL     1      -0.684   0.853  25.166  0.00  0.00    +0.096 C 
ATOM      6  C   UNL     1      -1.131   0.335  25.626  0.00  0.00    +0.082 C 
ENDROOT
BRANCH   5   7
ATOM      7  C   UNL     1      -0.582   1.660  25.304  0.00  0.00    +0.227 A 
ATOM      8  N   UNL     1       0.104   2.021  25.586  0.00  0.00    -0.111 NA
ATOM      9  N   UNL     1      -0.039   2.833  25.641  0.00  0.00    -0.107 NA
ATOM     10  C   UNL     1      -0.814   2.972  25.392  0.00  0.00    +0.250 A 
ATOM     11  O   UNL     1      -1.149   2.248  25.185  0.00  0.00    -0.419 OA
BRANCH  10  12
ATOM     12  C   UNL     1      -1.187   3.707  25.358  0.00  0.00    +0.058 A 
ATOM     13  C   UNL     1      -0.793   4.354  25.029  0.00  0.00    +0.025 A 
ATOM     14  C   UNL     1      -1.167   5.089  24.995  0.00  0.00    +0.099 A 
ATOM     15  N   UNL     1      -1.933   5.177  25.289  0.00  0.00    -0.242 NA
ATOM     16  C   UNL     1      -2.325   4.530  25.617  0.00  0.00    +0.099 A 
ATOM     17  C   UNL     1      -1.952   3.796  25.651  0.00  0.00    +0.025 A 
ENDBRANCH  10  12
ENDBRANCH   5   7
BRANCH   2   1
ATOM      1  C   UNL     1      -1.444  -1.100  25.570  0.00  0.00    +0.099 C 
BRANCH   1  18
ATOM     18  C   UNL     1      -2.203  -1.299  25.314  0.00  0.00    -0.003 A 
ATOM     19  C   UNL     1      -2.863  -0.960  25.676  0.00  0.00    +0.000 A 
ATOM     20  C   UNL     1      -3.621  -1.159  25.420  0.00  0.00    +0.040 A 
ATOM     21  C   UNL     1      -3.721  -1.696  24.802  0.00  0.00    +0.176 A 
ATOM     22  O   UNL     1      -4.395  -1.996  24.434  0.00  0.00    -0.435 OA
ATOM     23  C   UNL     1      -4.153  -2.520  23.845  0.00  0.00    +0.429 C 
ATOM     24  O   UNL     1      -3.329  -2.544  23.849  0.00  0.00    -0.435 OA
ATOM     25  C   UNL     1      -3.062  -2.035  24.440  0.00  0.00    +0.176 A 
ATOM     26  C   UNL     1      -2.302  -1.836  24.696  0.00  0.00    +0.037 A 
ENDBRANCH   1  18
ENDBRANCH   2   1
TORSDOF 4
ENDMDL
MODEL 4
REMARK VINA RESULT:     -11.3      2.004      5.681
REMARK  Name = 
REMARK  4 active torsions:
REMARK  status: ('A' for Active; 'I' for Inactive)
REMARK    1  A    between atoms: C_1  and  N_2
REMARK    2  A    between atoms: C_1  and  C_18
REMARK    3  A    between atoms: C_5  and  C_7
REMARK    4  A    between atoms: C_10  and  C_12
REMARK                            x       y       z     vdW  Elec       q    Type
REMARK                         _______ _______ _______ _____ _____    ______ ____
ROOT
ATOM      2  N   UNL     1      -0.317   1.636  25.204  0.00  0.00    -0.268 NA
ATOM      3  C   UNL     1       0.008   1.488  24.460  0.00  0.00    +0.073 C 
ATOM      4  C   UNL     1      -0.258   0.749  24.209  0.00  0.00    +0.028 C 
ATOM      5  C   UNL     1      -0.748   0.441  24.797  0.00  0.00    +0.096 C 
ATOM      6  C   UNL     1      -0.784   0.989  25.412  0.00  0.00    +0.082 C 
ENDROOT
BRANCH   5   7
ATOM      7  C   UNL     1      -1.134  -0.289  24.774  0.00  0.00    +0.227 A 
ATOM      8  N   UNL     1      -0.797  -1.021  24.947  0.00  0.00    -0.111 NA
ATOM      9  N   UNL     1      -1.380  -1.599  24.854  0.00  0.00    -0.107 NA
ATOM     10  C   UNL     1      -2.076  -1.221  24.623  0.00  0.00    +0.250 A 
ATOM     11  O   UNL     1      -1.925  -0.412  24.574  0.00  0.00    -0.419 OA
BRANCH  10  12
ATOM     12  C   UNL     1      -2.799  -1.590  24.469  0.00  0.00    +0.058 A 
ATOM     13  C   UNL     1      -2.892  -2.395  24.625  0.00  0.00    +0.025 A 
ATOM     14  C   UNL     1      -3.615  -2.763  24.471  0.00  0.00    +0.099 A 
ATOM     15  N   UNL     1      -4.242  -2.327  24.161  0.00  0.00    -0.242 NA
ATOM     16  C   UNL     1      -4.148  -1.522  24.006  0.00  0.00    +0.099 A 
ATOM     17  C   UNL     1      -3.426  -1.154  24.160  0.00  0.00    +0.025 A 
ENDBRANCH  10  12
ENDBRANCH   5   7
BRANCH   2   1
ATOM      1  C   UNL     1      -0.196   2.313  25.660  0.00  0.00    +0.099 C 
BRANCH   1  18
ATOM     18  C   UNL     1      -0.681   2.973  25.555  0.00  0.00    -0.003 A 
ATOM     19  C   UNL     1      -0.442   3.586  25.058  0.00  0.00    +0.000 A 
ATOM     20  C   UNL     1      -0.927   4.245  24.954  0.00  0.00    +0.040 A 
ATOM     21  C   UNL     1      -1.651   4.292  25.347  0.00  0.00    +0.176 A 
ATOM     22  O   UNL     1      -2.240   4.868  25.353  0.00  0.00    -0.435 OA
ATOM     23  C   UNL     1      -2.843   4.612  25.853  0.00  0.00    +0.429 C 
ATOM     24  O   UNL     1      -2.626   3.877  26.158  0.00  0.00    -0.435 OA
ATOM     25  C   UNL     1      -1.889   3.679  25.845  0.00  0.00    +0.176 A 
ATOM     26  C   UNL     1      -1.404   3.019  25.949  0.00  0.00    +0.037 A 
ENDBRANCH   1  18
ENDBRANCH   2   1
TORSDOF 4
ENDMDL
MODEL 5
REMARK VINA RESULT:      -9.2     15.778     18.509
REMARK  Name = 
REMARK  4 active torsions:
REMARK  status: ('A' for Active; 'I' for Inactive)
REMARK    1  A    between atoms: C_1  and  N_2
REMARK    2  A    between atoms: C_1  and  C_18
REMARK    3  A    between atoms: C_5  and  C_7
REMARK    4  A    between atoms: C_10  and  C_12
REMARK                            x       y       z     vdW  Elec       q    Type
REMARK                         _______ _______ _______ _____ _____    ______ ____
ROOT
ATOM      2  N   UNL     1      13.735   7.918  18.354  0.00  0.00    -0.268 NA
ATOM      3  C   UNL     1      13.266   7.407  17.907  0.00  0.00    +0.073 C 
ATOM      4  C   UNL     1      12.506   7.413  18.227  0.00  0.00    +0.028 C 
ATOM      5  C   UNL     1      12.505   7.927  18.873  0.00  0.00    +0.096 C 
ATOM      6  C   UNL     1      13.265   8.239  18.951  0.00  0.00    +0.082 C 
ENDROOT
BRANCH   5   7
ATOM      7  C   UNL     1      11.858   8.099  19.355  0.00  0.00    +0.227 A 
ATOM      8  N   UNL     1      11.111   8.333  19.098  0.00  0.00    -0.111 NA
ATOM      9  N   UNL     1      10.635   8.446  19.764  0.00  0.00    -0.107 NA
ATOM     10  C   UNL     1      11.091   8.280  20.432  0.00  0.00    +0.250 A 
ATOM     11  O   UNL     1      11.846   8.066  20.179  0.00  0.00    -0.419 OA
BRANCH  10  12
ATOM     12  C   UNL     1      10.835   8.322  21.215  0.00  0.00    +0.058 A 
ATOM     13  C   UNL     1      10.591   7.636  21.607  0.00  0.00    +0.025 A 
ATOM     14  C   UNL     1      10.335   7.679  22.390  0.00  0.00    +0.099 A 
ATOM     15  N   UNL     1      10.323   8.405  22.782  0.00  0.00    -0.242 NA
ATOM     16  C   UNL     1      10.566   9.089  22.390  0.00  0.00    +0.099 A 
ATOM     17  C   UNL     1      10.822   9.047  21.608  0.00  0.00    +0.025 A 
ENDBRANCH  10  12
ENDBRANCH   5   7
BRANCH   2   1
ATOM      1  C   UNL     1      14.534   8.078  18.227  0.00  0.00    +0.099 C 
BRANCH   1  18
ATOM     18  C   UNL     1      15.108   7.715  18.695  0.00  0.00    -0.003 A 
ATOM     19  C   UNL     1      15.399   8.099  19.365  0.00  0.00    +0.000 A 
ATOM     20  C   UNL     1      15.972   7.735  19.832  0.00  0.00    +0.040 A 
ATOM     21  C   UNL     1      16.256   6.987  19.631  0.00  0.00    +0.176 A 
ATOM     22  O   UNL     1      16.816   6.496  19.983  0.00  0.00    -0.435 OA
ATOM     23  C   UNL     1      16.873   5.808  19.532  0.00  0.00    +0.429 C 
ATOM     24  O   UNL     1      16.347   5.874  18.900  0.00  0.00    -0.435 OA
ATOM     25  C   UNL     1      15.966   6.603  18.961  0.00  0.00    +0.176 A 
ATOM     26  C   UNL     1      15.392   6.967  18.492  0.00  0.00    +0.037 A 
ENDBRANCH   1  18
ENDBRANCH   2   1
TORSDOF 4
ENDMDL
MODEL 6
REMARK VINA RESULT:      -8.6     17.360     18.911
REMARK  Name = 
REMARK  4 active torsions:
REMARK  status: ('A' for Active; 'I' for Inactive)
REMARK    1  A    between atoms: C_1  and  N_2
REMARK    2  A    between atoms: C_1  and  C_18
REMARK    3  A    between atoms: C_5  and  C_7
REMARK    4  A    between atoms: C_10  and  C_12
REMARK                            x       y       z     vdW  Elec       q    Type
REMARK                         _______ _______ _______ _____ _____    ______ ____
ROOT
ATOM      2  N   UNL     1      13.496   7.164  20.433  0.00  0.00    -0.268 NA
ATOM      3  C   UNL     1      13.063   6.473  20.304  0.00  0.00    +0.073 C 
ATOM      4  C   UNL     1      12.461   6.647  19.768  0.00  0.00    +0.028 C 
ATOM      5  C   UNL     1      12.522   7.444  19.565  0.00  0.00    +0.096 C 
ATOM      6  C   UNL     1      13.162   7.764  19.976  0.00  0.00    +0.082 C 
ENDROOT
BRANCH   5   7
ATOM      7  C   UNL     1      12.030   7.851  19.042  0.00  0.00    +0.227 A 
ATOM      8  N   UNL     1      11.318   8.220  19.235  0.00  0.00    -0.111 NA
ATOM      9  N   UNL     1      11.011   8.557  18.546  0.00  0.00    -0.107 NA
ATOM     10  C   UNL     1      11.534   8.394  17.929  0.00  0.00    +0.250 A 
ATOM     11  O   UNL     1      12.163   7.958  18.235  0.00  0.00    -0.419 OA
BRANCH  10  12
ATOM     12  C   UNL     1      11.442   8.627  17.142  0.00  0.00    +0.058 A 
ATOM     13  C   UNL     1      12.101   8.861  16.702  0.00  0.00    +0.025 A 
ATOM     14  C   UNL     1      12.009   9.094  15.916  0.00  0.00    +0.099 A 
ATOM     15  N   UNL     1      11.260   9.094  15.570  0.00  0.00    -0.242 NA
ATOM     16  C   UNL     1      10.603   8.860  16.011  0.00  0.00    +0.099 A 
ATOM     17  C   UNL     1      10.694   8.627  16.796  0.00  0.00    +0.025 A 
ENDBRANCH  10  12
ENDBRANCH   5   7
BRANCH   2   1
ATOM      1  C   UNL     1      14.149   7.241  20.931  0.00  0.00    +0.099 C 
BRANCH   1  18
ATOM     18  C   UNL     1      14.913   7.222  20.618  0.00  0.00    -0.003 A 
ATOM     19  C   UNL     1      15.358   7.915  20.574  0.00  0.00    +0.000 A 
ATOM     20  C   UNL     1      16.120   7.896  20.260  0.00  0.00    +0.040 A 
ATOM     21  C   UNL     1      16.438   7.184  19.991  0.00  0.00    +0.176 A 
ATOM     22  O   UNL     1      17.168   6.997  19.657  0.00  0.00    -0.435 OA
ATOM     23  C   UNL     1      17.175   6.188  19.495  0.00  0.00    +0.429 C 
ATOM     24  O   UNL     1      16.449   5.876  19.729  0.00  0.00    -0.435 OA
ATOM     25  C   UNL     1      15.993   6.491  20.035  0.00  0.00    +0.176 A 
ATOM     26  C   UNL     1      15.230   6.510  20.349  0.00  0.00    +0.037 A 
ENDBRANCH   1  18
ENDBRANCH   2   1
TORSDOF 4
ENDMDL
MODEL 7
REMARK VINA RESULT:      -8.3     15.785     18.638
REMARK  Name = 
REMARK  4 active torsions:
REMARK  status: ('A' for Active; 'I' for Inactive)
REMARK    1  A    between atoms: C_1  and  N_2
REMARK    2  A    between atoms: C_1  and  C_18
REMARK    3  A    between atoms: C_5  and  C_7
REMARK    4  A    between atoms: C_10  and  C_12
REMARK                            x       y       z     vdW  Elec       q    Type
REMARK                         _______ _______ _______ _____ _____    ______ ____
ROOT
ATOM      2  N   UNL     1      12.270   8.159  19.043  0.00  0.00    -0.268 NA
ATOM      3  C   UNL     1      12.161   7.603  18.442  0.00  0.00    +0.073 C 
ATOM      4  C   UNL     1      12.888   7.246  18.290  0.00  0.00    +0.028 C 
ATOM      5  C   UNL     1      13.447   7.581  18.796  0.00  0.00    +0.096 C 
ATOM      6  C   UNL     1      13.065   8.145  19.261  0.00  0.00    +0.082 C 
ENDROOT
BRANCH   5   7
ATOM      7  C   UNL     1      14.249   7.386  18.831  0.00  0.00    +0.227 A 
ATOM      8  N   UNL     1      14.783   7.420  18.205  0.00  0.00    -0.111 NA
ATOM      9  N   UNL     1      15.522   7.177  18.485  0.00  0.00    -0.107 NA
ATOM     10  C   UNL     1      15.441   6.994  19.286  0.00  0.00    +0.250 A 
ATOM     11  O   UNL     1      14.655   7.123  19.499  0.00  0.00    -0.419 OA
BRANCH  10  12
ATOM     12  C   UNL     1      16.042   6.728  19.785  0.00  0.00    +0.058 A 
ATOM     13  C   UNL     1      16.736   6.416  19.464  0.00  0.00    +0.025 A 
ATOM     14  C   UNL     1      17.337   6.150  19.963  0.00  0.00    +0.099 A 
ATOM     15  N   UNL     1      17.244   6.196  20.782  0.00  0.00    -0.242 NA
ATOM     16  C   UNL     1      16.550   6.508  21.101  0.00  0.00    +0.099 A 
ATOM     17  C   UNL     1      15.950   6.773  20.602  0.00  0.00    +0.025 A 
ENDBRANCH  10  12
ENDBRANCH   5   7
BRANCH   2   1
ATOM      1  C   UNL     1      11.686   8.643  19.367  0.00  0.00    +0.099 C 
BRANCH   1  18
ATOM     18  C   UNL     1      11.478   8.563  20.162  0.00  0.00    -0.003 A 
ATOM     19  C   UNL     1      11.777   9.090  20.722  0.00  0.00    +0.000 A 
ATOM     20  C   UNL     1      11.569   9.010  21.516  0.00  0.00    +0.040 A 
ATOM     21  C   UNL     1      11.062   8.403  21.751  0.00  0.00    +0.176 A 
ATOM     22  O   UNL     1      10.762   8.188  22.488  0.00  0.00    -0.435 OA
ATOM     23  C   UNL     1      10.278   7.528  22.385  0.00  0.00    +0.429 C 
ATOM     24  O   UNL     1      10.279   7.336  21.583  0.00  0.00    -0.435 OA
ATOM     25  C   UNL     1      10.764   7.876  21.191  0.00  0.00    +0.176 A 
ATOM     26  C   UNL     1      10.972   7.956  20.396  0.00  0.00    +0.037 A 
ENDBRANCH   1  18
ENDBRANCH   2   1
TORSDOF 4
ENDMDL
