MODEL 1
REMARK VINA RESULT:     -12.7      0.000      0.000
REMARK  Name = 
REMARK  6 active torsions:
REMARK  status: ('A' for Active; 'I' for Inactive)
REMARK    1  A    between atoms: C_2  and  C_5
REMARK    2  A    between atoms: N_7  and  C_8
REMARK    3  A    between atoms: C_8  and  C_9
REMARK    4  A    between atoms: C_11  and  C_12
REMARK    5  A    between atoms: C_12  and  C_13
REMARK    6  A    between atoms: C_16  and  C_18
REMARK                            x       y       z     vdW  Elec       q    Type
REMARK                         _______ _______ _______ _____ _____    ______ ____
ROOT
ATOM      9  C   UNL     1      -2.953   3.462  25.367  0.00  0.00    +0.167 C 
ATOM     10  O   UNL     1      -3.238   2.874  24.863  0.00  0.00    -0.354 OA
ATOM     11  C   UNL     1      -4.047   2.721  24.822  0.00  0.00    +0.121 C 
ATOM     25  C   UNL     1      -4.573   3.157  25.286  0.00  0.00    +0.033 C 
ATOM     26  C   UNL     1      -4.289   3.745  25.790  0.00  0.00    +0.038 C 
ATOM     27  C   UNL     1      -3.479   3.898  25.830  0.00  0.00    +0.181 C 
ATOM     28  O   UNL     1      -3.196   4.486  26.334  0.00  0.00    -0.220 OA
ENDROOT
BRANCH   9   8
ATOM      8  C   UNL     1      -2.144   3.615  25.408  0.00  0.00    +0.147 C 
BRANCH   8   7
ATOM      5  C   UNL     1      -0.796   3.148  25.322  0.00  0.00    +0.241 C 
ATOM      6  O   UNL     1      -0.528   3.928  25.294  0.00  0.00    -0.273 OA
ATOM      7  N   UNL     1      -1.604   2.992  25.378  0.00  0.00    -0.203 NA
BRANCH   5   2
ATOM      1  C   UNL     1       0.284   1.903  25.263  0.00  0.00    +0.009 C 
ATOM      2  C   UNL     1      -0.256   2.525  25.293  0.00  0.00    +0.071 C 
ATOM      3  C   UNL     1      -0.276   2.547  24.468  0.00  0.00    +0.009 C 
ATOM      4  C   UNL     1      -0.237   2.503  26.118  0.00  0.00    +0.009 C 
ENDBRANCH   5   2
ENDBRANCH   8   7
ENDBRANCH   9   8
BRANCH  11  12
ATOM     12  C   UNL     1      -4.331   2.133  24.319  0.00  0.00    +0.079 C 
BRANCH  12  13
ATOM     13  C   UNL     1      -4.443   1.366  24.602  0.00  0.00    +0.103 A 
ATOM     14  N   UNL     1      -5.001   1.133  25.163  0.00  0.00    -0.081 NA
ATOM     15  O   UNL     1      -4.919   0.321  25.281  0.00  0.00    -0.354 OA
ATOM     16  C   UNL     1      -4.311   0.052  24.793  0.00  0.00    +0.177 A 
ATOM     17  C   UNL     1      -4.016   0.698  24.373  0.00  0.00    +0.058 A 
BRANCH  16  18
ATOM     18  C   UNL     1      -4.044  -0.727  24.736  0.00  0.00    +0.037 A 
ATOM     19  C   UNL     1      -4.268  -1.193  24.094  0.00  0.00    +0.005 A 
ATOM     20  C   UNL     1      -4.001  -1.972  24.036  0.00  0.00    +0.030 A 
ATOM     21  C   UNL     1      -3.509  -2.284  24.621  0.00  0.00    +0.140 A 
ATOM     22  F   UNL     1      -3.242  -3.063  24.564  0.00  0.00    -0.204 F 
ATOM     23  C   UNL     1      -3.285  -1.817  25.263  0.00  0.00    +0.030 A 
ATOM     24  C   UNL     1      -3.552  -1.038  25.321  0.00  0.00    +0.005 A 
ENDBRANCH  16  18
ENDBRANCH  12  13
ENDBRANCH  11  12
TORSDOF 6
ENDMDL
MODEL 2
REMARK VINA RESULT:     -12.7      1.262      1.771
REMARK  Name = 
REMARK  6 active torsions:
REMARK  status: ('A' for Active; 'I' for Inactive)
REMARK    1  A    between atoms: C_2  and  C_5
REMARK    2  A    between atoms: N_7  and  C_8
REMARK    3  A    between atoms: C_8  and  C_9
REMARK    4  A    between atoms: C_11  and  C_12
REMARK    5  A    between atoms: C_12  and  C_13
REMARK    6  A    between atoms: C_16  and  C_18
REMARK                            x       y       z     vdW  Elec       q    Type
REMARK                         _______ _______ _______ _____ _____    ______ ____
ROOT
ATOM      9  C   UNL     1      -4.179   3.097  25.303  0.00  0.00    +0.167 C 
ATOM     10  O   UNL     1      -3.898   2.600  24.707  0.00  0.00    -0.354 OA
ATOM     11  C   UNL     1      -4.400   2.045  24.361  0.00  0.00    +0.121 C 
ATOM     25  C   UNL     1      -5.184   1.986  24.610  0.00  0.00    +0.033 C 
ATOM     26  C   UNL     1      -5.466   2.482  25.206  0.00  0.00    +0.038 C 
ATOM     27  C   UNL     1      -4.963   3.038  25.552  0.00  0.00    +0.181 C 
ATOM     28  O   UNL     1      -5.245   3.533  26.148  0.00  0.00    -0.220 OA
ENDROOT
BRANCH   9   8
ATOM      8  C   UNL     1      -3.677   3.651  25.649  0.00  0.00    +0.147 C 
BRANCH   8   7
ATOM      5  C   UNL     1      -2.389   4.268  25.713  0.00  0.00    +0.241 C 
ATOM      6  O   UNL     1      -2.559   4.542  26.473  0.00  0.00    -0.273 OA
ATOM      7  N   UNL     1      -2.948   3.823  25.301  0.00  0.00    -0.203 NA
BRANCH   5   2
ATOM      1  C   UNL     1      -0.933   4.611  25.018  0.00  0.00    +0.009 C 
ATOM      2  C   UNL     1      -1.661   4.440  25.365  0.00  0.00    +0.071 C 
ATOM      3  C   UNL     1      -1.358   3.726  25.649  0.00  0.00    +0.009 C 
ATOM      4  C   UNL     1      -1.964   5.153  25.082  0.00  0.00    +0.009 C 
ENDBRANCH   5   2
ENDBRANCH   8   7
ENDBRANCH   9   8
BRANCH  11  12
ATOM     12  C   UNL     1      -4.118   1.549  23.765  0.00  0.00    +0.079 C 
BRANCH  12  13
ATOM     13  C   UNL     1      -3.694   0.868  23.961  0.00  0.00    +0.103 A 
ATOM     14  N   UNL     1      -2.874   0.806  24.010  0.00  0.00    -0.081 NA
ATOM     15  O   UNL     1      -2.689   0.030  24.221  0.00  0.00    -0.354 OA
ATOM     16  C   UNL     1      -3.396  -0.387  24.303  0.00  0.00    +0.177 A 
ATOM     17  C   UNL     1      -4.018   0.131  24.142  0.00  0.00    +0.058 A 
BRANCH  16  18
ATOM     18  C   UNL     1      -3.469  -1.183  24.510  0.00  0.00    +0.037 A 
ATOM     19  C   UNL     1      -3.226  -1.439  25.255  0.00  0.00    +0.005 A 
ATOM     20  C   UNL     1      -3.299  -2.235  25.461  0.00  0.00    +0.030 A 
ATOM     21  C   UNL     1      -3.614  -2.773  24.921  0.00  0.00    +0.140 A 
ATOM     22  F   UNL     1      -3.687  -3.569  25.127  0.00  0.00    -0.204 F 
ATOM     23  C   UNL     1      -3.857  -2.517  24.176  0.00  0.00    +0.030 A 
ATOM     24  C   UNL     1      -3.784  -1.721  23.970  0.00  0.00    +0.005 A 
ENDBRANCH  16  18
ENDBRANCH  12  13
ENDBRANCH  11  12
TORSDOF 6
ENDMDL
MODEL 3
REMARK VINA RESULT:     -12.6      1.403      2.957
REMARK  Name = 
REMARK  6 active torsions:
REMARK  status: ('A' for Active; 'I' for Inactive)
REMARK    1  A    between atoms: C_2  and  C_5
REMARK    2  A    between atoms: N_7  and  C_8
REMARK    3  A    between atoms: C_8  and  C_9
REMARK    4  A    between atoms: C_11  and  C_12
REMARK    5  A    between atoms: C_12  and  C_13
REMARK    6  A    between atoms: C_16  and  C_18
REMARK                            x       y       z     vdW  Elec       q    Type
REMARK                         _______ _______ _______ _____ _____    ______ ____
ROOT
ATOM      9  C   UNL     1      -1.835   2.657  25.265  0.00  0.00    +0.167 C 
ATOM     10  O   UNL     1      -1.696   1.895  24.982  0.00  0.00    -0.354 OA
ATOM     11  C   UNL     1      -1.018   1.486  25.211  0.00  0.00    +0.121 C 
ATOM     25  C   UNL     1      -0.478   1.839  25.725  0.00  0.00    +0.033 C 
ATOM     26  C   UNL     1      -0.615   2.601  26.009  0.00  0.00    +0.038 C 
ATOM     27  C   UNL     1      -1.294   3.010  25.779  0.00  0.00    +0.181 C 
ATOM     28  O   UNL     1      -1.432   3.772  26.063  0.00  0.00    -0.220 OA
ENDROOT
BRANCH   9   8
ATOM      8  C   UNL     1      -2.513   3.066  25.035  0.00  0.00    +0.147 C 
BRANCH   8   7
ATOM      5  C   UNL     1      -3.917   3.075  24.772  0.00  0.00    +0.241 C 
ATOM      6  O   UNL     1      -3.845   3.814  24.411  0.00  0.00    -0.273 OA
ATOM      7  N   UNL     1      -3.251   2.702  25.084  0.00  0.00    -0.203 NA
BRANCH   5   2
ATOM      1  C   UNL     1      -5.394   2.346  24.868  0.00  0.00    +0.009 C 
ATOM      2  C   UNL     1      -4.656   2.711  24.821  0.00  0.00    +0.071 C 
ATOM      3  C   UNL     1      -4.540   2.378  24.074  0.00  0.00    +0.009 C 
ATOM      4  C   UNL     1      -4.771   3.043  25.567  0.00  0.00    +0.009 C 
ENDBRANCH   5   2
ENDBRANCH   8   7
ENDBRANCH   9   8
BRANCH  11  12
ATOM     12  C   UNL     1      -0.880   0.724  24.928  0.00  0.00    +0.079 C 
BRANCH  12  13
ATOM     13  C   UNL     1      -1.403   0.113  25.114  0.00  0.00    +0.103 A 
ATOM     14  N   UNL     1      -1.494  -0.238  25.855  0.00  0.00    -0.081 NA
ATOM     15  O   UNL     1      -2.074  -0.821  25.791  0.00  0.00    -0.354 OA
ATOM     16  C   UNL     1      -2.341  -0.831  25.010  0.00  0.00    +0.177 A 
ATOM     17  C   UNL     1      -1.926  -0.253  24.592  0.00  0.00    +0.058 A 
BRANCH  16  18
ATOM     18  C   UNL     1      -2.922  -1.331  24.702  0.00  0.00    +0.037 A 
ATOM     19  C   UNL     1      -3.602  -1.012  24.362  0.00  0.00    +0.005 A 
ATOM     20  C   UNL     1      -4.182  -1.512  24.054  0.00  0.00    +0.030 A 
ATOM     21  C   UNL     1      -4.080  -2.330  24.087  0.00  0.00    +0.140 A 
ATOM     22  F   UNL     1      -4.661  -2.830  23.779  0.00  0.00    -0.204 F 
ATOM     23  C   UNL     1      -3.400  -2.648  24.427  0.00  0.00    +0.030 A 
ATOM     24  C   UNL     1      -2.820  -2.148  24.735  0.00  0.00    +0.005 A 
ENDBRANCH  16  18
ENDBRANCH  12  13
ENDBRANCH  11  12
TORSDOF 6
ENDMDL
MODEL 4
REMARK VINA RESULT:     -12.1      2.233      5.194
REMARK  Name = 
REMARK  6 active torsions:
REMARK  status: ('A' for Active; 'I' for Inactive)
REMARK    1  A    between atoms: C_2  and  C_5
REMARK    2  A    between atoms: N_7  and  C_8
REMARK    3  A    between atoms: C_8  and  C_9
REMARK    4  A    between atoms: C_11  and  C_12
REMARK    5  A    between atoms: C_12  and  C_13
REMARK    6  A    between atoms: C_16  and  C_18
REMARK                            x       y       z     vdW  Elec       q    Type
REMARK                         _______ _______ _______ _____ _____    ______ ____
ROOT
ATOM      9  C   UNL     1      -3.432   0.041  25.103  0.00  0.00    +0.167 C 
ATOM     10  O   UNL     1      -2.785   0.487  24.851  0.00  0.00    -0.354 OA
ATOM     11  C   UNL     1      -2.019   0.203  24.961  0.00  0.00    +0.121 C 
ATOM     25  C   UNL     1      -1.899  -0.528  25.325  0.00  0.00    +0.033 C 
ATOM     26  C   UNL     1      -2.545  -0.975  25.577  0.00  0.00    +0.038 C 
ATOM     27  C   UNL     1      -3.312  -0.690  25.466  0.00  0.00    +0.181 C 
ATOM     28  O   UNL     1      -3.958  -1.136  25.719  0.00  0.00    -0.220 OA
ENDROOT
BRANCH   9   8
ATOM      8  C   UNL     1      -4.198   0.325  24.993  0.00  0.00    +0.147 C 
BRANCH   8   7
ATOM      5  C   UNL     1      -5.116   1.420  24.979  0.00  0.00    +0.241 C 
ATOM      6  O   UNL     1      -5.677   0.945  24.602  0.00  0.00    -0.273 OA
ATOM      7  N   UNL     1      -4.378   1.110  25.173  0.00  0.00    -0.203 NA
BRANCH   5   2
ATOM      1  C   UNL     1      -5.476   2.989  25.340  0.00  0.00    +0.009 C 
ATOM      2  C   UNL     1      -5.296   2.205  25.159  0.00  0.00    +0.071 C 
ATOM      3  C   UNL     1      -5.647   1.961  25.866  0.00  0.00    +0.009 C 
ATOM      4  C   UNL     1      -4.945   2.448  24.453  0.00  0.00    +0.009 C 
ENDBRANCH   5   2
ENDBRANCH   8   7
ENDBRANCH   9   8
BRANCH  11  12
ATOM     12  C   UNL     1      -1.374   0.649  24.709  0.00  0.00    +0.079 C 
BRANCH  12  13
ATOM     13  C   UNL     1      -1.198   1.367  25.078  0.00  0.00    +0.103 A 
ATOM     14  N   UNL     1      -0.788   1.459  25.786  0.00  0.00    -0.081 NA
ATOM     15  O   UNL     1      -0.739   2.267  25.949  0.00  0.00    -0.354 OA
ATOM     16  C   UNL     1      -1.119   2.673  25.340  0.00  0.00    +0.177 A 
ATOM     17  C   UNL     1      -1.404   2.116  24.801  0.00  0.00    +0.058 A 
BRANCH  16  18
ATOM     18  C   UNL     1      -1.202   3.492  25.280  0.00  0.00    +0.037 A 
ATOM     19  C   UNL     1      -1.866   3.864  25.597  0.00  0.00    +0.005 A 
ATOM     20  C   UNL     1      -1.948   4.683  25.537  0.00  0.00    +0.030 A 
ATOM     21  C   UNL     1      -1.364   5.129  25.160  0.00  0.00    +0.140 A 
ATOM     22  F   UNL     1      -1.447   5.948  25.100  0.00  0.00    -0.204 F 
ATOM     23  C   UNL     1      -0.701   4.757  24.844  0.00  0.00    +0.030 A 
ATOM     24  C   UNL     1      -0.619   3.938  24.903  0.00  0.00    +0.005 A 
ENDBRANCH  16  18
ENDBRANCH  12  13
ENDBRANCH  11  12
TORSDOF 6
ENDMDL
MODEL 5
REMARK VINA RESULT:     -11.8      2.217      3.752
REMARK  Name = 
REMARK  6 active torsions:
REMARK  status: ('A' for Active; 'I' for Inactive)
REMARK    1  A    between atoms: C_2  and  C_5
REMARK    2  A    between atoms: N_7  and  C_8
REMARK    3  A    between atoms: C_8  and  C_9
REMARK    4  A    between atoms: C_11  and  C_12
REMARK    5  A    between atoms: C_12  and  C_13
REMARK    6  A    between atoms: C_16  and  C_18
REMARK                            x       y       z     vdW  Elec       q    Type
REMARK                         _______ _______ _______ _____ _____    ______ ____
ROOT
ATOM      9  C   UNL     1      -0.886  -0.120  24.858  0.00  0.00    +0.167 C 
ATOM     10  O   UNL     1      -1.644  -0.138  25.183  0.00  0.00    -0.354 OA
ATOM     11  C   UNL     1      -2.115  -0.808  25.094  0.00  0.00    +0.121 C 
ATOM     25  C   UNL     1      -1.829  -1.462  24.681  0.00  0.00    +0.033 C 
ATOM     26  C   UNL     1      -1.071  -1.445  24.356  0.00  0.00    +0.038 C 
ATOM     27  C   UNL     1      -0.599  -0.773  24.444  0.00  0.00    +0.181 C 
ATOM     28  O   UNL     1       0.159  -0.757  24.119  0.00  0.00    -0.220 OA
ENDROOT
BRANCH   9   8
ATOM      8  C   UNL     1      -0.414   0.551  24.946  0.00  0.00    +0.147 C 
BRANCH   8   7
ATOM      5  C   UNL     1      -0.291   1.953  25.191  0.00  0.00    +0.241 C 
ATOM      6  O   UNL     1       0.532   1.886  25.165  0.00  0.00    -0.273 OA
ATOM      7  N   UNL     1      -0.763   1.286  25.082  0.00  0.00    -0.203 NA
BRANCH   5   2
ATOM      1  C   UNL     1      -0.988   3.424  25.462  0.00  0.00    +0.009 C 
ATOM      2  C   UNL     1      -0.640   2.689  25.327  0.00  0.00    +0.071 C 
ATOM      3  C   UNL     1      -0.720   2.800  24.512  0.00  0.00    +0.009 C 
ATOM      4  C   UNL     1      -0.560   2.577  26.140  0.00  0.00    +0.009 C 
ENDBRANCH   5   2
ENDBRANCH   8   7
ENDBRANCH   9   8
BRANCH  11  12
ATOM     12  C   UNL     1      -2.873  -0.826  25.419  0.00  0.00    +0.079 C 
BRANCH  12  13
ATOM     13  C   UNL     1      -3.466  -0.340  25.111  0.00  0.00    +0.103 A 
ATOM     14  N   UNL     1      -3.910  -0.490  24.433  0.00  0.00    -0.081 NA
ATOM     15  O   UNL     1      -4.436   0.138  24.330  0.00  0.00    -0.354 OA
ATOM     16  C   UNL     1      -4.316   0.675  24.944  0.00  0.00    +0.177 A 
ATOM     17  C   UNL     1      -3.715   0.380  25.427  0.00  0.00    +0.058 A 
BRANCH  16  18
ATOM     18  C   UNL     1      -4.724   1.384  25.056  0.00  0.00    +0.037 A 
ATOM     19  C   UNL     1      -5.462   1.380  25.425  0.00  0.00    +0.005 A 
ATOM     20  C   UNL     1      -5.870   2.089  25.536  0.00  0.00    +0.030 A 
ATOM     21  C   UNL     1      -5.539   2.800  25.278  0.00  0.00    +0.140 A 
ATOM     22  F   UNL     1      -5.948   3.509  25.390  0.00  0.00    -0.204 F 
ATOM     23  C   UNL     1      -4.802   2.803  24.910  0.00  0.00    +0.030 A 
ATOM     24  C   UNL     1      -4.394   2.094  24.798  0.00  0.00    +0.005 A 
ENDBRANCH  16  18
ENDBRANCH  12  13
ENDBRANCH  11  12
TORSDOF 6
ENDMDL
MODEL 6
REMARK VINA RESULT:      -8.8     15.787     18.473
REMARK  Name = 
REMARK  6 active torsions:
REMARK  status: ('A' for Active; 'I' for Inactive)
REMARK    1  A    between atoms: C_2  and  C_5
REMARK    2  A    between atoms: N_7  and  C_8
REMARK    3  A    between atoms: C_8  and  C_9
REMARK    4  A    between atoms: C_11  and  C_12
REMARK    5  A    between atoms: C_12  and  C_13
REMARK    6  A    between atoms: C_16  and  C_18
REMARK                            x       y       z     vdW  Elec       q    Type
REMARK                         _______ _______ _______ _____ _____    ______ ____
ROOT
ATOM      9  C   UNL     1      14.219   7.629  17.976  0.00  0.00    +0.167 C 
ATOM     10  O   UNL     1      13.743   8.117  18.440  0.00  0.00    -0.354 OA
ATOM     11  C   UNL     1      13.179   8.603  18.084  0.00  0.00    +0.121 C 
ATOM     25  C   UNL     1      13.092   8.600  17.263  0.00  0.00    +0.033 C 
ATOM     26  C   UNL     1      13.568   8.112  16.799  0.00  0.00    +0.038 C 
ATOM     27  C   UNL     1      14.132   7.626  17.156  0.00  0.00    +0.181 C 
ATOM     28  O   UNL     1      14.608   7.138  16.692  0.00  0.00    -0.220 OA
ENDROOT
BRANCH   9   8
ATOM      8  C   UNL     1      14.782   7.143  18.332  0.00  0.00    +0.147 C 
BRANCH   8   7
ATOM      5  C   UNL     1      15.514   6.745  19.494  0.00  0.00    +0.241 C 
ATOM      6  O   UNL     1      15.823   6.101  19.079  0.00  0.00    -0.273 OA
ATOM      7  N   UNL     1      14.995   7.265  19.120  0.00  0.00    -0.203 NA
BRANCH   5   2
ATOM      1  C   UNL     1      15.939   6.990  21.069  0.00  0.00    +0.009 C 
ATOM      2  C   UNL     1      15.726   6.867  20.282  0.00  0.00    +0.071 C 
ATOM      3  C   UNL     1      16.406   7.266  20.036  0.00  0.00    +0.009 C 
ATOM      4  C   UNL     1      15.046   6.469  20.526  0.00  0.00    +0.009 C 
ENDBRANCH   5   2
ENDBRANCH   8   7
ENDBRANCH   9   8
BRANCH  11  12
ATOM     12  C   UNL     1      12.703   9.091  18.547  0.00  0.00    +0.079 C 
BRANCH  12  13
ATOM     13  C   UNL     1      12.084   8.766  18.987  0.00  0.00    +0.103 A 
ATOM     14  N   UNL     1      11.418   8.389  18.681  0.00  0.00    -0.081 NA
ATOM     15  O   UNL     1      10.946   8.152  19.315  0.00  0.00    -0.354 OA
ATOM     16  C   UNL     1      11.321   8.383  20.013  0.00  0.00    +0.177 A 
ATOM     17  C   UNL     1      12.025   8.763  19.810  0.00  0.00    +0.058 A 
BRANCH  16  18
ATOM     18  C   UNL     1      11.041   8.257  20.779  0.00  0.00    +0.037 A 
ATOM     19  C   UNL     1      10.963   7.488  21.067  0.00  0.00    +0.005 A 
ATOM     20  C   UNL     1      10.683   7.361  21.833  0.00  0.00    +0.030 A 
ATOM     21  C   UNL     1      10.482   8.005  22.310  0.00  0.00    +0.140 A 
ATOM     22  F   UNL     1      10.202   7.878  23.076  0.00  0.00    -0.204 F 
ATOM     23  C   UNL     1      10.560   8.772  22.021  0.00  0.00    +0.030 A 
ATOM     24  C   UNL     1      10.840   8.899  21.255  0.00  0.00    +0.005 A 
ENDBRANCH  16  18
ENDBRANCH  12  13
ENDBRANCH  11  12
TORSDOF 6
ENDMDL
