MODEL 1
REMARK VINA RESULT:     -12.6      0.000      0.000
REMARK  Name = 
REMARK  6 active torsions:
REMARK  status: ('A' for Active; 'I' for Inactive)
REMARK    1  A    between atoms: C_2  and  C_3
REMARK    2  A    between atoms: C_2  and  C_25
REMARK    3  A    between atoms: C_10  and  N_11
REMARK    4  A    between atoms: C_12  and  C_14
REMARK    5  A    between atoms: N_27  and  C_28
REMARK    6  A    between atoms: C_28  and  C_29
REMARK                            x       y       z     vdW  Elec       q    Type
REMARK                         _______ _______ _______ _____ _____    ______ ____
ROOT
ATOM      3  C   UNL     1      -4.489   2.823  24.545  0.00  0.00    +0.039 C 
ATOM      4  C   UNL     1      -5.134   2.777  25.058  0.00  0.00    +0.003 C 
ATOM      5  C   UNL     1      -5.390   2.044  25.334  0.00  0.00    +0.000 C 
ATOM      6  C   UNL     1      -5.002   1.356  25.097  0.00  0.00    +0.002 C 
ATOM      7  C   UNL     1      -5.646   1.310  25.610  0.00  0.00    +0.000 C 
ATOM      8  C   UNL     1      -5.258   0.621  25.373  0.00  0.00    +0.002 C 
ATOM      9  C   UNL     1      -4.870  -0.066  25.136  0.00  0.00    +0.022 C 
ATOM     10  C   UNL     1      -4.225  -0.021  24.623  0.00  0.00    +0.096 C 
ATOM     20  C   UNL     1      -3.969   0.713  24.347  0.00  0.00    +0.022 C 
ATOM     21  C   UNL     1      -3.324   0.759  23.834  0.00  0.00    +0.002 C 
ATOM     22  C   UNL     1      -4.357   1.402  24.584  0.00  0.00    +0.032 C 
ATOM     23  C   UNL     1      -4.101   2.135  24.308  0.00  0.00    +0.152 C 
ATOM     24  O   UNL     1      -3.456   2.181  23.795  0.00  0.00    -0.223 OA
ENDROOT
BRANCH  10  11
ATOM     11  N   UNL     1      -3.837  -0.709  24.386  0.00  0.00    -0.202 NA
ATOM     12  C   UNL     1      -3.545  -1.234  24.951  0.00  0.00    +0.282 C 
ATOM     13  O   UNL     1      -3.641  -1.070  25.755  0.00  0.00    -0.267 OA
BRANCH  12  14
ATOM     14  C   UNL     1      -3.158  -1.923  24.714  0.00  0.00    +0.136 A 
ATOM     15  N   UNL     1      -2.334  -1.943  24.683  0.00  0.00    -0.239 NA
ATOM     16  C   UNL     1      -1.946  -2.632  24.446  0.00  0.00    +0.099 A 
ATOM     17  C   UNL     1      -2.383  -3.301  24.241  0.00  0.00    +0.021 A 
ATOM     18  C   UNL     1      -3.208  -3.281  24.273  0.00  0.00    +0.003 A 
ATOM     19  C   UNL     1      -3.594  -2.592  24.510  0.00  0.00    +0.024 A 
ENDBRANCH  12  14
ENDBRANCH  10  11
BRANCH   3   2
ATOM      1  C   UNL     1      -4.408   3.794  23.498  0.00  0.00    +0.010 C 
ATOM      2  C   UNL     1      -4.233   3.558  24.269  0.00  0.00    +0.081 C 
BRANCH   2  25
ATOM     25  C   UNL     1      -3.802   4.056  24.765  0.00  0.00    +0.241 C 
ATOM     26  O   UNL     1      -4.192   4.514  25.331  0.00  0.00    -0.273 OA
ATOM     27  N   UNL     1      -2.980   4.098  24.696  0.00  0.00    -0.201 NA
BRANCH  27  28
ATOM     28  C   UNL     1      -2.549   4.596  25.191  0.00  0.00    +0.141 C 
BRANCH  28  29
ATOM     29  C   UNL     1      -1.728   4.633  25.127  0.00  0.00    -0.001 A 
ATOM     30  C   UNL     1      -1.368   5.307  24.816  0.00  0.00    -0.003 A 
ATOM     31  C   UNL     1      -0.547   5.343  24.752  0.00  0.00    -0.000 A 
ATOM     32  C   UNL     1      -0.084   4.706  24.998  0.00  0.00    -0.000 A 
ATOM     33  C   UNL     1      -0.444   4.032  25.309  0.00  0.00    -0.000 A 
ATOM     34  C   UNL     1      -1.267   3.995  25.373  0.00  0.00    -0.003 A 
ENDBRANCH  28  29
ENDBRANCH  27  28
ENDBRANCH   2  25
ENDBRANCH   3   2
TORSDOF 6
ENDMDL
MODEL 2
REMARK VINA RESULT:     -11.1      1.039      5.250
REMARK  Name = 
REMARK  6 active torsions:
REMARK  status: ('A' for Active; 'I' for Inactive)
REMARK    1  A    between atoms: C_2  and  C_3
REMARK    2  A    between atoms: C_2  and  C_25
REMARK    3  A    between atoms: C_10  and  N_11
REMARK    4  A    between atoms: C_12  and  C_14
REMARK    5  A    between atoms: N_27  and  C_28
REMARK    6  A    between atoms: C_28  and  C_29
REMARK                            x       y       z     vdW  Elec       q    Type
REMARK                         _______ _______ _______ _____ _____    ______ ____
ROOT
ATOM      3  C   UNL     1      -4.292   0.280  24.526  0.00  0.00    +0.039 C 
ATOM      4  C   UNL     1      -4.972   0.462  24.958  0.00  0.00    +0.003 C 
ATOM      5  C   UNL     1      -5.089   1.227  25.240  0.00  0.00    +0.000 C 
ATOM      6  C   UNL     1      -4.528   1.812  25.091  0.00  0.00    +0.002 C 
ATOM      7  C   UNL     1      -5.207   1.993  25.522  0.00  0.00    +0.000 C 
ATOM      8  C   UNL     1      -4.645   2.579  25.373  0.00  0.00    +0.002 C 
ATOM      9  C   UNL     1      -4.084   3.164  25.223  0.00  0.00    +0.022 C 
ATOM     10  C   UNL     1      -3.403   2.983  24.792  0.00  0.00    +0.096 C 
ATOM     20  C   UNL     1      -3.286   2.217  24.510  0.00  0.00    +0.022 C 
ATOM     21  C   UNL     1      -2.606   2.036  24.078  0.00  0.00    +0.002 C 
ATOM     22  C   UNL     1      -3.848   1.631  24.659  0.00  0.00    +0.032 C 
ATOM     23  C   UNL     1      -3.730   0.865  24.377  0.00  0.00    +0.152 C 
ATOM     24  O   UNL     1      -3.051   0.684  23.946  0.00  0.00    -0.223 OA
ENDROOT
BRANCH  10  11
ATOM     11  N   UNL     1      -2.842   3.569  24.642  0.00  0.00    -0.202 NA
ATOM     12  C   UNL     1      -2.462   3.945  25.270  0.00  0.00    +0.282 C 
ATOM     13  O   UNL     1      -2.643   3.736  26.048  0.00  0.00    -0.267 OA
BRANCH  12  14
ATOM     14  C   UNL     1      -1.900   4.531  25.121  0.00  0.00    +0.136 A 
ATOM     15  N   UNL     1      -1.118   4.323  24.964  0.00  0.00    -0.239 NA
ATOM     16  C   UNL     1      -0.556   4.909  24.815  0.00  0.00    +0.099 A 
ATOM     17  C   UNL     1      -0.778   5.704  24.823  0.00  0.00    +0.021 A 
ATOM     18  C   UNL     1      -1.561   5.912  24.979  0.00  0.00    +0.003 A 
ATOM     19  C   UNL     1      -2.122   5.326  25.128  0.00  0.00    +0.024 A 
ENDBRANCH  12  14
ENDBRANCH  10  11
BRANCH   3   2
ATOM      1  C   UNL     1      -4.411  -0.687  23.480  0.00  0.00    +0.010 C 
ATOM      2  C   UNL     1      -4.175  -0.486  24.244  0.00  0.00    +0.081 C 
BRANCH   2  25
ATOM     25  C   UNL     1      -3.821  -1.053  24.728  0.00  0.00    +0.241 C 
ATOM     26  O   UNL     1      -4.255  -1.409  25.334  0.00  0.00    -0.273 OA
ATOM     27  N   UNL     1      -3.032  -1.266  24.606  0.00  0.00    -0.201 NA
BRANCH  27  28
ATOM     28  C   UNL     1      -2.679  -1.832  25.089  0.00  0.00    +0.141 C 
BRANCH  28  29
ATOM     29  C   UNL     1      -1.858  -1.915  25.096  0.00  0.00    -0.001 A 
ATOM     30  C   UNL     1      -1.401  -1.453  25.603  0.00  0.00    -0.003 A 
ATOM     31  C   UNL     1      -0.581  -1.536  25.610  0.00  0.00    -0.000 A 
ATOM     32  C   UNL     1      -0.217  -2.082  25.109  0.00  0.00    -0.000 A 
ATOM     33  C   UNL     1      -0.674  -2.544  24.601  0.00  0.00    -0.000 A 
ATOM     34  C   UNL     1      -1.496  -2.461  24.595  0.00  0.00    -0.003 A 
ENDBRANCH  28  29
ENDBRANCH  27  28
ENDBRANCH   2  25
ENDBRANCH   3   2
TORSDOF 6
ENDMDL
MODEL 3
REMARK VINA RESULT:     -10.9      2.139      6.361
REMARK  Name = 
REMARK  6 active torsions:
REMARK  status: ('A' for Active; 'I' for Inactive)
REMARK    1  A    between atoms: C_2  and  C_3
REMARK    2  A    between atoms: C_2  and  C_25
REMARK    3  A    between atoms: C_10  and  N_11
REMARK    4  A    between atoms: C_12  and  C_14
REMARK    5  A    between atoms: N_27  and  C_28
REMARK    6  A    between atoms: C_28  and  C_29
REMARK                            x       y       z     vdW  Elec       q    Type
REMARK                         _______ _______ _______ _____ _____    ______ ____
ROOT
ATOM      3  C   UNL     1      -0.511  -0.955  24.879  0.00  0.00    +0.039 C 
ATOM      4  C   UNL     1      -0.108  -1.036  24.162  0.00  0.00    +0.003 C 
ATOM      5  C   UNL     1       0.111  -0.366  23.735  0.00  0.00    +0.000 C 
ATOM      6  C   UNL     1      -0.072   0.385  24.022  0.00  0.00    +0.002 C 
ATOM      7  C   UNL     1       0.331   0.304  23.307  0.00  0.00    +0.000 C 
ATOM      8  C   UNL     1       0.147   1.056  23.594  0.00  0.00    +0.002 C 
ATOM      9  C   UNL     1      -0.036   1.806  23.881  0.00  0.00    +0.022 C 
ATOM     10  C   UNL     1      -0.439   1.887  24.598  0.00  0.00    +0.096 C 
ATOM     20  C   UNL     1      -0.658   1.217  25.025  0.00  0.00    +0.022 C 
ATOM     21  C   UNL     1      -1.061   1.298  25.741  0.00  0.00    +0.002 C 
ATOM     22  C   UNL     1      -0.475   0.466  24.738  0.00  0.00    +0.032 C 
ATOM     23  C   UNL     1      -0.694  -0.204  25.166  0.00  0.00    +0.152 C 
ATOM     24  O   UNL     1      -1.097  -0.124  25.881  0.00  0.00    -0.223 OA
ENDROOT
BRANCH  10  11
ATOM     11  N   UNL     1      -0.622   2.639  24.885  0.00  0.00    -0.202 NA
ATOM     12  C   UNL     1      -1.046   3.168  24.416  0.00  0.00    +0.282 C 
ATOM     13  O   UNL     1      -1.288   2.946  23.658  0.00  0.00    -0.267 OA
BRANCH  12  14
ATOM     14  C   UNL     1      -1.229   3.920  24.703  0.00  0.00    +0.136 A 
ATOM     15  N   UNL     1      -1.962   4.061  25.052  0.00  0.00    -0.239 NA
ATOM     16  C   UNL     1      -2.146   4.812  25.339  0.00  0.00    +0.099 A 
ATOM     17  C   UNL     1      -1.595   5.423  25.276  0.00  0.00    +0.021 A 
ATOM     18  C   UNL     1      -0.860   5.282  24.926  0.00  0.00    +0.003 A 
ATOM     19  C   UNL     1      -0.678   4.530  24.639  0.00  0.00    +0.024 A 
ENDBRANCH  12  14
ENDBRANCH  10  11
BRANCH   3   2
ATOM      1  C   UNL     1      -0.398  -1.771  26.047  0.00  0.00    +0.010 C 
ATOM      2  C   UNL     1      -0.730  -1.626  25.306  0.00  0.00    +0.081 C 
BRANCH   2  25
ATOM     25  C   UNL     1      -1.283  -2.152  24.992  0.00  0.00    +0.241 C 
ATOM     26  O   UNL     1      -1.031  -2.863  24.655  0.00  0.00    -0.273 OA
ATOM     27  N   UNL     1      -2.087  -1.968  25.014  0.00  0.00    -0.201 NA
BRANCH  27  28
ATOM     28  C   UNL     1      -2.639  -2.494  24.701  0.00  0.00    +0.141 C 
BRANCH  28  29
ATOM     29  C   UNL     1      -3.358  -2.213  24.409  0.00  0.00    -0.001 A 
ATOM     30  C   UNL     1      -3.676  -1.511  24.702  0.00  0.00    -0.003 A 
ATOM     31  C   UNL     1      -4.394  -1.231  24.410  0.00  0.00    -0.000 A 
ATOM     32  C   UNL     1      -4.795  -1.652  23.825  0.00  0.00    -0.000 A 
ATOM     33  C   UNL     1      -4.476  -2.355  23.531  0.00  0.00    -0.000 A 
ATOM     34  C   UNL     1      -3.757  -2.635  23.824  0.00  0.00    -0.003 A 
ENDBRANCH  28  29
ENDBRANCH  27  28
ENDBRANCH   2  25
ENDBRANCH   3   2
TORSDOF 6
ENDMDL
MODEL 4
REMARK VINA RESULT:     -10.8      3.560      5.467
REMARK  Name = 
REMARK  6 active torsions:
REMARK  status: ('A' for Active; 'I' for Inactive)
REMARK    1  A    between atoms: C_2  and  C_3
REMARK    2  A    between atoms: C_2  and  C_25
REMARK    3  A    between atoms: C_10  and  N_11
REMARK    4  A    between atoms: C_12  and  C_14
REMARK    5  A    between atoms: N_27  and  C_28
REMARK    6  A    between atoms: C_28  and  C_29
REMARK                            x       y       z     vdW  Elec       q    Type
REMARK                         _______ _______ _______ _____ _____    ______ ____
ROOT
ATOM      3  C   UNL     1       0.023   0.649  23.952  0.00  0.00    +0.039 C 
ATOM      4  C   UNL     1       0.430   1.364  24.018  0.00  0.00    +0.003 C 
ATOM      5  C   UNL     1       0.037   2.041  24.278  0.00  0.00    +0.000 C 
ATOM      6  C   UNL     1      -0.764   2.003  24.471  0.00  0.00    +0.002 C 
ATOM      7  C   UNL     1      -0.357   2.717  24.537  0.00  0.00    +0.000 C 
ATOM      8  C   UNL     1      -1.158   2.680  24.731  0.00  0.00    +0.002 C 
ATOM      9  C   UNL     1      -1.959   2.642  24.924  0.00  0.00    +0.022 C 
ATOM     10  C   UNL     1      -2.367   1.927  24.858  0.00  0.00    +0.096 C 
ATOM     20  C   UNL     1      -1.973   1.251  24.599  0.00  0.00    +0.022 C 
ATOM     21  C   UNL     1      -2.380   0.536  24.533  0.00  0.00    +0.002 C 
ATOM     22  C   UNL     1      -1.171   1.288  24.405  0.00  0.00    +0.032 C 
ATOM     23  C   UNL     1      -0.778   0.612  24.146  0.00  0.00    +0.152 C 
ATOM     24  O   UNL     1      -1.185  -0.103  24.079  0.00  0.00    -0.223 OA
ENDROOT
BRANCH  10  11
ATOM     11  N   UNL     1      -3.168   1.890  25.052  0.00  0.00    -0.202 NA
ATOM     12  C   UNL     1      -3.674   2.503  24.834  0.00  0.00    +0.282 C 
ATOM     13  O   UNL     1      -3.379   3.155  24.422  0.00  0.00    -0.267 OA
BRANCH  12  14
ATOM     14  C   UNL     1      -4.475   2.466  25.028  0.00  0.00    +0.136 A 
ATOM     15  N   UNL     1      -4.977   1.957  24.616  0.00  0.00    -0.239 NA
ATOM     16  C   UNL     1      -5.778   1.920  24.810  0.00  0.00    +0.099 A 
ATOM     17  C   UNL     1      -6.077   2.393  25.416  0.00  0.00    +0.021 A 
ATOM     18  C   UNL     1      -5.576   2.903  25.828  0.00  0.00    +0.003 A 
ATOM     19  C   UNL     1      -4.775   2.939  25.634  0.00  0.00    +0.024 A 
ENDBRANCH  12  14
ENDBRANCH  10  11
BRANCH   3   2
ATOM      1  C   UNL     1       0.272  -0.756  24.053  0.00  0.00    +0.010 C 
ATOM      2  C   UNL     1       0.418  -0.028  23.693  0.00  0.00    +0.081 C 
BRANCH   2  25
ATOM     25  C   UNL     1       0.959   0.024  23.072  0.00  0.00    +0.241 C 
ATOM     26  O   UNL     1       0.690   0.061  22.292  0.00  0.00    -0.273 OA
ATOM     27  N   UNL     1       1.769   0.038  23.231  0.00  0.00    -0.201 NA
BRANCH  27  28
ATOM     28  C   UNL     1       2.309   0.090  22.611  0.00  0.00    +0.141 C 
BRANCH  28  29
ATOM     29  C   UNL     1       3.111   0.202  22.770  0.00  0.00    -0.001 A 
ATOM     30  C   UNL     1       3.469   0.924  22.598  0.00  0.00    -0.003 A 
ATOM     31  C   UNL     1       4.271   1.035  22.758  0.00  0.00    -0.000 A 
ATOM     32  C   UNL     1       4.715   0.424  23.089  0.00  0.00    -0.000 A 
ATOM     33  C   UNL     1       4.356  -0.299  23.261  0.00  0.00    -0.000 A 
ATOM     34  C   UNL     1       3.554  -0.410  23.101  0.00  0.00    -0.003 A 
ENDBRANCH  28  29
ENDBRANCH  27  28
ENDBRANCH   2  25
ENDBRANCH   3   2
TORSDOF 6
ENDMDL
MODEL 5
REMARK VINA RESULT:     -10.6      2.061      3.515
REMARK  Name = 
REMARK  6 active torsions:
REMARK  status: ('A' for Active; 'I' for Inactive)
REMARK    1  A    between atoms: C_2  and  C_3
REMARK    2  A    between atoms: C_2  and  C_25
REMARK    3  A    between atoms: C_10  and  N_11
REMARK    4  A    between atoms: C_12  and  C_14
REMARK    5  A    between atoms: N_27  and  C_28
REMARK    6  A    between atoms: C_28  and  C_29
REMARK                            x       y       z     vdW  Elec       q    Type
REMARK                         _______ _______ _______ _____ _____    ______ ____
ROOT
ATOM      3  C   UNL     1      -0.211   2.085  25.298  0.00  0.00    +0.039 C 
ATOM      4  C   UNL     1       0.287   2.106  24.639  0.00  0.00    +0.003 C 
ATOM      5  C   UNL     1       0.314   1.464  24.123  0.00  0.00    +0.000 C 
ATOM      6  C   UNL     1      -0.155   0.801  24.264  0.00  0.00    +0.002 C 
ATOM      7  C   UNL     1       0.341   0.822  23.607  0.00  0.00    +0.000 C 
ATOM      8  C   UNL     1      -0.128   0.158  23.747  0.00  0.00    +0.002 C 
ATOM      9  C   UNL     1      -0.597  -0.505  23.888  0.00  0.00    +0.022 C 
ATOM     10  C   UNL     1      -1.094  -0.526  24.547  0.00  0.00    +0.096 C 
ATOM     20  C   UNL     1      -1.122   0.116  25.064  0.00  0.00    +0.022 C 
ATOM     21  C   UNL     1      -1.619   0.095  25.722  0.00  0.00    +0.002 C 
ATOM     22  C   UNL     1      -0.653   0.780  24.923  0.00  0.00    +0.032 C 
ATOM     23  C   UNL     1      -0.680   1.422  25.439  0.00  0.00    +0.152 C 
ATOM     24  O   UNL     1      -1.177   1.401  26.098  0.00  0.00    -0.223 OA
ENDROOT
BRANCH  10  11
ATOM     11  N   UNL     1      -1.564  -1.190  24.688  0.00  0.00    -0.202 NA
ATOM     12  C   UNL     1      -2.196  -1.362  24.188  0.00  0.00    +0.282 C 
ATOM     13  O   UNL     1      -2.361  -0.869  23.546  0.00  0.00    -0.267 OA
BRANCH  12  14
ATOM     14  C   UNL     1      -2.666  -2.026  24.329  0.00  0.00    +0.136 A 
ATOM     15  N   UNL     1      -2.316  -2.740  24.548  0.00  0.00    -0.239 NA
ATOM     16  C   UNL     1      -2.785  -3.404  24.688  0.00  0.00    +0.099 A 
ATOM     17  C   UNL     1      -3.605  -3.353  24.610  0.00  0.00    +0.021 A 
ATOM     18  C   UNL     1      -3.956  -2.638  24.392  0.00  0.00    +0.003 A 
ATOM     19  C   UNL     1      -3.485  -1.975  24.251  0.00  0.00    +0.024 A 
ENDBRANCH  12  14
ENDBRANCH  10  11
BRANCH   3   2
ATOM      1  C   UNL     1       0.167   2.699  26.533  0.00  0.00    +0.010 C 
ATOM      2  C   UNL     1      -0.238   2.728  25.815  0.00  0.00    +0.081 C 
BRANCH   2  25
ATOM     25  C   UNL     1      -0.671   3.400  25.613  0.00  0.00    +0.241 C 
ATOM     26  O   UNL     1      -0.287   4.059  25.295  0.00  0.00    -0.273 OA
ATOM     27  N   UNL     1      -1.489   3.415  25.729  0.00  0.00    -0.201 NA
BRANCH  27  28
ATOM     28  C   UNL     1      -1.921   4.087  25.528  0.00  0.00    +0.141 C 
BRANCH  28  29
ATOM     29  C   UNL     1      -2.740   4.041  25.442  0.00  0.00    -0.001 A 
ATOM     30  C   UNL     1      -3.073   3.957  24.692  0.00  0.00    -0.003 A 
ATOM     31  C   UNL     1      -3.892   3.910  24.608  0.00  0.00    -0.000 A 
ATOM     32  C   UNL     1      -4.379   3.948  25.273  0.00  0.00    -0.000 A 
ATOM     33  C   UNL     1      -4.046   4.032  26.023  0.00  0.00    -0.000 A 
ATOM     34  C   UNL     1      -3.226   4.079  26.108  0.00  0.00    -0.003 A 
ENDBRANCH  28  29
ENDBRANCH  27  28
ENDBRANCH   2  25
ENDBRANCH   3   2
TORSDOF 6
ENDMDL
MODEL 6
REMARK VINA RESULT:     -10.5      3.029      5.281
REMARK  Name = 
REMARK  6 active torsions:
REMARK  status: ('A' for Active; 'I' for Inactive)
REMARK    1  A    between atoms: C_2  and  C_3
REMARK    2  A    between atoms: C_2  and  C_25
REMARK    3  A    between atoms: C_10  and  N_11
REMARK    4  A    between atoms: C_12  and  C_14
REMARK    5  A    between atoms: N_27  and  C_28
REMARK    6  A    between atoms: C_28  and  C_29
REMARK                            x       y       z     vdW  Elec       q    Type
REMARK                         _______ _______ _______ _____ _____    ______ ____
ROOT
ATOM      3  C   UNL     1      -2.514   1.783  24.431  0.00  0.00    +0.039 C 
ATOM      4  C   UNL     1      -2.343   2.215  25.113  0.00  0.00    +0.003 C 
ATOM      5  C   UNL     1      -1.562   2.293  25.367  0.00  0.00    +0.000 C 
ATOM      6  C   UNL     1      -0.952   1.941  24.939  0.00  0.00    +0.002 C 
ATOM      7  C   UNL     1      -0.782   2.372  25.620  0.00  0.00    +0.000 C 
ATOM      8  C   UNL     1      -0.171   2.019  25.192  0.00  0.00    +0.002 C 
ATOM      9  C   UNL     1       0.439   1.666  24.764  0.00  0.00    +0.022 C 
ATOM     10  C   UNL     1       0.268   1.234  24.081  0.00  0.00    +0.096 C 
ATOM     20  C   UNL     1      -0.513   1.156  23.828  0.00  0.00    +0.022 C 
ATOM     21  C   UNL     1      -0.684   0.724  23.146  0.00  0.00    +0.002 C 
ATOM     22  C   UNL     1      -1.124   1.509  24.256  0.00  0.00    +0.032 C 
ATOM     23  C   UNL     1      -1.904   1.430  24.003  0.00  0.00    +0.152 C 
ATOM     24  O   UNL     1      -2.075   0.999  23.321  0.00  0.00    -0.223 OA
ENDROOT
BRANCH  10  11
ATOM     11  N   UNL     1       0.879   0.881  23.653  0.00  0.00    -0.202 NA
ATOM     12  C   UNL     1       1.598   1.273  23.560  0.00  0.00    +0.282 C 
ATOM     13  O   UNL     1       1.708   2.020  23.897  0.00  0.00    -0.267 OA
BRANCH  12  14
ATOM     14  C   UNL     1       2.209   0.920  23.132  0.00  0.00    +0.136 A 
ATOM     15  N   UNL     1       2.070   0.226  22.710  0.00  0.00    -0.239 NA
ATOM     16  C   UNL     1       2.681  -0.127  22.281  0.00  0.00    +0.099 A 
ATOM     17  C   UNL     1       3.431   0.216  22.277  0.00  0.00    +0.021 A 
ATOM     18  C   UNL     1       3.571   0.911  22.700  0.00  0.00    +0.003 A 
ATOM     19  C   UNL     1       2.960   1.262  23.127  0.00  0.00    +0.024 A 
ENDBRANCH  12  14
ENDBRANCH  10  11
BRANCH   3   2
ATOM      1  C   UNL     1      -3.580   2.174  23.561  0.00  0.00    +0.010 C 
ATOM      2  C   UNL     1      -3.296   1.705  24.177  0.00  0.00    +0.081 C 
BRANCH   2  25
ATOM     25  C   UNL     1      -3.793   1.156  24.541  0.00  0.00    +0.241 C 
ATOM     26  O   UNL     1      -4.336   1.406  25.111  0.00  0.00    -0.273 OA
ATOM     27  N   UNL     1      -3.749   0.358  24.335  0.00  0.00    -0.201 NA
BRANCH  27  28
ATOM     28  C   UNL     1      -4.246  -0.190  24.698  0.00  0.00    +0.141 C 
BRANCH  28  29
ATOM     29  C   UNL     1      -4.096  -0.997  24.623  0.00  0.00    -0.001 A 
ATOM     30  C   UNL     1      -4.362  -1.407  23.958  0.00  0.00    -0.003 A 
ATOM     31  C   UNL     1      -4.211  -2.214  23.883  0.00  0.00    -0.000 A 
ATOM     32  C   UNL     1      -3.794  -2.613  24.473  0.00  0.00    -0.000 A 
ATOM     33  C   UNL     1      -3.528  -2.203  25.138  0.00  0.00    -0.000 A 
ATOM     34  C   UNL     1      -3.679  -1.395  25.213  0.00  0.00    -0.003 A 
ENDBRANCH  28  29
ENDBRANCH  27  28
ENDBRANCH   2  25
ENDBRANCH   3   2
TORSDOF 6
ENDMDL
MODEL 7
REMARK VINA RESULT:     -10.4      2.624      4.447
REMARK  Name = 
REMARK  6 active torsions:
REMARK  status: ('A' for Active; 'I' for Inactive)
REMARK    1  A    between atoms: C_2  and  C_3
REMARK    2  A    between atoms: C_2  and  C_25
REMARK    3  A    between atoms: C_10  and  N_11
REMARK    4  A    between atoms: C_12  and  C_14
REMARK    5  A    between atoms: N_27  and  C_28
REMARK    6  A    between atoms: C_28  and  C_29
REMARK                            x       y       z     vdW  Elec       q    Type
REMARK                         _______ _______ _______ _____ _____    ______ ____
ROOT
ATOM      3  C   UNL     1      -1.933   3.600  25.464  0.00  0.00    +0.039 C 
ATOM      4  C   UNL     1      -1.626   3.519  26.227  0.00  0.00    +0.003 C 
ATOM      5  C   UNL     1      -0.953   3.061  26.354  0.00  0.00    +0.000 C 
ATOM      6  C   UNL     1      -0.585   2.684  25.720  0.00  0.00    +0.002 C 
ATOM      7  C   UNL     1      -0.279   2.603  26.481  0.00  0.00    +0.000 C 
ATOM      8  C   UNL     1       0.089   2.226  25.846  0.00  0.00    +0.002 C 
ATOM      9  C   UNL     1       0.457   1.849  25.212  0.00  0.00    +0.022 C 
ATOM     10  C   UNL     1       0.151   1.930  24.450  0.00  0.00    +0.096 C 
ATOM     20  C   UNL     1      -0.523   2.388  24.323  0.00  0.00    +0.022 C 
ATOM     21  C   UNL     1      -0.829   2.469  23.561  0.00  0.00    +0.002 C 
ATOM     22  C   UNL     1      -0.891   2.765  24.957  0.00  0.00    +0.032 C 
ATOM     23  C   UNL     1      -1.565   3.223  24.830  0.00  0.00    +0.152 C 
ATOM     24  O   UNL     1      -1.871   3.304  24.068  0.00  0.00    -0.223 OA
ENDROOT
BRANCH  10  11
ATOM     11  N   UNL     1       0.520   1.552  23.815  0.00  0.00    -0.202 NA
ATOM     12  C   UNL     1       0.638   0.736  23.832  0.00  0.00    +0.282 C 
ATOM     13  O   UNL     1       0.388   0.297  24.485  0.00  0.00    -0.267 OA
BRANCH  12  14
ATOM     14  C   UNL     1       1.007   0.359  23.198  0.00  0.00    +0.136 A 
ATOM     15  N   UNL     1       1.807   0.487  23.050  0.00  0.00    -0.239 NA
ATOM     16  C   UNL     1       2.176   0.109  22.415  0.00  0.00    +0.099 A 
ATOM     17  C   UNL     1       1.743  -0.397  21.929  0.00  0.00    +0.021 A 
ATOM     18  C   UNL     1       0.940  -0.525  22.077  0.00  0.00    +0.003 A 
ATOM     19  C   UNL     1       0.573  -0.147  22.712  0.00  0.00    +0.024 A 
ENDBRANCH  12  14
ENDBRANCH  10  11
BRANCH   3   2
ATOM      1  C   UNL     1      -2.579   4.702  24.822  0.00  0.00    +0.010 C 
ATOM      2  C   UNL     1      -2.607   4.059  25.338  0.00  0.00    +0.081 C 
BRANCH   2  25
ATOM     25  C   UNL     1      -3.310   3.874  25.728  0.00  0.00    +0.241 C 
ATOM     26  O   UNL     1      -3.479   4.216  26.460  0.00  0.00    -0.273 OA
ATOM     27  N   UNL     1      -3.845   3.346  25.386  0.00  0.00    -0.201 NA
BRANCH  27  28
ATOM     28  C   UNL     1      -4.548   3.162  25.776  0.00  0.00    +0.141 C 
BRANCH  28  29
ATOM     29  C   UNL     1      -5.042   2.572  25.478  0.00  0.00    -0.001 A 
ATOM     30  C   UNL     1      -4.746   1.813  25.346  0.00  0.00    -0.003 A 
ATOM     31  C   UNL     1      -5.241   1.224  25.049  0.00  0.00    -0.000 A 
ATOM     32  C   UNL     1      -6.032   1.393  24.884  0.00  0.00    -0.000 A 
ATOM     33  C   UNL     1      -6.327   2.152  25.017  0.00  0.00    -0.000 A 
ATOM     34  C   UNL     1      -5.832   2.742  25.314  0.00  0.00    -0.003 A 
ENDBRANCH  28  29
ENDBRANCH  27  28
ENDBRANCH   2  25
ENDBRANCH   3   2
TORSDOF 6
ENDMDL
MODEL 8
REMARK VINA RESULT:     -10.2      1.856      5.721
REMARK  Name = 
REMARK  6 active torsions:
REMARK  status: ('A' for Active; 'I' for Inactive)
REMARK    1  A    between atoms: C_2  and  C_3
REMARK    2  A    between atoms: C_2  and  C_25
REMARK    3  A    between atoms: C_10  and  N_11
REMARK    4  A    between atoms: C_12  and  C_14
REMARK    5  A    between atoms: N_27  and  C_28
REMARK    6  A    between atoms: C_28  and  C_29
REMARK                            x       y       z     vdW  Elec       q    Type
REMARK                         _______ _______ _______ _____ _____    ______ ____
ROOT
ATOM      3  C   UNL     1      -0.618   0.835  24.402  0.00  0.00    +0.039 C 
ATOM      4  C   UNL     1      -0.074   1.173  24.923  0.00  0.00    +0.003 C 
ATOM      5  C   UNL     1      -0.278   1.847  25.352  0.00  0.00    +0.000 C 
ATOM      6  C   UNL     1      -1.025   2.182  25.263  0.00  0.00    +0.002 C 
ATOM      7  C   UNL     1      -0.482   2.520  25.782  0.00  0.00    +0.000 C 
ATOM      8  C   UNL     1      -1.230   2.856  25.692  0.00  0.00    +0.002 C 
ATOM      9  C   UNL     1      -1.978   3.192  25.603  0.00  0.00    +0.022 C 
ATOM     10  C   UNL     1      -2.522   2.853  25.082  0.00  0.00    +0.096 C 
ATOM     20  C   UNL     1      -2.318   2.180  24.653  0.00  0.00    +0.022 C 
ATOM     21  C   UNL     1      -2.862   1.842  24.133  0.00  0.00    +0.002 C 
ATOM     22  C   UNL     1      -1.570   1.844  24.742  0.00  0.00    +0.032 C 
ATOM     23  C   UNL     1      -1.366   1.170  24.313  0.00  0.00    +0.152 C 
ATOM     24  O   UNL     1      -1.910   0.832  23.793  0.00  0.00    -0.223 OA
ENDROOT
BRANCH  10  11
ATOM     11  N   UNL     1      -3.271   3.190  24.993  0.00  0.00    -0.202 NA
ATOM     12  C   UNL     1      -3.726   3.365  25.657  0.00  0.00    +0.282 C 
ATOM     13  O   UNL     1      -3.434   3.205  26.413  0.00  0.00    -0.267 OA
BRANCH  12  14
ATOM     14  C   UNL     1      -4.475   3.701  25.568  0.00  0.00    +0.136 A 
ATOM     15  N   UNL     1      -4.550   4.476  25.296  0.00  0.00    -0.239 NA
ATOM     16  C   UNL     1      -5.298   4.812  25.207  0.00  0.00    +0.099 A 
ATOM     17  C   UNL     1      -5.972   4.373  25.390  0.00  0.00    +0.021 A 
ATOM     18  C   UNL     1      -5.897   3.597  25.662  0.00  0.00    +0.003 A 
ATOM     19  C   UNL     1      -5.148   3.262  25.751  0.00  0.00    +0.024 A 
ENDBRANCH  12  14
ENDBRANCH  10  11
BRANCH   3   2
ATOM      1  C   UNL     1      -0.135   0.232  23.199  0.00  0.00    +0.010 C 
ATOM      2  C   UNL     1      -0.414   0.161  23.972  0.00  0.00    +0.081 C 
BRANCH   2  25
ATOM     25  C   UNL     1      -0.488  -0.585  24.316  0.00  0.00    +0.241 C 
ATOM     26  O   UNL     1       0.163  -0.937  24.684  0.00  0.00    -0.273 OA
ATOM     27  N   UNL     1      -1.212  -0.980  24.293  0.00  0.00    -0.201 NA
BRANCH  27  28
ATOM     28  C   UNL     1      -1.287  -1.726  24.637  0.00  0.00    +0.141 C 
BRANCH  28  29
ATOM     29  C   UNL     1      -2.032  -2.069  24.723  0.00  0.00    -0.001 A 
ATOM     30  C   UNL     1      -2.488  -1.904  25.391  0.00  0.00    -0.003 A 
ATOM     31  C   UNL     1      -3.232  -2.248  25.476  0.00  0.00    -0.000 A 
ATOM     32  C   UNL     1      -3.522  -2.755  24.893  0.00  0.00    -0.000 A 
ATOM     33  C   UNL     1      -3.067  -2.920  24.226  0.00  0.00    -0.000 A 
ATOM     34  C   UNL     1      -2.321  -2.576  24.140  0.00  0.00    -0.003 A 
ENDBRANCH  28  29
ENDBRANCH  27  28
ENDBRANCH   2  25
ENDBRANCH   3   2
TORSDOF 6
ENDMDL
MODEL 9
REMARK VINA RESULT:     -10.1      2.739      4.254
REMARK  Name = 
REMARK  6 active torsions:
REMARK  status: ('A' for Active; 'I' for Inactive)
REMARK    1  A    between atoms: C_2  and  C_3
REMARK    2  A    between atoms: C_2  and  C_25
REMARK    3  A    between atoms: C_10  and  N_11
REMARK    4  A    between atoms: C_12  and  C_14
REMARK    5  A    between atoms: N_27  and  C_28
REMARK    6  A    between atoms: C_28  and  C_29
REMARK                            x       y       z     vdW  Elec       q    Type
REMARK                         _______ _______ _______ _____ _____    ______ ____
ROOT
ATOM      3  C   UNL     1      -3.382  -0.097  24.777  0.00  0.00    +0.039 C 
ATOM      4  C   UNL     1      -3.269  -0.617  25.408  0.00  0.00    +0.003 C 
ATOM      5  C   UNL     1      -2.508  -0.862  25.609  0.00  0.00    +0.000 C 
ATOM      6  C   UNL     1      -1.860  -0.589  25.180  0.00  0.00    +0.002 C 
ATOM      7  C   UNL     1      -1.748  -1.108  25.810  0.00  0.00    +0.000 C 
ATOM      8  C   UNL     1      -1.098  -0.835  25.380  0.00  0.00    +0.002 C 
ATOM      9  C   UNL     1      -0.450  -0.561  24.951  0.00  0.00    +0.022 C 
ATOM     10  C   UNL     1      -0.562  -0.041  24.319  0.00  0.00    +0.096 C 
ATOM     20  C   UNL     1      -1.323   0.204  24.118  0.00  0.00    +0.022 C 
ATOM     21  C   UNL     1      -1.436   0.724  23.487  0.00  0.00    +0.002 C 
ATOM     22  C   UNL     1      -1.973  -0.069  24.548  0.00  0.00    +0.032 C 
ATOM     23  C   UNL     1      -2.734   0.177  24.347  0.00  0.00    +0.152 C 
ATOM     24  O   UNL     1      -2.846   0.696  23.716  0.00  0.00    -0.223 OA
ENDROOT
BRANCH  10  11
ATOM     11  N   UNL     1       0.087   0.232  23.890  0.00  0.00    -0.202 NA
ATOM     12  C   UNL     1       0.662  -0.298  23.629  0.00  0.00    +0.282 C 
ATOM     13  O   UNL     1       0.588  -1.103  23.797  0.00  0.00    -0.267 OA
BRANCH  12  14
ATOM     14  C   UNL     1       1.312  -0.025  23.199  0.00  0.00    +0.136 A 
ATOM     15  N   UNL     1       1.778   0.585  23.499  0.00  0.00    -0.239 NA
ATOM     16  C   UNL     1       2.428   0.858  23.070  0.00  0.00    +0.099 A 
ATOM     17  C   UNL     1       2.610   0.521  22.339  0.00  0.00    +0.021 A 
ATOM     18  C   UNL     1       2.142  -0.090  22.038  0.00  0.00    +0.003 A 
ATOM     19  C   UNL     1       1.494  -0.362  22.469  0.00  0.00    +0.024 A 
ENDBRANCH  12  14
ENDBRANCH  10  11
BRANCH   3   2
ATOM      1  C   UNL     1      -4.469  -0.063  23.847  0.00  0.00    +0.010 C 
ATOM      2  C   UNL     1      -4.144   0.149  24.576  0.00  0.00    +0.081 C 
BRANCH   2  25
ATOM     25  C   UNL     1      -4.582   0.607  25.104  0.00  0.00    +0.241 C 
ATOM     26  O   UNL     1      -4.996   0.245  25.720  0.00  0.00    -0.273 OA
ATOM     27  N   UNL     1      -4.606   1.428  25.017  0.00  0.00    -0.201 NA
BRANCH  27  28
ATOM     28  C   UNL     1      -5.043   1.885  25.545  0.00  0.00    +0.141 C 
BRANCH  28  29
ATOM     29  C   UNL     1      -4.982   2.708  25.527  0.00  0.00    -0.001 A 
ATOM     30  C   UNL     1      -5.659   3.170  25.433  0.00  0.00    -0.003 A 
ATOM     31  C   UNL     1      -5.598   3.992  25.415  0.00  0.00    -0.000 A 
ATOM     32  C   UNL     1      -4.859   4.353  25.492  0.00  0.00    -0.000 A 
ATOM     33  C   UNL     1      -4.183   3.891  25.586  0.00  0.00    -0.000 A 
ATOM     34  C   UNL     1      -4.244   3.067  25.604  0.00  0.00    -0.003 A 
ENDBRANCH  28  29
ENDBRANCH  27  28
ENDBRANCH   2  25
ENDBRANCH   3   2
TORSDOF 6
ENDMDL
MODEL 10
REMARK VINA RESULT:      -9.6      2.501      4.984
REMARK  Name = 
REMARK  6 active torsions:
REMARK  status: ('A' for Active; 'I' for Inactive)
REMARK    1  A    between atoms: C_2  and  C_3
REMARK    2  A    between atoms: C_2  and  C_25
REMARK    3  A    between atoms: C_10  and  N_11
REMARK    4  A    between atoms: C_12  and  C_14
REMARK    5  A    between atoms: N_27  and  C_28
REMARK    6  A    between atoms: C_28  and  C_29
REMARK                            x       y       z     vdW  Elec       q    Type
REMARK                         _______ _______ _______ _____ _____    ______ ____
ROOT
ATOM      3  C   UNL     1      -1.726  -1.141  24.688  0.00  0.00    +0.039 C 
ATOM      4  C   UNL     1      -2.239  -1.732  24.425  0.00  0.00    +0.003 C 
ATOM      5  C   UNL     1      -3.052  -1.594  24.405  0.00  0.00    +0.000 C 
ATOM      6  C   UNL     1      -3.352  -0.865  24.647  0.00  0.00    +0.002 C 
ATOM      7  C   UNL     1      -3.864  -1.455  24.384  0.00  0.00    +0.000 C 
ATOM      8  C   UNL     1      -4.165  -0.725  24.627  0.00  0.00    +0.002 C 
ATOM      9  C   UNL     1      -4.465   0.003  24.869  0.00  0.00    +0.022 C 
ATOM     10  C   UNL     1      -3.952   0.594  25.132  0.00  0.00    +0.096 C 
ATOM     20  C   UNL     1      -3.139   0.455  25.152  0.00  0.00    +0.022 C 
ATOM     21  C   UNL     1      -2.626   1.046  25.415  0.00  0.00    +0.002 C 
ATOM     22  C   UNL     1      -2.838  -0.274  24.910  0.00  0.00    +0.032 C 
ATOM     23  C   UNL     1      -2.026  -0.413  24.930  0.00  0.00    +0.152 C 
ATOM     24  O   UNL     1      -1.513   0.178  25.193  0.00  0.00    -0.223 OA
ENDROOT
BRANCH  10  11
ATOM     11  N   UNL     1      -4.252   1.324  25.374  0.00  0.00    -0.202 NA
ATOM     12  C   UNL     1      -4.760   1.746  24.880  0.00  0.00    +0.282 C 
ATOM     13  O   UNL     1      -4.967   1.439  24.142  0.00  0.00    -0.267 OA
BRANCH  12  14
ATOM     14  C   UNL     1      -5.060   2.475  25.122  0.00  0.00    +0.136 A 
ATOM     15  N   UNL     1      -4.648   3.168  24.954  0.00  0.00    -0.239 NA
ATOM     16  C   UNL     1      -4.949   3.898  25.196  0.00  0.00    +0.099 A 
ATOM     17  C   UNL     1      -5.663   3.932  25.607  0.00  0.00    +0.021 A 
ATOM     18  C   UNL     1      -6.077   3.238  25.776  0.00  0.00    +0.003 A 
ATOM     19  C   UNL     1      -5.775   2.510  25.533  0.00  0.00    +0.024 A 
ENDBRANCH  12  14
ENDBRANCH  10  11
BRANCH   3   2
ATOM      1  C   UNL     1      -0.539  -1.446  25.426  0.00  0.00    +0.010 C 
ATOM      2  C   UNL     1      -0.913  -1.281  24.709  0.00  0.00    +0.081 C 
BRANCH   2  25
ATOM     25  C   UNL     1      -0.473  -1.255  24.011  0.00  0.00    +0.241 C 
ATOM     26  O   UNL     1      -0.593  -1.824  23.426  0.00  0.00    -0.273 OA
ATOM     27  N   UNL     1       0.088  -0.659  23.899  0.00  0.00    -0.201 NA
BRANCH  27  28
ATOM     28  C   UNL     1       0.527  -0.633  23.202  0.00  0.00    +0.141 C 
BRANCH  28  29
ATOM     29  C   UNL     1       1.162  -0.111  23.133  0.00  0.00    -0.001 A 
ATOM     30  C   UNL     1       1.854  -0.349  22.753  0.00  0.00    -0.003 A 
ATOM     31  C   UNL     1       2.488   0.174  22.685  0.00  0.00    -0.000 A 
ATOM     32  C   UNL     1       2.430   0.936  22.996  0.00  0.00    -0.000 A 
ATOM     33  C   UNL     1       1.738   1.174  23.376  0.00  0.00    -0.000 A 
ATOM     34  C   UNL     1       1.103   0.651  23.445  0.00  0.00    -0.003 A 
ENDBRANCH  28  29
ENDBRANCH  27  28
ENDBRANCH   2  25
ENDBRANCH   3   2
TORSDOF 6
ENDMDL
