REMARK  Name = 
REMARK  6 active torsions:
REMARK  status: ('A' for Active; 'I' for Inactive)
REMARK    1  A    between atoms: N_4  and  C_5
REMARK    2  A    between atoms: C_5  and  C_6
REMARK    3  A    between atoms: C_14  and  C_15
REMARK    4  A    between atoms: C_17  and  N_18
REMARK    5  A    between atoms: N_18  and  S_19
REMARK    6  A    between atoms: S_19  and  C_22
REMARK                            x       y       z     vdW  Elec       q    Type
REMARK                         _______ _______ _______ _____ _____    ______ ____
ROOT
ATOM     15  C   UNL     1       1.491  -4.390   0.000  0.00  0.00    +0.048 C 
ATOM     16  C   UNL     1       0.824  -4.875   0.000  0.00  0.00    +0.033 C 
ATOM     17  C   UNL     1       0.156  -4.390   0.000  0.00  0.00    +0.120 C 
ATOM     28  C   UNL     1       0.411  -3.605   0.000  0.00  0.00    -0.011 C 
ATOM     29  C   UNL     1       1.236  -3.605   0.000  0.00  0.00    -0.025 C 
ENDROOT
BRANCH  15  14
ATOM      1  C   UNL     1       2.943  -3.335   0.000  0.00  0.00    +0.054 C 
ATOM      2  C   UNL     1       2.943  -4.160   0.000  0.00  0.00    +0.076 A 
ATOM      3  N   UNL     1       3.611  -4.645   0.000  0.00  0.00    -0.174 NA
ATOM      4  N   UNL     1       3.356  -5.430   0.000  0.00  0.00    -0.251 N 
ATOM     12  C   UNL     1       2.531  -5.430   0.000  0.00  0.00    +0.054 A 
ATOM     13  C   UNL     1       2.046  -6.097   0.000  0.00  0.00    +0.051 C 
ATOM     14  C   UNL     1       2.276  -4.645   0.000  0.00  0.00    +0.010 A 
BRANCH   4   5
ATOM      5  C   UNL     1       3.841  -6.097   0.000  0.00  0.00    +0.153 C 
BRANCH   5   6
ATOM      6  C   UNL     1       4.661  -6.011   0.000  0.00  0.00    +0.002 A 
ATOM      7  C   UNL     1       4.997  -5.257   0.000  0.00  0.00    -0.002 A 
ATOM      8  C   UNL     1       5.817  -5.171   0.000  0.00  0.00    -0.000 A 
ATOM      9  C   UNL     1       6.302  -5.838   0.000  0.00  0.00    -0.000 A 
ATOM     10  C   UNL     1       5.966  -6.592   0.000  0.00  0.00    -0.000 A 
ATOM     11  C   UNL     1       5.146  -6.678   0.000  0.00  0.00    -0.002 A 
ENDBRANCH   5   6
ENDBRANCH   4   5
ENDBRANCH  15  14
BRANCH  17  18
ATOM     18  N   UNL     1      -0.628  -4.645   0.000  0.00  0.00    -0.075 NA
BRANCH  18  19
ATOM     19  S   UNL     1      -1.242  -4.093   0.000  0.00  0.00    +0.077 S 
ATOM     20  O   UNL     1      -0.690  -3.480   0.000  0.00  0.00    -0.152 OA
ATOM     21  O   UNL     1      -1.794  -4.706   0.000  0.00  0.00    -0.152 OA
BRANCH  19  22
ATOM     22  C   UNL     1      -1.855  -3.541   0.000  0.00  0.00    +0.124 A 
ATOM     23  C   UNL     1      -2.639  -3.796   0.000  0.00  0.00    +0.020 A 
ATOM     24  C   UNL     1      -3.252  -3.244   0.000  0.00  0.00    +0.001 A 
ATOM     25  C   UNL     1      -3.081  -2.437   0.000  0.00  0.00    +0.000 A 
ATOM     26  C   UNL     1      -2.296  -2.182   0.000  0.00  0.00    +0.001 A 
ATOM     27  C   UNL     1      -1.683  -2.734   0.000  0.00  0.00    +0.020 A 
ENDBRANCH  19  22
ENDBRANCH  18  19
ENDBRANCH  17  18
TORSDOF 6
