MODEL 1
REMARK VINA RESULT:     -10.4      0.000      0.000
REMARK  Name = 
REMARK  6 active torsions:
REMARK  status: ('A' for Active; 'I' for Inactive)
REMARK    1  A    between atoms: C_2  and  C_3
REMARK    2  A    between atoms: C_3  and  C_4
REMARK    3  A    between atoms: C_4  and  C_5
REMARK    4  A    between atoms: N_7  and  C_8
REMARK    5  A    between atoms: C_8  and  C_9
REMARK    6  A    between atoms: C_16  and  C_17
REMARK                            x       y       z     vdW  Elec       q    Type
REMARK                         _______ _______ _______ _____ _____    ______ ____
ROOT
ATOM      9  C   UNL     1      -4.190   1.107  24.579  0.00  0.00    +0.082 C 
ATOM     10  C   UNL     1      -4.266   0.493  25.050  0.00  0.00    +0.019 C 
ATOM     11  C   UNL     1      -3.800  -0.170  25.040  0.00  0.00    +0.013 C 
ATOM     12  C   UNL     1      -4.050  -0.763  25.664  0.00  0.00    +0.018 C 
ATOM     13  C   UNL     1      -4.081  -0.204  25.329  0.00  0.00    +0.072 C 
ATOM     14  N   UNL     1      -3.720   0.429  24.575  0.00  0.00    -0.272 NA
ATOM     15  C   UNL     1      -3.007   0.183  24.060  0.00  0.00    +0.081 C 
ATOM     16  C   UNL     1      -3.115  -0.400  24.542  0.00  0.00    +0.093 C 
ENDROOT
BRANCH  16  17
ATOM     17  C   UNL     1      -2.679  -1.099  24.585  0.00  0.00    +0.227 C 
ATOM     18  O   UNL     1      -3.068  -1.827  24.599  0.00  0.00    -0.275 OA
ATOM     19  N   UNL     1      -1.856  -1.070  24.613  0.00  0.00    -0.274 N 
ATOM     20  C   UNL     1      -1.420  -1.770  24.655  0.00  0.00    +0.125 C 
ATOM     21  C   UNL     1      -0.596  -1.741  24.683  0.00  0.00    +0.164 C 
ATOM     22  O   UNL     1      -0.208  -1.014  24.669  0.00  0.00    -0.350 OA
ATOM     23  C   UNL     1      -0.643  -0.314  24.626  0.00  0.00    +0.164 C 
ATOM     24  C   UNL     1      -1.467  -0.343  24.598  0.00  0.00    +0.125 C 
ENDBRANCH  16  17
BRANCH   9   8
ATOM      8  C   UNL     1      -4.408   1.852  24.300  0.00  0.00    +0.145 C 
BRANCH   8   7
ATOM      5  C   UNL     1      -3.616   3.640  25.156  0.00  0.00    +0.101 A 
ATOM      6  C   UNL     1      -3.598   3.046  24.584  0.00  0.00    +0.113 A 
ATOM      7  N   UNL     1      -4.220   2.527  24.737  0.00  0.00    -0.229 N 
ATOM     25  N   UNL     1      -4.622   2.800  25.404  0.00  0.00    -0.064 NA
ATOM     26  N   UNL     1      -4.249   3.488  25.662  0.00  0.00    -0.133 NA
BRANCH   5   4
ATOM      4  C   UNL     1      -3.092   4.275  25.211  0.00  0.00    +0.049 C 
BRANCH   4   3
ATOM      3  C   UNL     1      -2.280   4.136  25.263  0.00  0.00    +0.006 C 
BRANCH   3   2
ATOM      1  C   UNL     1      -1.002   4.733  25.032  0.00  0.00    +0.000 C 
ATOM      2  C   UNL     1      -1.758   4.768  25.358  0.00  0.00    +0.000 C 
ENDBRANCH   3   2
ENDBRANCH   4   3
ENDBRANCH   5   4
ENDBRANCH   8   7
ENDBRANCH   9   8
TORSDOF 6
ENDMDL
MODEL 2
REMARK VINA RESULT:     -10.3      1.897      4.563
REMARK  Name = 
REMARK  6 active torsions:
REMARK  status: ('A' for Active; 'I' for Inactive)
REMARK    1  A    between atoms: C_2  and  C_3
REMARK    2  A    between atoms: C_3  and  C_4
REMARK    3  A    between atoms: C_4  and  C_5
REMARK    4  A    between atoms: N_7  and  C_8
REMARK    5  A    between atoms: C_8  and  C_9
REMARK    6  A    between atoms: C_16  and  C_17
REMARK                            x       y       z     vdW  Elec       q    Type
REMARK                         _______ _______ _______ _____ _____    ______ ____
ROOT
ATOM      9  C   UNL     1      -4.372   1.469  24.864  0.00  0.00    +0.082 C 
ATOM     10  C   UNL     1      -4.311   1.955  24.259  0.00  0.00    +0.019 C 
ATOM     11  C   UNL     1      -3.888   2.645  24.250  0.00  0.00    +0.013 C 
ATOM     12  C   UNL     1      -3.945   3.061  23.458  0.00  0.00    +0.018 C 
ATOM     13  C   UNL     1      -4.066   2.588  23.891  0.00  0.00    +0.072 C 
ATOM     14  N   UNL     1      -3.943   2.174  24.847  0.00  0.00    -0.272 NA
ATOM     15  C   UNL     1      -3.435   2.594  25.477  0.00  0.00    +0.081 C 
ATOM     16  C   UNL     1      -3.400   3.044  24.861  0.00  0.00    +0.093 C 
ENDROOT
BRANCH  16  17
ATOM     17  C   UNL     1      -2.990   3.756  24.786  0.00  0.00    +0.227 C 
ATOM     18  O   UNL     1      -3.369   4.419  24.472  0.00  0.00    -0.275 OA
ATOM     19  N   UNL     1      -2.202   3.805  25.024  0.00  0.00    -0.274 N 
ATOM     20  C   UNL     1      -1.792   4.517  24.949  0.00  0.00    +0.125 C 
ATOM     21  C   UNL     1      -1.004   4.566  25.187  0.00  0.00    +0.164 C 
ATOM     22  O   UNL     1      -0.626   3.904  25.501  0.00  0.00    -0.350 OA
ATOM     23  C   UNL     1      -1.035   3.191  25.576  0.00  0.00    +0.164 C 
ATOM     24  C   UNL     1      -1.823   3.143  25.338  0.00  0.00    +0.125 C 
ENDBRANCH  16  17
BRANCH   9   8
ATOM      8  C   UNL     1      -4.649   0.785  25.233  0.00  0.00    +0.145 C 
BRANCH   8   7
ATOM      5  C   UNL     1      -3.845  -1.145  24.800  0.00  0.00    +0.101 A 
ATOM      6  C   UNL     1      -3.882  -0.469  25.272  0.00  0.00    +0.113 A 
ATOM      7  N   UNL     1      -4.437   0.043  24.940  0.00  0.00    -0.229 N 
ATOM     25  N   UNL     1      -4.742  -0.315  24.263  0.00  0.00    -0.064 NA
ATOM     26  N   UNL     1      -4.377  -1.050  24.176  0.00  0.00    -0.133 NA
BRANCH   5   4
ATOM      4  C   UNL     1      -3.361  -1.800  24.930  0.00  0.00    +0.049 C 
BRANCH   4   3
ATOM      3  C   UNL     1      -2.627  -1.851  24.556  0.00  0.00    +0.006 C 
BRANCH   3   2
ATOM      1  C   UNL     1      -1.371  -2.529  24.491  0.00  0.00    +0.000 C 
ATOM      2  C   UNL     1      -2.188  -2.547  24.603  0.00  0.00    +0.000 C 
ENDBRANCH   3   2
ENDBRANCH   4   3
ENDBRANCH   5   4
ENDBRANCH   8   7
ENDBRANCH   9   8
TORSDOF 6
ENDMDL
MODEL 3
REMARK VINA RESULT:     -10.1      2.113      5.187
REMARK  Name = 
REMARK  6 active torsions:
REMARK  status: ('A' for Active; 'I' for Inactive)
REMARK    1  A    between atoms: C_2  and  C_3
REMARK    2  A    between atoms: C_3  and  C_4
REMARK    3  A    between atoms: C_4  and  C_5
REMARK    4  A    between atoms: N_7  and  C_8
REMARK    5  A    between atoms: C_8  and  C_9
REMARK    6  A    between atoms: C_16  and  C_17
REMARK                            x       y       z     vdW  Elec       q    Type
REMARK                         _______ _______ _______ _____ _____    ______ ____
ROOT
ATOM      9  C   UNL     1      -0.634   0.853  24.736  0.00  0.00    +0.082 C 
ATOM     10  C   UNL     1      -0.462   1.315  25.339  0.00  0.00    +0.019 C 
ATOM     11  C   UNL     1      -0.838   2.007  25.524  0.00  0.00    +0.013 C 
ATOM     12  C   UNL     1      -0.490   2.391  26.256  0.00  0.00    +0.018 C 
ATOM     13  C   UNL     1      -0.545   1.934  25.792  0.00  0.00    +0.072 C 
ATOM     14  N   UNL     1      -1.012   1.560  24.932  0.00  0.00    -0.272 NA
ATOM     15  C   UNL     1      -1.705   2.009  24.543  0.00  0.00    +0.081 C 
ATOM     16  C   UNL     1      -1.505   2.434  25.145  0.00  0.00    +0.093 C 
ENDROOT
BRANCH  16  17
ATOM     17  C   UNL     1      -1.845   3.146  25.388  0.00  0.00    +0.227 C 
ATOM     18  O   UNL     1      -1.364   3.762  25.656  0.00  0.00    -0.275 OA
ATOM     19  N   UNL     1      -2.663   3.242  25.363  0.00  0.00    -0.274 N 
ATOM     20  C   UNL     1      -3.002   3.954  25.606  0.00  0.00    +0.125 C 
ATOM     21  C   UNL     1      -3.821   4.050  25.581  0.00  0.00    +0.164 C 
ATOM     22  O   UNL     1      -4.301   3.435  25.313  0.00  0.00    -0.350 OA
ATOM     23  C   UNL     1      -3.962   2.723  25.069  0.00  0.00    +0.164 C 
ATOM     24  C   UNL     1      -3.143   2.627  25.095  0.00  0.00    +0.125 C 
ENDBRANCH  16  17
BRANCH   9   8
ATOM      8  C   UNL     1      -0.525   0.182  24.269  0.00  0.00    +0.145 C 
BRANCH   8   7
ATOM      5  C   UNL     1      -1.495  -1.674  24.681  0.00  0.00    +0.101 A 
ATOM      6  C   UNL     1      -1.443  -0.966  24.260  0.00  0.00    +0.113 A 
ATOM      7  N   UNL     1      -0.784  -0.554  24.537  0.00  0.00    -0.229 N 
ATOM     25  N   UNL     1      -0.429  -1.007  25.128  0.00  0.00    -0.064 NA
ATOM     26  N   UNL     1      -0.869  -1.699  25.217  0.00  0.00    -0.133 NA
BRANCH   5   4
ATOM      4  C   UNL     1      -2.073  -2.255  24.582  0.00  0.00    +0.049 C 
BRANCH   4   3
ATOM      3  C   UNL     1      -2.869  -2.042  24.543  0.00  0.00    +0.006 C 
BRANCH   3   2
ATOM      1  C   UNL     1      -4.148  -2.497  24.098  0.00  0.00    +0.000 C 
ATOM      2  C   UNL     1      -3.452  -2.625  24.521  0.00  0.00    +0.000 C 
ENDBRANCH   3   2
ENDBRANCH   4   3
ENDBRANCH   5   4
ENDBRANCH   8   7
ENDBRANCH   9   8
TORSDOF 6
ENDMDL
MODEL 4
REMARK VINA RESULT:      -9.8      1.599      2.587
REMARK  Name = 
REMARK  6 active torsions:
REMARK  status: ('A' for Active; 'I' for Inactive)
REMARK    1  A    between atoms: C_2  and  C_3
REMARK    2  A    between atoms: C_3  and  C_4
REMARK    3  A    between atoms: C_4  and  C_5
REMARK    4  A    between atoms: N_7  and  C_8
REMARK    5  A    between atoms: C_8  and  C_9
REMARK    6  A    between atoms: C_16  and  C_17
REMARK                            x       y       z     vdW  Elec       q    Type
REMARK                         _______ _______ _______ _____ _____    ______ ____
ROOT
ATOM      9  C   UNL     1      -1.336   1.067  24.890  0.00  0.00    +0.082 C 
ATOM     10  C   UNL     1      -1.212   0.515  25.424  0.00  0.00    +0.019 C 
ATOM     11  C   UNL     1      -1.431  -0.262  25.359  0.00  0.00    +0.013 C 
ATOM     12  C   UNL     1      -1.197  -0.737  26.083  0.00  0.00    +0.018 C 
ATOM     13  C   UNL     1      -1.245  -0.200  25.713  0.00  0.00    +0.072 C 
ATOM     14  N   UNL     1      -1.556   0.274  24.831  0.00  0.00    -0.272 NA
ATOM     15  C   UNL     1      -1.986  -0.193  24.175  0.00  0.00    +0.081 C 
ATOM     16  C   UNL     1      -1.845  -0.705  24.724  0.00  0.00    +0.093 C 
ENDROOT
BRANCH  16  17
ATOM     17  C   UNL     1      -2.040  -1.507  24.721  0.00  0.00    +0.227 C 
ATOM     18  O   UNL     1      -1.478  -2.069  24.945  0.00  0.00    -0.275 OA
ATOM     19  N   UNL     1      -2.795  -1.746  24.494  0.00  0.00    -0.274 N 
ATOM     20  C   UNL     1      -2.990  -2.548  24.491  0.00  0.00    +0.125 C 
ATOM     21  C   UNL     1      -3.747  -2.787  24.264  0.00  0.00    +0.164 C 
ATOM     22  O   UNL     1      -4.308  -2.226  24.040  0.00  0.00    -0.350 OA
ATOM     23  C   UNL     1      -4.113  -1.424  24.043  0.00  0.00    +0.164 C 
ATOM     24  C   UNL     1      -3.357  -1.185  24.270  0.00  0.00    +0.125 C 
ENDBRANCH  16  17
BRANCH   9   8
ATOM      8  C   UNL     1      -1.287   1.839  24.606  0.00  0.00    +0.145 C 
BRANCH   8   7
ATOM      5  C   UNL     1      -2.681   3.310  25.276  0.00  0.00    +0.101 A 
ATOM      6  C   UNL     1      -2.469   2.700  24.764  0.00  0.00    +0.113 A 
ATOM      7  N   UNL     1      -1.714   2.443  24.973  0.00  0.00    -0.229 N 
ATOM     25  N   UNL     1      -1.460   2.894  25.616  0.00  0.00    -0.064 NA
ATOM     26  N   UNL     1      -2.058   3.430  25.803  0.00  0.00    -0.133 NA
BRANCH   5   4
ATOM      4  C   UNL     1      -3.393   3.728  25.264  0.00  0.00    +0.049 C 
BRANCH   4   3
ATOM      3  C   UNL     1      -4.096   3.350  25.474  0.00  0.00    +0.006 C 
BRANCH   3   2
ATOM      1  C   UNL     1      -5.518   3.371  25.614  0.00  0.00    +0.000 C 
ATOM      2  C   UNL     1      -4.813   3.755  25.424  0.00  0.00    +0.000 C 
ENDBRANCH   3   2
ENDBRANCH   4   3
ENDBRANCH   5   4
ENDBRANCH   8   7
ENDBRANCH   9   8
TORSDOF 6
ENDMDL
MODEL 5
REMARK VINA RESULT:      -9.7      2.225      4.835
REMARK  Name = 
REMARK  6 active torsions:
REMARK  status: ('A' for Active; 'I' for Inactive)
REMARK    1  A    between atoms: C_2  and  C_3
REMARK    2  A    between atoms: C_3  and  C_4
REMARK    3  A    between atoms: C_4  and  C_5
REMARK    4  A    between atoms: N_7  and  C_8
REMARK    5  A    between atoms: C_8  and  C_9
REMARK    6  A    between atoms: C_16  and  C_17
REMARK                            x       y       z     vdW  Elec       q    Type
REMARK                         _______ _______ _______ _____ _____    ______ ____
ROOT
ATOM      9  C   UNL     1      -1.766   3.060  24.416  0.00  0.00    +0.082 C 
ATOM     10  C   UNL     1      -1.962   3.428  25.073  0.00  0.00    +0.019 C 
ATOM     11  C   UNL     1      -2.717   3.546  25.340  0.00  0.00    +0.013 C 
ATOM     12  C   UNL     1      -2.731   3.992  26.118  0.00  0.00    +0.018 C 
ATOM     13  C   UNL     1      -2.453   3.708  25.600  0.00  0.00    +0.072 C 
ATOM     14  N   UNL     1      -2.533   3.184  24.695  0.00  0.00    -0.272 NA
ATOM     15  C   UNL     1      -3.349   2.952  24.359  0.00  0.00    +0.081 C 
ATOM     16  C   UNL     1      -3.499   3.320  25.011  0.00  0.00    +0.093 C 
ENDROOT
BRANCH  16  17
ATOM     17  C   UNL     1      -4.241   3.473  25.338  0.00  0.00    +0.227 C 
ATOM     18  O   UNL     1      -4.401   4.211  25.672  0.00  0.00    -0.275 OA
ATOM     19  N   UNL     1      -4.823   2.889  25.332  0.00  0.00    -0.274 N 
ATOM     20  C   UNL     1      -5.565   3.042  25.659  0.00  0.00    +0.125 C 
ATOM     21  C   UNL     1      -6.147   2.457  25.652  0.00  0.00    +0.164 C 
ATOM     22  O   UNL     1      -5.987   1.719  25.319  0.00  0.00    -0.350 OA
ATOM     23  C   UNL     1      -5.246   1.566  24.992  0.00  0.00    +0.164 C 
ATOM     24  C   UNL     1      -4.664   2.151  24.998  0.00  0.00    +0.125 C 
ENDBRANCH  16  17
BRANCH   9   8
ATOM      8  C   UNL     1      -1.220   2.772  23.869  0.00  0.00    +0.145 C 
BRANCH   8   7
ATOM      5  C   UNL     1      -0.268   0.889  24.193  0.00  0.00    +0.101 A 
ATOM      6  C   UNL     1      -0.893   1.339  23.898  0.00  0.00    +0.113 A 
ATOM      7  N   UNL     1      -0.738   2.131  24.066  0.00  0.00    -0.229 N 
ATOM     25  N   UNL     1      -0.018   2.171  24.465  0.00  0.00    -0.064 NA
ATOM     26  N   UNL     1       0.273   1.403  24.544  0.00  0.00    -0.133 NA
BRANCH   5   4
ATOM      4  C   UNL     1      -0.197   0.068  24.146  0.00  0.00    +0.049 C 
BRANCH   4   3
ATOM      3  C   UNL     1      -0.615  -0.413  24.670  0.00  0.00    +0.006 C 
BRANCH   3   2
ATOM      1  C   UNL     1      -1.003  -1.717  25.107  0.00  0.00    +0.000 C 
ATOM      2  C   UNL     1      -0.531  -1.233  24.635  0.00  0.00    +0.000 C 
ENDBRANCH   3   2
ENDBRANCH   4   3
ENDBRANCH   5   4
ENDBRANCH   8   7
ENDBRANCH   9   8
TORSDOF 6
ENDMDL
