MODEL 1
REMARK VINA RESULT:     -10.6      0.000      0.000
REMARK  Name = 
REMARK  6 active torsions:
REMARK  status: ('A' for Active; 'I' for Inactive)
REMARK    1  A    between atoms: N_2  and  C_4
REMARK    2  A    between atoms: C_7  and  C_10
REMARK    3  A    between atoms: C_15  and  C_17
REMARK    4  A    between atoms: C_24  and  C_25
REMARK    5  A    between atoms: C_25  and  N_26
REMARK    6  A    between atoms: C_27  and  C_29
REMARK                            x       y       z     vdW  Elec       q    Type
REMARK                         _______ _______ _______ _____ _____    ______ ____
ROOT
ATOM     17  C   UNL     1      -0.555   2.574  24.262  0.00  0.00    +0.056 C 
ATOM     18  C   UNL     1      -0.540   2.425  23.498  0.00  0.00    +0.078 C 
ATOM     19  N   UNL     1      -0.061   2.075  24.072  0.00  0.00    -0.272 NA
ATOM     20  C   UNL     1      -0.330   2.492  24.996  0.00  0.00    +0.072 C 
ATOM     21  C   UNL     1      -0.254   2.534  25.644  0.00  0.00    +0.018 C 
ATOM     22  C   UNL     1      -0.082   2.226  24.819  0.00  0.00    +0.010 C 
ATOM     23  C   UNL     1       0.550   1.620  24.759  0.00  0.00    +0.018 C 
ATOM     24  C   UNL     1       0.597   1.445  24.017  0.00  0.00    +0.079 C 
ENDROOT
BRANCH  17  15
ATOM     10  C   UNL     1      -2.434   3.484  24.897  0.00  0.00    +0.084 A 
ATOM     11  N   UNL     1      -2.188   4.255  25.057  0.00  0.00    -0.231 NA
ATOM     12  C   UNL     1      -1.397   4.466  24.952  0.00  0.00    +0.139 A 
ATOM     13  C   UNL     1      -1.151   5.237  25.113  0.00  0.00    +0.074 C 
ATOM     14  N   UNL     1      -0.853   3.906  24.688  0.00  0.00    -0.235 NA
ATOM     15  C   UNL     1      -1.100   3.135  24.527  0.00  0.00    +0.063 A 
ATOM     16  C   UNL     1      -1.890   2.924  24.632  0.00  0.00    +0.034 A 
BRANCH  10   7
ATOM      4  C   UNL     1      -4.807   2.854  25.211  0.00  0.00    +0.048 A 
ATOM      5  C   UNL     1      -4.366   3.131  25.850  0.00  0.00    +0.015 A 
ATOM      6  C   UNL     1      -3.575   3.341  25.746  0.00  0.00    +0.003 A 
ATOM      7  C   UNL     1      -3.225   3.274  25.002  0.00  0.00    +0.018 A 
ATOM      8  C   UNL     1      -3.667   2.997  24.362  0.00  0.00    +0.003 A 
ATOM      9  C   UNL     1      -4.458   2.787  24.466  0.00  0.00    +0.015 A 
BRANCH   4   2
ATOM      1  C   UNL     1      -6.101   3.131  25.753  0.00  0.00    +0.112 C 
ATOM      2  N   UNL     1      -5.598   2.644  25.315  0.00  0.00    -0.304 N 
ATOM      3  C   UNL     1      -5.887   1.947  24.982  0.00  0.00    +0.112 C 
ENDBRANCH   4   2
ENDBRANCH  10   7
ENDBRANCH  17  15
BRANCH  24  25
ATOM     25  C   UNL     1       1.003   0.968  23.482  0.00  0.00    +0.131 C 
BRANCH  25  26
ATOM     26  N   UNL     1       1.823   0.894  23.534  0.00  0.00    -0.200 NA
ATOM     27  C   UNL     1       2.233   0.448  22.974  0.00  0.00    +0.265 C 
ATOM     28  O   UNL     1       1.823   0.076  22.361  0.00  0.00    -0.268 OA
BRANCH  27  29
ATOM     29  C   UNL     1       3.053   0.374  23.026  0.00  0.00    +0.055 A 
ATOM     30  C   UNL     1       3.386  -0.316  23.333  0.00  0.00    +0.004 A 
ATOM     31  C   UNL     1       4.206  -0.390  23.385  0.00  0.00    -0.004 A 
ATOM     32  C   UNL     1       4.693   0.225  23.130  0.00  0.00    -0.022 A 
ATOM     33  C   UNL     1       5.513   0.152  23.181  0.00  0.00    +0.031 C 
ATOM     34  C   UNL     1       4.359   0.915  22.822  0.00  0.00    -0.004 A 
ATOM     35  C   UNL     1       3.540   0.989  22.770  0.00  0.00    +0.004 A 
ENDBRANCH  27  29
ENDBRANCH  25  26
ENDBRANCH  24  25
TORSDOF 6
ENDMDL
MODEL 2
REMARK VINA RESULT:     -10.2      1.901      2.522
REMARK  Name = 
REMARK  6 active torsions:
REMARK  status: ('A' for Active; 'I' for Inactive)
REMARK    1  A    between atoms: N_2  and  C_4
REMARK    2  A    between atoms: C_7  and  C_10
REMARK    3  A    between atoms: C_15  and  C_17
REMARK    4  A    between atoms: C_24  and  C_25
REMARK    5  A    between atoms: C_25  and  N_26
REMARK    6  A    between atoms: C_27  and  C_29
REMARK                            x       y       z     vdW  Elec       q    Type
REMARK                         _______ _______ _______ _____ _____    ______ ____
ROOT
ATOM     17  C   UNL     1      -1.245  -0.011  24.008  0.00  0.00    +0.056 C 
ATOM     18  C   UNL     1      -1.205   0.124  23.243  0.00  0.00    +0.078 C 
ATOM     19  N   UNL     1      -0.568  -0.024  23.746  0.00  0.00    -0.272 NA
ATOM     20  C   UNL     1      -0.959  -0.164  24.709  0.00  0.00    +0.072 C 
ATOM     21  C   UNL     1      -0.873  -0.287  25.344  0.00  0.00    +0.018 C 
ATOM     22  C   UNL     1      -0.615  -0.156  24.496  0.00  0.00    +0.010 C 
ATOM     23  C   UNL     1       0.247  -0.205  24.343  0.00  0.00    +0.018 C 
ATOM     24  C   UNL     1       0.331  -0.076  23.595  0.00  0.00    +0.079 C 
ENDROOT
BRANCH  17  15
ATOM     10  C   UNL     1      -3.156   0.706  24.781  0.00  0.00    +0.084 A 
ATOM     11  N   UNL     1      -3.495   0.001  25.042  0.00  0.00    -0.231 NA
ATOM     12  C   UNL     1      -3.083  -0.710  24.958  0.00  0.00    +0.139 A 
ATOM     13  C   UNL     1      -3.421  -1.416  25.219  0.00  0.00    +0.074 C 
ATOM     14  N   UNL     1      -2.334  -0.714  24.614  0.00  0.00    -0.235 NA
ATOM     15  C   UNL     1      -1.996  -0.007  24.353  0.00  0.00    +0.063 A 
ATOM     16  C   UNL     1      -2.407   0.702  24.437  0.00  0.00    +0.034 A 
BRANCH  10   7
ATOM      4  C   UNL     1      -4.394   2.835  25.033  0.00  0.00    +0.048 A 
ATOM      5  C   UNL     1      -3.676   2.727  25.422  0.00  0.00    +0.015 A 
ATOM      6  C   UNL     1      -3.263   2.018  25.339  0.00  0.00    +0.003 A 
ATOM      7  C   UNL     1      -3.569   1.416  24.865  0.00  0.00    +0.018 A 
ATOM      8  C   UNL     1      -4.288   1.524  24.475  0.00  0.00    +0.003 A 
ATOM      9  C   UNL     1      -4.701   2.233  24.558  0.00  0.00    +0.015 A 
BRANCH   4   2
ATOM      1  C   UNL     1      -4.531   4.229  24.748  0.00  0.00    +0.112 C 
ATOM      2  N   UNL     1      -4.807   3.544  25.116  0.00  0.00    -0.304 N 
ATOM      3  C   UNL     1      -5.497   3.569  25.568  0.00  0.00    +0.112 C 
ENDBRANCH   4   2
ENDBRANCH  10   7
ENDBRANCH  17  15
BRANCH  24  25
ATOM     25  C   UNL     1       0.899  -0.019  23.000  0.00  0.00    +0.131 C 
BRANCH  25  26
ATOM     26  N   UNL     1       1.696   0.067  23.197  0.00  0.00    -0.200 NA
ATOM     27  C   UNL     1       2.270   0.046  22.606  0.00  0.00    +0.265 C 
ATOM     28  O   UNL     1       2.049  -0.061  21.818  0.00  0.00    -0.268 OA
BRANCH  27  29
ATOM     29  C   UNL     1       3.067   0.133  22.802  0.00  0.00    +0.055 A 
ATOM     30  C   UNL     1       3.449   0.852  22.671  0.00  0.00    +0.004 A 
ATOM     31  C   UNL     1       4.245   0.939  22.867  0.00  0.00    -0.004 A 
ATOM     32  C   UNL     1       4.660   0.306  23.196  0.00  0.00    -0.022 A 
ATOM     33  C   UNL     1       5.457   0.391  23.393  0.00  0.00    +0.031 C 
ATOM     34  C   UNL     1       4.278  -0.414  23.327  0.00  0.00    -0.004 A 
ATOM     35  C   UNL     1       3.483  -0.500  23.131  0.00  0.00    +0.004 A 
ENDBRANCH  27  29
ENDBRANCH  25  26
ENDBRANCH  24  25
TORSDOF 6
ENDMDL
MODEL 3
REMARK VINA RESULT:      -8.8      2.693      3.839
REMARK  Name = 
REMARK  6 active torsions:
REMARK  status: ('A' for Active; 'I' for Inactive)
REMARK    1  A    between atoms: N_2  and  C_4
REMARK    2  A    between atoms: C_7  and  C_10
REMARK    3  A    between atoms: C_15  and  C_17
REMARK    4  A    between atoms: C_24  and  C_25
REMARK    5  A    between atoms: C_25  and  N_26
REMARK    6  A    between atoms: C_27  and  C_29
REMARK                            x       y       z     vdW  Elec       q    Type
REMARK                         _______ _______ _______ _____ _____    ______ ____
ROOT
ATOM     17  C   UNL     1      -1.215   1.897  24.970  0.00  0.00    +0.056 C 
ATOM     18  C   UNL     1      -1.481   1.443  24.397  0.00  0.00    +0.078 C 
ATOM     19  N   UNL     1      -0.956   1.219  24.994  0.00  0.00    -0.272 NA
ATOM     20  C   UNL     1      -0.802   2.058  25.602  0.00  0.00    +0.072 C 
ATOM     21  C   UNL     1      -0.518   2.342  26.118  0.00  0.00    +0.018 C 
ATOM     22  C   UNL     1      -0.701   1.670  25.552  0.00  0.00    +0.010 C 
ATOM     23  C   UNL     1      -0.303   0.906  25.721  0.00  0.00    +0.018 C 
ATOM     24  C   UNL     1      -0.540   0.427  25.175  0.00  0.00    +0.079 C 
ENDROOT
BRANCH  17  15
ATOM     10  C   UNL     1      -2.548   3.620  25.115  0.00  0.00    +0.084 A 
ATOM     11  N   UNL     1      -2.013   4.240  25.019  0.00  0.00    -0.231 NA
ATOM     12  C   UNL     1      -1.211   4.080  24.908  0.00  0.00    +0.139 A 
ATOM     13  C   UNL     1      -0.675   4.700  24.812  0.00  0.00    +0.074 C 
ATOM     14  N   UNL     1      -0.946   3.299  24.891  0.00  0.00    -0.235 NA
ATOM     15  C   UNL     1      -1.482   2.679  24.987  0.00  0.00    +0.063 A 
ATOM     16  C   UNL     1      -2.283   2.839  25.098  0.00  0.00    +0.034 A 
BRANCH  10   7
ATOM      4  C   UNL     1      -4.952   4.104  25.450  0.00  0.00    +0.048 A 
ATOM      5  C   UNL     1      -4.655   4.000  24.689  0.00  0.00    +0.015 A 
ATOM      6  C   UNL     1      -3.854   3.839  24.576  0.00  0.00    +0.003 A 
ATOM      7  C   UNL     1      -3.350   3.781  25.226  0.00  0.00    +0.018 A 
ATOM      8  C   UNL     1      -3.647   3.885  25.989  0.00  0.00    +0.003 A 
ATOM      9  C   UNL     1      -4.448   4.047  26.102  0.00  0.00    +0.015 A 
BRANCH   4   2
ATOM      1  C   UNL     1      -6.278   3.653  25.741  0.00  0.00    +0.112 C 
ATOM      2  N   UNL     1      -5.754   4.265  25.563  0.00  0.00    -0.304 N 
ATOM      3  C   UNL     1      -6.032   5.039  25.497  0.00  0.00    +0.112 C 
ENDBRANCH   4   2
ENDBRANCH  10   7
ENDBRANCH  17  15
BRANCH  24  25
ATOM     25  C   UNL     1      -0.463  -0.349  24.907  0.00  0.00    +0.131 C 
BRANCH  25  26
ATOM     26  N   UNL     1      -1.135  -0.796  24.738  0.00  0.00    -0.200 NA
ATOM     27  C   UNL     1      -1.152  -1.600  24.921  0.00  0.00    +0.265 C 
ATOM     28  O   UNL     1      -0.496  -1.957  25.272  0.00  0.00    -0.268 OA
BRANCH  27  29
ATOM     29  C   UNL     1      -1.824  -2.047  24.753  0.00  0.00    +0.055 A 
ATOM     30  C   UNL     1      -1.804  -2.613  24.152  0.00  0.00    +0.004 A 
ATOM     31  C   UNL     1      -2.477  -3.060  23.984  0.00  0.00    -0.004 A 
ATOM     32  C   UNL     1      -3.169  -2.942  24.416  0.00  0.00    -0.022 A 
ATOM     33  C   UNL     1      -3.842  -3.388  24.248  0.00  0.00    +0.031 C 
ATOM     34  C   UNL     1      -3.190  -2.376  25.016  0.00  0.00    -0.004 A 
ATOM     35  C   UNL     1      -2.518  -1.929  25.184  0.00  0.00    +0.004 A 
ENDBRANCH  27  29
ENDBRANCH  25  26
ENDBRANCH  24  25
TORSDOF 6
ENDMDL
MODEL 4
REMARK VINA RESULT:      -6.6     16.382     18.312
REMARK  Name = 
REMARK  6 active torsions:
REMARK  status: ('A' for Active; 'I' for Inactive)
REMARK    1  A    between atoms: N_2  and  C_4
REMARK    2  A    between atoms: C_7  and  C_10
REMARK    3  A    between atoms: C_15  and  C_17
REMARK    4  A    between atoms: C_24  and  C_25
REMARK    5  A    between atoms: C_25  and  N_26
REMARK    6  A    between atoms: C_27  and  C_29
REMARK                            x       y       z     vdW  Elec       q    Type
REMARK                         _______ _______ _______ _____ _____    ______ ____
ROOT
ATOM     17  C   UNL     1      -5.280 -10.137  11.808  0.00  0.00    +0.056 C 
ATOM     18  C   UNL     1      -5.328 -10.769  12.259  0.00  0.00    +0.078 C 
ATOM     19  N   UNL     1      -5.783 -10.084  12.331  0.00  0.00    -0.272 NA
ATOM     20  C   UNL     1      -5.473  -9.426  11.575  0.00  0.00    +0.072 C 
ATOM     21  C   UNL     1      -5.521  -8.852  11.267  0.00  0.00    +0.018 C 
ATOM     22  C   UNL     1      -5.730  -9.468  11.885  0.00  0.00    +0.010 C 
ATOM     23  C   UNL     1      -6.365  -9.248  12.449  0.00  0.00    +0.018 C 
ATOM     24  C   UNL     1      -6.444  -9.848  12.914  0.00  0.00    +0.079 C 
ENDROOT
BRANCH  17  15
ATOM     10  C   UNL     1      -3.395  -9.904  10.732  0.00  0.00    +0.084 A 
ATOM     11  N   UNL     1      -3.609 -10.172   9.982  0.00  0.00    -0.231 NA
ATOM     12  C   UNL     1      -4.380 -10.428   9.840  0.00  0.00    +0.139 A 
ATOM     13  C   UNL     1      -4.595 -10.696   9.090  0.00  0.00    +0.074 C 
ATOM     14  N   UNL     1      -4.937 -10.416  10.448  0.00  0.00    -0.235 NA
ATOM     15  C   UNL     1      -4.722 -10.148  11.199  0.00  0.00    +0.063 A 
ATOM     16  C   UNL     1      -3.952  -9.892  11.341  0.00  0.00    +0.034 A 
BRANCH  10   7
ATOM      4  C   UNL     1      -1.080  -9.136  11.155  0.00  0.00    +0.048 A 
ATOM      5  C   UNL     1      -1.375  -9.794  11.553  0.00  0.00    +0.015 A 
ATOM      6  C   UNL     1      -2.147 -10.051  11.412  0.00  0.00    +0.003 A 
ATOM      7  C   UNL     1      -2.623  -9.648  10.873  0.00  0.00    +0.018 A 
ATOM      8  C   UNL     1      -2.329  -8.989  10.475  0.00  0.00    +0.003 A 
ATOM      9  C   UNL     1      -1.557  -8.732  10.615  0.00  0.00    +0.015 A 
BRANCH   4   2
ATOM      1  C   UNL     1       0.302  -9.112  10.791  0.00  0.00    +0.112 C 
ATOM      2  N   UNL     1      -0.309  -8.879  11.295  0.00  0.00    -0.304 N 
ATOM      3  C   UNL     1      -0.148  -8.389  11.939  0.00  0.00    +0.112 C 
ENDBRANCH   4   2
ENDBRANCH  10   7
ENDBRANCH  17  15
BRANCH  24  25
ATOM     25  C   UNL     1      -6.874 -10.122  13.562  0.00  0.00    +0.131 C 
BRANCH  25  26
ATOM     26  N   UNL     1      -6.550 -10.081  14.319  0.00  0.00    -0.200 NA
ATOM     27  C   UNL     1      -6.990 -10.335  14.969  0.00  0.00    +0.265 C 
ATOM     28  O   UNL     1      -7.753 -10.631  14.862  0.00  0.00    -0.268 OA
BRANCH  27  29
ATOM     29  C   UNL     1      -6.666 -10.294  15.727  0.00  0.00    +0.055 A 
ATOM     30  C   UNL     1      -6.976  -9.766  16.280  0.00  0.00    +0.004 A 
ATOM     31  C   UNL     1      -6.653  -9.725  17.038  0.00  0.00    -0.004 A 
ATOM     32  C   UNL     1      -6.019 -10.212  17.243  0.00  0.00    -0.022 A 
ATOM     33  C   UNL     1      -5.695 -10.172  18.000  0.00  0.00    +0.031 C 
ATOM     34  C   UNL     1      -5.709 -10.740  16.690  0.00  0.00    -0.004 A 
ATOM     35  C   UNL     1      -6.032 -10.781  15.933  0.00  0.00    +0.004 A 
ENDBRANCH  27  29
ENDBRANCH  25  26
ENDBRANCH  24  25
TORSDOF 6
ENDMDL
