MODEL 1
REMARK VINA RESULT:     -12.0      0.000      0.000
REMARK  Name = 
REMARK  4 active torsions:
REMARK  status: ('A' for Active; 'I' for Inactive)
REMARK    1  A    between atoms: N_2  and  C_4
REMARK    2  A    between atoms: C_9  and  C_10
REMARK    3  A    between atoms: C_10  and  N_11
REMARK    4  A    between atoms: C_14  and  C_16
REMARK                            x       y       z     vdW  Elec       q    Type
REMARK                         _______ _______ _______ _____ _____    ______ ____
ROOT
ATOM     11  N   UNL     1      -3.888   1.981  24.276  0.00  0.00    -0.268 NA
ATOM     12  C   UNL     1      -3.409   1.904  23.609  0.00  0.00    +0.073 C 
ATOM     13  C   UNL     1      -3.254   1.101  23.498  0.00  0.00    +0.028 C 
ATOM     14  C   UNL     1      -3.636   0.682  24.097  0.00  0.00    +0.094 C 
ATOM     15  C   UNL     1      -4.029   1.225  24.578  0.00  0.00    +0.082 C 
ENDROOT
BRANCH  14  16
ATOM     16  C   UNL     1      -3.628  -0.137  24.197  0.00  0.00    +0.207 A 
ATOM     17  N   UNL     1      -3.146  -0.557  24.718  0.00  0.00    -0.212 NA
ATOM     18  C   UNL     1      -3.321  -1.359  24.637  0.00  0.00    +0.119 A 
ATOM     19  C   UNL     1      -3.911  -1.435  24.065  0.00  0.00    +0.164 A 
ATOM     20  O   UNL     1      -4.101  -0.680  23.793  0.00  0.00    -0.438 OA
ATOM     21  C   UNL     1      -4.198  -2.182  23.866  0.00  0.00    +0.039 A 
ATOM     22  C   UNL     1      -3.896  -2.853  24.238  0.00  0.00    +0.003 A 
ATOM     23  C   UNL     1      -3.306  -2.777  24.810  0.00  0.00    +0.002 A 
ATOM     24  C   UNL     1      -3.018  -2.030  25.010  0.00  0.00    +0.022 A 
ENDBRANCH  14  16
BRANCH  11  10
ATOM     10  C   UNL     1      -4.177   2.688  24.588  0.00  0.00    +0.101 C 
BRANCH  10   9
ATOM      4  C   UNL     1      -4.045   3.630  25.653  0.00  0.00    +0.140 A 
ATOM      5  C   UNL     1      -3.567   4.089  26.147  0.00  0.00    +0.024 A 
ATOM      6  C   UNL     1      -2.747   4.061  26.069  0.00  0.00    +0.002 A 
ATOM      7  C   UNL     1      -2.403   3.577  25.497  0.00  0.00    -0.000 A 
ATOM      8  C   UNL     1      -2.879   3.119  25.003  0.00  0.00    -0.001 A 
ATOM      9  C   UNL     1      -3.700   3.146  25.082  0.00  0.00    +0.016 A 
BRANCH   4   2
ATOM      1  O   UNL     1      -5.310   4.156  25.247  0.00  0.00    -0.126 OA
ATOM      2  N   UNL     1      -4.865   3.658  25.732  0.00  0.00    +0.057 N 
ATOM      3  O   UNL     1      -5.241   3.187  26.295  0.00  0.00    -0.126 OA
ENDBRANCH   4   2
ENDBRANCH  10   9
ENDBRANCH  11  10
TORSDOF 4
ENDMDL
MODEL 2
REMARK VINA RESULT:     -11.1      1.434      4.930
REMARK  Name = 
REMARK  4 active torsions:
REMARK  status: ('A' for Active; 'I' for Inactive)
REMARK    1  A    between atoms: N_2  and  C_4
REMARK    2  A    between atoms: C_9  and  C_10
REMARK    3  A    between atoms: C_10  and  N_11
REMARK    4  A    between atoms: C_14  and  C_16
REMARK                            x       y       z     vdW  Elec       q    Type
REMARK                         _______ _______ _______ _____ _____    ______ ____
ROOT
ATOM     11  N   UNL     1      -4.039   0.649  24.599  0.00  0.00    -0.268 NA
ATOM     12  C   UNL     1      -4.639   1.113  24.924  0.00  0.00    +0.073 C 
ATOM     13  C   UNL     1      -4.326   1.859  25.085  0.00  0.00    +0.028 C 
ATOM     14  C   UNL     1      -3.532   1.856  24.860  0.00  0.00    +0.094 C 
ATOM     15  C   UNL     1      -3.355   1.108  24.559  0.00  0.00    +0.082 C 
ENDROOT
BRANCH  14  16
ATOM     16  C   UNL     1      -3.007   2.490  24.923  0.00  0.00    +0.207 A 
ATOM     17  N   UNL     1      -3.185   3.238  25.219  0.00  0.00    -0.212 NA
ATOM     18  C   UNL     1      -2.501   3.697  25.181  0.00  0.00    +0.119 A 
ATOM     19  C   UNL     1      -1.900   3.231  24.861  0.00  0.00    +0.164 A 
ATOM     20  O   UNL     1      -2.212   2.485  24.702  0.00  0.00    -0.438 OA
ATOM     21  C   UNL     1      -1.145   3.548  24.757  0.00  0.00    +0.039 A 
ATOM     22  C   UNL     1      -0.991   4.329  24.972  0.00  0.00    +0.003 A 
ATOM     23  C   UNL     1      -1.593   4.794  25.291  0.00  0.00    +0.002 A 
ATOM     24  C   UNL     1      -2.348   4.479  25.396  0.00  0.00    +0.022 A 
ENDBRANCH  14  16
BRANCH  11  10
ATOM     10  C   UNL     1      -4.111  -0.136  24.357  0.00  0.00    +0.101 C 
BRANCH  10   9
ATOM      4  C   UNL     1      -3.832  -1.522  24.565  0.00  0.00    +0.140 A 
ATOM      5  C   UNL     1      -3.550  -2.130  25.047  0.00  0.00    +0.024 A 
ATOM      6  C   UNL     1      -3.266  -1.959  25.802  0.00  0.00    +0.002 A 
ATOM      7  C   UNL     1      -3.264  -1.181  26.076  0.00  0.00    -0.000 A 
ATOM      8  C   UNL     1      -3.545  -0.573  25.594  0.00  0.00    -0.001 A 
ATOM      9  C   UNL     1      -3.829  -0.744  24.838  0.00  0.00    +0.016 A 
BRANCH   4   2
ATOM      1  O   UNL     1      -4.870  -2.013  23.715  0.00  0.00    -0.126 OA
ATOM      2  N   UNL     1      -4.115  -1.693  23.810  0.00  0.00    +0.057 N 
ATOM      3  O   UNL     1      -3.645  -1.545  23.149  0.00  0.00    -0.126 OA
ENDBRANCH   4   2
ENDBRANCH  10   9
ENDBRANCH  11  10
TORSDOF 4
ENDMDL
MODEL 3
REMARK VINA RESULT:     -10.8      1.367      5.071
REMARK  Name = 
REMARK  4 active torsions:
REMARK  status: ('A' for Active; 'I' for Inactive)
REMARK    1  A    between atoms: N_2  and  C_4
REMARK    2  A    between atoms: C_9  and  C_10
REMARK    3  A    between atoms: C_10  and  N_11
REMARK    4  A    between atoms: C_14  and  C_16
REMARK                            x       y       z     vdW  Elec       q    Type
REMARK                         _______ _______ _______ _____ _____    ______ ____
ROOT
ATOM     11  N   UNL     1      -2.907  -0.045  24.300  0.00  0.00    -0.268 NA
ATOM     12  C   UNL     1      -2.899   0.312  23.557  0.00  0.00    +0.073 C 
ATOM     13  C   UNL     1      -3.305   1.029  23.614  0.00  0.00    +0.028 C 
ATOM     14  C   UNL     1      -3.563   1.114  24.393  0.00  0.00    +0.094 C 
ATOM     15  C   UNL     1      -3.318   0.451  24.817  0.00  0.00    +0.082 C 
ENDROOT
BRANCH  14  16
ATOM     16  C   UNL     1      -3.992   1.751  24.694  0.00  0.00    +0.207 A 
ATOM     17  N   UNL     1      -3.693   2.501  24.862  0.00  0.00    -0.212 NA
ATOM     18  C   UNL     1      -4.312   2.963  25.152  0.00  0.00    +0.119 A 
ATOM     19  C   UNL     1      -4.993   2.498  25.164  0.00  0.00    +0.164 A 
ATOM     20  O   UNL     1      -4.796   1.749  24.882  0.00  0.00    -0.438 OA
ATOM     21  C   UNL     1      -5.705   2.818  25.432  0.00  0.00    +0.039 A 
ATOM     22  C   UNL     1      -5.736   3.602  25.687  0.00  0.00    +0.003 A 
ATOM     23  C   UNL     1      -5.055   4.066  25.674  0.00  0.00    +0.002 A 
ATOM     24  C   UNL     1      -4.342   3.748  25.407  0.00  0.00    +0.022 A 
ENDBRANCH  14  16
BRANCH  11  10
ATOM     10  C   UNL     1      -2.565  -0.770  24.494  0.00  0.00    +0.101 C 
BRANCH  10   9
ATOM      4  C   UNL     1      -2.625  -2.198  24.503  0.00  0.00    +0.140 A 
ATOM      5  C   UNL     1      -3.056  -2.895  24.407  0.00  0.00    +0.024 A 
ATOM      6  C   UNL     1      -3.854  -2.862  24.206  0.00  0.00    +0.002 A 
ATOM      7  C   UNL     1      -4.224  -2.133  24.101  0.00  0.00    -0.000 A 
ATOM      8  C   UNL     1      -3.794  -1.435  24.196  0.00  0.00    -0.001 A 
ATOM      9  C   UNL     1      -2.995  -1.468  24.398  0.00  0.00    +0.016 A 
BRANCH   4   2
ATOM      1  O   UNL     1      -1.254  -2.297  24.112  0.00  0.00    -0.126 OA
ATOM      2  N   UNL     1      -1.826  -2.230  24.704  0.00  0.00    +0.057 N 
ATOM      3  O   UNL     1      -1.598  -2.197  25.495  0.00  0.00    -0.126 OA
ENDBRANCH   4   2
ENDBRANCH  10   9
ENDBRANCH  11  10
TORSDOF 4
ENDMDL
