MODEL 1
REMARK VINA RESULT:     -12.5      0.000      0.000
REMARK  Name = 
REMARK  7 active torsions:
REMARK  status: ('A' for Active; 'I' for Inactive)
REMARK    1  A    between atoms: N_2  and  C_4
REMARK    2  A    between atoms: C_4  and  C_5
REMARK    3  A    between atoms: C_10  and  C_11
REMARK    4  A    between atoms: C_21  and  C_23
REMARK    5  A    between atoms: C_23  and  S_24
REMARK    6  A    between atoms: S_24  and  C_25
REMARK    7  A    between atoms: C_25  and  C_26
REMARK                            x       y       z     vdW  Elec       q    Type
REMARK                         _______ _______ _______ _____ _____    ______ ____
ROOT
ATOM     11  C   UNL     1      -3.694   1.137  24.423  0.00  0.00    +0.056 A 
ATOM     12  C   UNL     1      -4.366   0.673  24.539  0.00  0.00    +0.006 A 
ATOM     13  C   UNL     1      -4.301  -0.062  24.908  0.00  0.00    +0.013 A 
ATOM     14  C   UNL     1      -3.564  -0.333  25.160  0.00  0.00    +0.041 A 
ATOM     15  C   UNL     1      -3.172  -1.054  25.574  0.00  0.00    +0.058 C 
ATOM     16  C   UNL     1      -3.326  -1.679  25.854  0.00  0.00    +0.011 C 
ATOM     17  C   UNL     1      -2.664  -1.218  25.737  0.00  0.00    +0.043 C 
ATOM     18  C   UNL     1      -1.763  -0.815  25.687  0.00  0.00    +0.095 C 
ATOM     19  N   UNL     1      -1.952  -0.096  25.306  0.00  0.00    -0.278 N 
ATOM     20  C   UNL     1      -2.295  -0.678  25.534  0.00  0.00    +0.099 C 
ATOM     21  C   UNL     1      -1.840   0.646  24.963  0.00  0.00    +0.237 C 
ATOM     22  O   UNL     1      -2.484   1.061  24.656  0.00  0.00    -0.274 OA
ATOM     29  C   UNL     1      -3.065  -0.461  25.303  0.00  0.00    +0.110 C 
ATOM     30  N   UNL     1      -2.892   0.131  25.043  0.00  0.00    -0.299 N 
ATOM     31  C   UNL     1      -2.957   0.866  24.674  0.00  0.00    +0.261 A 
ATOM     32  O   UNL     1      -2.461   1.486  24.453  0.00  0.00    -0.267 OA
ENDROOT
BRANCH  11  10
ATOM      5  C   UNL     1      -4.146   2.492  24.437  0.00  0.00    -0.006 A 
ATOM      6  C   UNL     1      -4.213   3.227  24.069  0.00  0.00    -0.003 A 
ATOM      7  C   UNL     1      -3.892   3.342  23.318  0.00  0.00    -0.000 A 
ATOM      8  C   UNL     1      -3.506   2.723  22.934  0.00  0.00    -0.000 A 
ATOM      9  C   UNL     1      -3.439   1.987  23.303  0.00  0.00    -0.000 A 
ATOM     10  C   UNL     1      -3.760   1.872  24.054  0.00  0.00    +0.002 A 
BRANCH   5   4
ATOM      4  C   UNL     1      -4.467   2.376  25.189  0.00  0.00    +0.099 C 
BRANCH   4   2
ATOM      1  C   UNL     1      -4.371   3.548  26.001  0.00  0.00    +0.090 C 
ATOM      2  N   UNL     1      -4.829   3.004  25.583  0.00  0.00    -0.267 NA
ATOM      3  C   UNL     1      -5.650   3.087  25.561  0.00  0.00    +0.090 C 
ENDBRANCH   4   2
ENDBRANCH   5   4
ENDBRANCH  11  10
BRANCH  21  23
ATOM     23  C   UNL     1      -1.083   0.973  24.927  0.00  0.00    +0.143 C 
BRANCH  23  24
ATOM     24  S   UNL     1      -0.837   1.507  25.505  0.00  0.00    -0.119 S 
BRANCH  24  25
ATOM     25  C   UNL     1      -0.122   1.910  25.417  0.00  0.00    +0.172 C 
BRANCH  25  26
ATOM     26  C   UNL     1       0.064   2.536  25.922  0.00  0.00    +0.376 C 
ATOM     27  O   UNL     1       0.547   2.406  26.578  0.00  0.00    -0.245 OA
ATOM     28  O   UNL     1      -0.234   3.291  25.771  0.00  0.00    -0.245 OA
ENDBRANCH  25  26
ENDBRANCH  24  25
ENDBRANCH  23  24
ENDBRANCH  21  23
TORSDOF 7
ENDMDL
MODEL 2
REMARK VINA RESULT:     -11.8      1.751      3.856
REMARK  Name = 
REMARK  7 active torsions:
REMARK  status: ('A' for Active; 'I' for Inactive)
REMARK    1  A    between atoms: N_2  and  C_4
REMARK    2  A    between atoms: C_4  and  C_5
REMARK    3  A    between atoms: C_10  and  C_11
REMARK    4  A    between atoms: C_21  and  C_23
REMARK    5  A    between atoms: C_23  and  S_24
REMARK    6  A    between atoms: S_24  and  C_25
REMARK    7  A    between atoms: C_25  and  C_26
REMARK                            x       y       z     vdW  Elec       q    Type
REMARK                         _______ _______ _______ _____ _____    ______ ____
ROOT
ATOM     11  C   UNL     1      -1.613  -0.277  24.963  0.00  0.00    +0.056 A 
ATOM     12  C   UNL     1      -1.308  -1.031  25.099  0.00  0.00    +0.006 A 
ATOM     13  C   UNL     1      -1.787  -1.695  24.994  0.00  0.00    +0.013 A 
ATOM     14  C   UNL     1      -2.570  -1.604  24.752  0.00  0.00    +0.041 A 
ATOM     15  C   UNL     1      -3.318  -2.100  24.555  0.00  0.00    +0.058 C 
ATOM     16  C   UNL     1      -3.547  -2.763  24.525  0.00  0.00    +0.011 C 
ATOM     17  C   UNL     1      -3.844  -2.017  24.390  0.00  0.00    +0.043 C 
ATOM     18  C   UNL     1      -4.379  -1.213  24.181  0.00  0.00    +0.095 C 
ATOM     19  N   UNL     1      -3.804  -0.622  24.320  0.00  0.00    -0.278 N 
ATOM     20  C   UNL     1      -3.848  -1.333  24.349  0.00  0.00    +0.099 C 
ATOM     21  C   UNL     1      -3.473   0.132  24.376  0.00  0.00    +0.237 C 
ATOM     22  O   UNL     1      -2.686   0.221  24.609  0.00  0.00    -0.274 OA
ATOM     29  C   UNL     1      -3.068  -1.490  24.594  0.00  0.00    +0.110 C 
ATOM     30  N   UNL     1      -2.875  -0.850  24.615  0.00  0.00    -0.299 N 
ATOM     31  C   UNL     1      -2.396  -0.186  24.720  0.00  0.00    +0.261 A 
ATOM     32  O   UNL     1      -2.461   0.633  24.652  0.00  0.00    -0.267 OA
ENDROOT
BRANCH  11  10
ATOM      5  C   UNL     1      -0.498   0.520  24.560  0.00  0.00    -0.006 A 
ATOM      6  C   UNL     1      -0.019   1.183  24.665  0.00  0.00    -0.003 A 
ATOM      7  C   UNL     1      -0.175   1.712  25.278  0.00  0.00    -0.000 A 
ATOM      8  C   UNL     1      -0.810   1.578  25.787  0.00  0.00    -0.000 A 
ATOM      9  C   UNL     1      -1.290   0.915  25.682  0.00  0.00    -0.000 A 
ATOM     10  C   UNL     1      -1.134   0.386  25.068  0.00  0.00    +0.002 A 
BRANCH   5   4
ATOM      4  C   UNL     1      -0.342  -0.008  23.946  0.00  0.00    +0.099 C 
BRANCH   4   2
ATOM      1  C   UNL     1       1.015  -0.253  23.573  0.00  0.00    +0.090 C 
ATOM      2  N   UNL     1       0.295   0.125  23.439  0.00  0.00    -0.267 NA
ATOM      3  C   UNL     1       0.211   0.636  22.797  0.00  0.00    +0.090 C 
ENDBRANCH   4   2
ENDBRANCH   5   4
ENDBRANCH  11  10
BRANCH  21  23
ATOM     23  C   UNL     1      -3.928   0.796  24.199  0.00  0.00    +0.143 C 
BRANCH  23  24
ATOM     24  S   UNL     1      -4.442   1.107  24.765  0.00  0.00    -0.119 S 
BRANCH  24  25
ATOM     25  C   UNL     1      -4.835   1.818  24.619  0.00  0.00    +0.172 C 
BRANCH  25  26
ATOM     26  C   UNL     1      -5.425   2.076  25.136  0.00  0.00    +0.376 C 
ATOM     27  O   UNL     1      -6.213   1.880  24.990  0.00  0.00    -0.245 OA
ATOM     28  O   UNL     1      -5.226   2.528  25.797  0.00  0.00    -0.245 OA
ENDBRANCH  25  26
ENDBRANCH  24  25
ENDBRANCH  23  24
ENDBRANCH  21  23
TORSDOF 7
ENDMDL
MODEL 3
REMARK VINA RESULT:     -11.7      1.769      3.662
REMARK  Name = 
REMARK  7 active torsions:
REMARK  status: ('A' for Active; 'I' for Inactive)
REMARK    1  A    between atoms: N_2  and  C_4
REMARK    2  A    between atoms: C_4  and  C_5
REMARK    3  A    between atoms: C_10  and  C_11
REMARK    4  A    between atoms: C_21  and  C_23
REMARK    5  A    between atoms: C_23  and  S_24
REMARK    6  A    between atoms: S_24  and  C_25
REMARK    7  A    between atoms: C_25  and  C_26
REMARK                            x       y       z     vdW  Elec       q    Type
REMARK                         _______ _______ _______ _____ _____    ______ ____
ROOT
ATOM     11  C   UNL     1      -3.268   2.548  24.250  0.00  0.00    +0.056 A 
ATOM     12  C   UNL     1      -3.455   3.327  24.449  0.00  0.00    +0.006 A 
ATOM     13  C   UNL     1      -4.160   3.495  24.842  0.00  0.00    +0.013 A 
ATOM     14  C   UNL     1      -4.679   2.884  25.037  0.00  0.00    +0.041 A 
ATOM     15  C   UNL     1      -5.489   2.739  25.445  0.00  0.00    +0.058 C 
ATOM     16  C   UNL     1      -6.013   3.079  25.765  0.00  0.00    +0.011 C 
ATOM     17  C   UNL     1      -5.826   2.311  25.568  0.00  0.00    +0.043 C 
ATOM     18  C   UNL     1      -5.778   1.336  25.418  0.00  0.00    +0.095 C 
ATOM     19  N   UNL     1      -5.043   1.290  25.025  0.00  0.00    -0.278 N 
ATOM     20  C   UNL     1      -5.458   1.794  25.308  0.00  0.00    +0.099 C 
ATOM     21  C   UNL     1      -4.395   0.952  24.640  0.00  0.00    +0.237 C 
ATOM     22  O   UNL     1      -3.777   1.430  24.376  0.00  0.00    -0.274 OA
ATOM     29  C   UNL     1      -4.978   2.453  25.140  0.00  0.00    +0.110 C 
ATOM     30  N   UNL     1      -4.492   2.105  24.839  0.00  0.00    -0.299 N 
ATOM     31  C   UNL     1      -3.786   1.937  24.445  0.00  0.00    +0.261 A 
ATOM     32  O   UNL     1      -3.391   1.276  24.152  0.00  0.00    -0.267 OA
ENDROOT
BRANCH  11  10
ATOM      5  C   UNL     1      -1.841   2.493  24.241  0.00  0.00    -0.006 A 
ATOM      6  C   UNL     1      -1.135   2.326  23.848  0.00  0.00    -0.003 A 
ATOM      7  C   UNL     1      -1.150   2.048  23.072  0.00  0.00    -0.000 A 
ATOM      8  C   UNL     1      -1.872   1.936  22.688  0.00  0.00    -0.000 A 
ATOM      9  C   UNL     1      -2.578   2.103  23.081  0.00  0.00    -0.000 A 
ATOM     10  C   UNL     1      -2.563   2.381  23.857  0.00  0.00    +0.002 A 
BRANCH   5   4
ATOM      4  C   UNL     1      -1.825   2.771  25.017  0.00  0.00    +0.099 C 
BRANCH   4   2
ATOM      1  C   UNL     1      -0.767   2.292  25.850  0.00  0.00    +0.090 C 
ATOM      2  N   UNL     1      -1.103   2.894  25.397  0.00  0.00    -0.267 NA
ATOM      3  C   UNL     1      -0.716   3.619  25.324  0.00  0.00    +0.090 C 
ENDBRANCH   4   2
ENDBRANCH   5   4
ENDBRANCH  11  10
BRANCH  21  23
ATOM     23  C   UNL     1      -4.366   0.137  24.521  0.00  0.00    +0.143 C 
BRANCH  23  24
ATOM     24  S   UNL     1      -3.997  -0.349  25.077  0.00  0.00    -0.119 S 
BRANCH  24  25
ATOM     25  C   UNL     1      -3.866  -1.146  24.906  0.00  0.00    +0.172 C 
BRANCH  25  26
ATOM     26  C   UNL     1      -3.569  -1.648  25.489  0.00  0.00    +0.376 C 
ATOM     27  O   UNL     1      -3.523  -2.461  25.348  0.00  0.00    -0.245 OA
ATOM     28  O   UNL     1      -3.317  -1.339  26.212  0.00  0.00    -0.245 OA
ENDBRANCH  25  26
ENDBRANCH  24  25
ENDBRANCH  23  24
ENDBRANCH  21  23
TORSDOF 7
ENDMDL
MODEL 4
REMARK VINA RESULT:     -11.6      1.461      3.397
REMARK  Name = 
REMARK  7 active torsions:
REMARK  status: ('A' for Active; 'I' for Inactive)
REMARK    1  A    between atoms: N_2  and  C_4
REMARK    2  A    between atoms: C_4  and  C_5
REMARK    3  A    between atoms: C_10  and  C_11
REMARK    4  A    between atoms: C_21  and  C_23
REMARK    5  A    between atoms: C_23  and  S_24
REMARK    6  A    between atoms: S_24  and  C_25
REMARK    7  A    between atoms: C_25  and  C_26
REMARK                            x       y       z     vdW  Elec       q    Type
REMARK                         _______ _______ _______ _____ _____    ______ ____
ROOT
ATOM     11  C   UNL     1      -2.805   1.105  24.306  0.00  0.00    +0.056 A 
ATOM     12  C   UNL     1      -3.422   0.641  24.014  0.00  0.00    +0.006 A 
ATOM     13  C   UNL     1      -4.205   0.868  24.143  0.00  0.00    +0.013 A 
ATOM     14  C   UNL     1      -4.371   1.558  24.563  0.00  0.00    +0.041 A 
ATOM     15  C   UNL     1      -5.081   2.059  24.861  0.00  0.00    +0.058 C 
ATOM     16  C   UNL     1      -5.783   2.073  24.862  0.00  0.00    +0.011 C 
ATOM     17  C   UNL     1      -5.171   2.529  25.148  0.00  0.00    +0.043 C 
ATOM     18  C   UNL     1      -4.581   3.201  25.567  0.00  0.00    +0.095 C 
ATOM     19  N   UNL     1      -3.837   2.873  25.375  0.00  0.00    -0.278 N 
ATOM     20  C   UNL     1      -4.524   2.717  25.271  0.00  0.00    +0.099 C 
ATOM     21  C   UNL     1      -3.016   2.796  25.338  0.00  0.00    +0.237 C 
ATOM     22  O   UNL     1      -2.679   2.152  24.948  0.00  0.00    -0.274 OA
ATOM     29  C   UNL     1      -4.423   2.012  24.841  0.00  0.00    +0.110 C 
ATOM     30  N   UNL     1      -3.754   2.021  24.855  0.00  0.00    -0.299 N 
ATOM     31  C   UNL     1      -2.971   1.795  24.726  0.00  0.00    +0.261 A 
ATOM     32  O   UNL     1      -2.215   2.073  24.905  0.00  0.00    -0.267 OA
ENDROOT
BRANCH  11  10
ATOM      5  C   UNL     1      -1.726   0.200  24.540  0.00  0.00    -0.006 A 
ATOM      6  C   UNL     1      -0.943  -0.028  24.411  0.00  0.00    -0.003 A 
ATOM      7  C   UNL     1      -0.458   0.423  23.919  0.00  0.00    -0.000 A 
ATOM      8  C   UNL     1      -0.755   1.101  23.555  0.00  0.00    -0.000 A 
ATOM      9  C   UNL     1      -1.538   1.329  23.684  0.00  0.00    -0.000 A 
ATOM     10  C   UNL     1      -2.023   0.878  24.176  0.00  0.00    +0.002 A 
BRANCH   5   4
ATOM      4  C   UNL     1      -2.210  -0.251  25.032  0.00  0.00    +0.099 C 
BRANCH   4   2
ATOM      1  C   UNL     1      -1.549  -0.899  26.120  0.00  0.00    +0.090 C 
ATOM      2  N   UNL     1      -1.917  -0.937  25.383  0.00  0.00    -0.267 NA
ATOM      3  C   UNL     1      -1.993  -1.663  24.998  0.00  0.00    +0.090 C 
ENDBRANCH   4   2
ENDBRANCH   5   4
ENDBRANCH  11  10
BRANCH  21  23
ATOM     23  C   UNL     1      -2.533   3.364  25.692  0.00  0.00    +0.143 C 
BRANCH  23  24
ATOM     24  S   UNL     1      -2.255   4.003  25.249  0.00  0.00    -0.119 S 
BRANCH  24  25
ATOM     25  C   UNL     1      -1.715   4.531  25.581  0.00  0.00    +0.172 C 
BRANCH  25  26
ATOM     26  C   UNL     1      -1.365   5.111  25.111  0.00  0.00    +0.376 C 
ATOM     27  O   UNL     1      -1.744   5.836  25.000  0.00  0.00    -0.245 OA
ATOM     28  O   UNL     1      -0.635   4.967  24.752  0.00  0.00    -0.245 OA
ENDBRANCH  25  26
ENDBRANCH  24  25
ENDBRANCH  23  24
ENDBRANCH  21  23
TORSDOF 7
ENDMDL
MODEL 5
REMARK VINA RESULT:     -11.4      1.302      3.527
REMARK  Name = 
REMARK  7 active torsions:
REMARK  status: ('A' for Active; 'I' for Inactive)
REMARK    1  A    between atoms: N_2  and  C_4
REMARK    2  A    between atoms: C_4  and  C_5
REMARK    3  A    between atoms: C_10  and  C_11
REMARK    4  A    between atoms: C_21  and  C_23
REMARK    5  A    between atoms: C_23  and  S_24
REMARK    6  A    between atoms: S_24  and  C_25
REMARK    7  A    between atoms: C_25  and  C_26
REMARK                            x       y       z     vdW  Elec       q    Type
REMARK                         _______ _______ _______ _____ _____    ______ ____
ROOT
ATOM     11  C   UNL     1      -3.480  -0.085  25.125  0.00  0.00    +0.056 A 
ATOM     12  C   UNL     1      -4.201  -0.250  25.492  0.00  0.00    +0.006 A 
ATOM     13  C   UNL     1      -4.805   0.311  25.485  0.00  0.00    +0.013 A 
ATOM     14  C   UNL     1      -4.690   1.037  25.110  0.00  0.00    +0.041 A 
ATOM     15  C   UNL     1      -5.127   1.825  24.931  0.00  0.00    +0.058 C 
ATOM     16  C   UNL     1      -5.740   2.150  25.034  0.00  0.00    +0.011 C 
ATOM     17  C   UNL     1      -5.028   2.309  24.672  0.00  0.00    +0.043 C 
ATOM     18  C   UNL     1      -4.252   2.683  24.187  0.00  0.00    +0.095 C 
ATOM     19  N   UNL     1      -3.720   2.043  24.260  0.00  0.00    -0.278 N 
ATOM     20  C   UNL     1      -4.385   2.200  24.460  0.00  0.00    +0.099 C 
ATOM     21  C   UNL     1      -3.025   1.606  24.175  0.00  0.00    +0.237 C 
ATOM     22  O   UNL     1      -2.972   0.847  24.496  0.00  0.00    -0.274 OA
ATOM     29  C   UNL     1      -4.563   1.489  24.854  0.00  0.00    +0.110 C 
ATOM     30  N   UNL     1      -3.969   1.201  24.742  0.00  0.00    -0.299 N 
ATOM     31  C   UNL     1      -3.365   0.640  24.750  0.00  0.00    +0.261 A 
ATOM     32  O   UNL     1      -2.593   0.567  24.469  0.00  0.00    -0.267 OA
ENDROOT
BRANCH  11  10
ATOM      5  C   UNL     1      -2.999  -1.388  24.792  0.00  0.00    -0.006 A 
ATOM      6  C   UNL     1      -2.395  -1.951  24.800  0.00  0.00    -0.003 A 
ATOM      7  C   UNL     1      -1.669  -1.771  25.148  0.00  0.00    -0.000 A 
ATOM      8  C   UNL     1      -1.546  -1.030  25.489  0.00  0.00    -0.000 A 
ATOM      9  C   UNL     1      -2.151  -0.468  25.482  0.00  0.00    -0.000 A 
ATOM     10  C   UNL     1      -2.876  -0.647  25.133  0.00  0.00    +0.002 A 
BRANCH   5   4
ATOM      4  C   UNL     1      -3.724  -1.568  24.444  0.00  0.00    +0.099 C 
BRANCH   4   2
ATOM      1  C   UNL     1      -4.028  -2.384  23.311  0.00  0.00    +0.090 C 
ATOM      2  N   UNL     1      -3.850  -2.313  24.114  0.00  0.00    -0.267 NA
ATOM      3  C   UNL     1      -3.799  -2.988  24.586  0.00  0.00    +0.090 C 
ENDBRANCH   4   2
ENDBRANCH   5   4
ENDBRANCH  11  10
BRANCH  21  23
ATOM     23  C   UNL     1      -2.383   1.927  23.768  0.00  0.00    +0.143 C 
BRANCH  23  24
ATOM     24  S   UNL     1      -1.837   2.400  24.168  0.00  0.00    -0.119 S 
BRANCH  24  25
ATOM     25  C   UNL     1      -1.164   2.674  23.775  0.00  0.00    +0.172 C 
BRANCH  25  26
ATOM     26  C   UNL     1      -0.553   3.026  24.203  0.00  0.00    +0.376 C 
ATOM     27  O   UNL     1       0.113   2.584  24.408  0.00  0.00    -0.245 OA
ATOM     28  O   UNL     1      -0.607   3.819  24.426  0.00  0.00    -0.245 OA
ENDBRANCH  25  26
ENDBRANCH  24  25
ENDBRANCH  23  24
ENDBRANCH  21  23
TORSDOF 7
ENDMDL
MODEL 6
REMARK VINA RESULT:     -11.2      1.938      4.638
REMARK  Name = 
REMARK  7 active torsions:
REMARK  status: ('A' for Active; 'I' for Inactive)
REMARK    1  A    between atoms: N_2  and  C_4
REMARK    2  A    between atoms: C_4  and  C_5
REMARK    3  A    between atoms: C_10  and  C_11
REMARK    4  A    between atoms: C_21  and  C_23
REMARK    5  A    between atoms: C_23  and  S_24
REMARK    6  A    between atoms: S_24  and  C_25
REMARK    7  A    between atoms: C_25  and  C_26
REMARK                            x       y       z     vdW  Elec       q    Type
REMARK                         _______ _______ _______ _____ _____    ______ ____
ROOT
ATOM     11  C   UNL     1      -1.104   1.501  25.274  0.00  0.00    +0.056 A 
ATOM     12  C   UNL     1      -0.442   1.933  25.510  0.00  0.00    +0.006 A 
ATOM     13  C   UNL     1      -0.476   2.757  25.541  0.00  0.00    +0.013 A 
ATOM     14  C   UNL     1      -1.172   3.148  25.335  0.00  0.00    +0.041 A 
ATOM     15  C   UNL     1      -1.521   3.995  25.264  0.00  0.00    +0.058 C 
ATOM     16  C   UNL     1      -1.349   4.670  25.354  0.00  0.00    +0.011 C 
ATOM     17  C   UNL     1      -2.001   4.240  25.121  0.00  0.00    +0.043 C 
ATOM     18  C   UNL     1      -2.880   3.904  24.819  0.00  0.00    +0.095 C 
ATOM     19  N   UNL     1      -2.726   3.083  24.828  0.00  0.00    -0.278 N 
ATOM     20  C   UNL     1      -2.375   3.686  24.972  0.00  0.00    +0.099 C 
ATOM     21  C   UNL     1      -2.862   2.273  24.743  0.00  0.00    +0.237 C 
ATOM     22  O   UNL     1      -2.260   1.733  24.911  0.00  0.00    -0.274 OA
ATOM     29  C   UNL     1      -1.646   3.351  25.192  0.00  0.00    +0.110 C 
ATOM     30  N   UNL     1      -1.834   2.715  25.099  0.00  0.00    -0.299 N 
ATOM     31  C   UNL     1      -1.800   1.892  25.068  0.00  0.00    +0.261 A 
ATOM     32  O   UNL     1      -2.299   1.264  24.875  0.00  0.00    -0.267 OA
ENDROOT
BRANCH  11  10
ATOM      5  C   UNL     1      -0.618   0.305  24.662  0.00  0.00    -0.006 A 
ATOM      6  C   UNL     1      -0.582  -0.518  24.631  0.00  0.00    -0.003 A 
ATOM      7  C   UNL     1      -0.997  -0.970  25.183  0.00  0.00    -0.000 A 
ATOM      8  C   UNL     1      -1.448  -0.599  25.766  0.00  0.00    -0.000 A 
ATOM      9  C   UNL     1      -1.483   0.226  25.796  0.00  0.00    -0.000 A 
ATOM     10  C   UNL     1      -1.068   0.677  25.244  0.00  0.00    +0.002 A 
BRANCH   5   4
ATOM      4  C   UNL     1      -0.203   0.756  24.110  0.00  0.00    +0.099 C 
BRANCH   4   2
ATOM      1  C   UNL     1       1.047   0.246  23.643  0.00  0.00    +0.090 C 
ATOM      2  N   UNL     1       0.243   0.384  23.524  0.00  0.00    -0.267 NA
ATOM      3  C   UNL     1      -0.116   0.150  22.819  0.00  0.00    +0.090 C 
ENDBRANCH   4   2
ENDBRANCH   5   4
ENDBRANCH  11  10
BRANCH  21  23
ATOM     23  C   UNL     1      -3.599   2.003  24.491  0.00  0.00    +0.143 C 
BRANCH  23  24
ATOM     24  S   UNL     1      -4.241   2.010  25.010  0.00  0.00    -0.119 S 
BRANCH  24  25
ATOM     25  C   UNL     1      -4.936   1.610  24.813  0.00  0.00    +0.172 C 
BRANCH  25  26
ATOM     26  C   UNL     1      -5.642   1.799  25.194  0.00  0.00    +0.376 C 
ATOM     27  O   UNL     1      -6.319   1.963  24.750  0.00  0.00    -0.245 OA
ATOM     28  O   UNL     1      -5.673   1.826  26.018  0.00  0.00    -0.245 OA
ENDBRANCH  25  26
ENDBRANCH  24  25
ENDBRANCH  23  24
ENDBRANCH  21  23
TORSDOF 7
ENDMDL
MODEL 7
REMARK VINA RESULT:     -11.1      2.003      4.325
REMARK  Name = 
REMARK  7 active torsions:
REMARK  status: ('A' for Active; 'I' for Inactive)
REMARK    1  A    between atoms: N_2  and  C_4
REMARK    2  A    between atoms: C_4  and  C_5
REMARK    3  A    between atoms: C_10  and  C_11
REMARK    4  A    between atoms: C_21  and  C_23
REMARK    5  A    between atoms: C_23  and  S_24
REMARK    6  A    between atoms: S_24  and  C_25
REMARK    7  A    between atoms: C_25  and  C_26
REMARK                            x       y       z     vdW  Elec       q    Type
REMARK                         _______ _______ _______ _____ _____    ______ ____
ROOT
ATOM     11  C   UNL     1      -1.983   1.719  24.334  0.00  0.00    +0.056 A 
ATOM     12  C   UNL     1      -1.260   1.816  23.949  0.00  0.00    +0.006 A 
ATOM     13  C   UNL     1      -0.842   2.523  24.028  0.00  0.00    +0.013 A 
ATOM     14  C   UNL     1      -1.147   3.133  24.492  0.00  0.00    +0.041 A 
ATOM     15  C   UNL     1      -0.949   3.986  24.769  0.00  0.00    +0.058 C 
ATOM     16  C   UNL     1      -0.458   4.485  24.708  0.00  0.00    +0.011 C 
ATOM     17  C   UNL     1      -1.172   4.386  25.087  0.00  0.00    +0.043 C 
ATOM     18  C   UNL     1      -2.004   4.457  25.616  0.00  0.00    +0.095 C 
ATOM     19  N   UNL     1      -2.333   3.704  25.462  0.00  0.00    -0.278 N 
ATOM     20  C   UNL     1      -1.748   4.070  25.284  0.00  0.00    +0.099 C 
ATOM     21  C   UNL     1      -2.870   3.078  25.491  0.00  0.00    +0.237 C 
ATOM     22  O   UNL     1      -2.715   2.382  25.076  0.00  0.00    -0.274 OA
ATOM     29  C   UNL     1      -1.388   3.494  24.803  0.00  0.00    +0.110 C 
ATOM     30  N   UNL     1      -1.870   3.036  24.877  0.00  0.00    -0.299 N 
ATOM     31  C   UNL     1      -2.288   2.329  24.798  0.00  0.00    +0.261 A 
ATOM     32  O   UNL     1      -2.996   2.003  25.068  0.00  0.00    -0.267 OA
ENDROOT
BRANCH  11  10
ATOM      5  C   UNL     1      -2.101   0.318  24.584  0.00  0.00    -0.006 A 
ATOM      6  C   UNL     1      -2.518  -0.389  24.505  0.00  0.00    -0.003 A 
ATOM      7  C   UNL     1      -3.234  -0.402  24.097  0.00  0.00    -0.000 A 
ATOM      8  C   UNL     1      -3.535   0.292  23.768  0.00  0.00    -0.000 A 
ATOM      9  C   UNL     1      -3.117   1.000  23.847  0.00  0.00    -0.000 A 
ATOM     10  C   UNL     1      -2.401   1.013  24.255  0.00  0.00    +0.002 A 
BRANCH   5   4
ATOM      4  C   UNL     1      -1.384   0.331  24.992  0.00  0.00    +0.099 C 
BRANCH   4   2
ATOM      1  C   UNL     1      -0.576  -0.839  24.851  0.00  0.00    +0.090 C 
ATOM      2  N   UNL     1      -1.076  -0.367  25.307  0.00  0.00    -0.267 NA
ATOM      3  C   UNL     1      -1.268  -0.593  26.077  0.00  0.00    +0.090 C 
ENDBRANCH   4   2
ENDBRANCH   5   4
ENDBRANCH  11  10
BRANCH  21  23
ATOM     23  C   UNL     1      -3.561   3.149  25.935  0.00  0.00    +0.143 C 
BRANCH  23  24
ATOM     24  S   UNL     1      -4.256   3.413  25.578  0.00  0.00    -0.119 S 
BRANCH  24  25
ATOM     25  C   UNL     1      -4.961   3.430  26.007  0.00  0.00    +0.172 C 
BRANCH  25  26
ATOM     26  C   UNL     1      -5.677   3.556  25.618  0.00  0.00    +0.376 C 
ATOM     27  O   UNL     1      -6.013   4.310  25.606  0.00  0.00    -0.245 OA
ATOM     28  O   UNL     1      -6.058   2.929  25.240  0.00  0.00    -0.245 OA
ENDBRANCH  25  26
ENDBRANCH  24  25
ENDBRANCH  23  24
ENDBRANCH  21  23
TORSDOF 7
ENDMDL
MODEL 8
REMARK VINA RESULT:     -11.0      1.766      3.202
REMARK  Name = 
REMARK  7 active torsions:
REMARK  status: ('A' for Active; 'I' for Inactive)
REMARK    1  A    between atoms: N_2  and  C_4
REMARK    2  A    between atoms: C_4  and  C_5
REMARK    3  A    between atoms: C_10  and  C_11
REMARK    4  A    between atoms: C_21  and  C_23
REMARK    5  A    between atoms: C_23  and  S_24
REMARK    6  A    between atoms: S_24  and  C_25
REMARK    7  A    between atoms: C_25  and  C_26
REMARK                            x       y       z     vdW  Elec       q    Type
REMARK                         _______ _______ _______ _____ _____    ______ ____
ROOT
ATOM     11  C   UNL     1      -2.261   1.960  24.137  0.00  0.00    +0.056 A 
ATOM     12  C   UNL     1      -1.664   2.375  23.746  0.00  0.00    +0.006 A 
ATOM     13  C   UNL     1      -0.938   2.013  23.599  0.00  0.00    +0.013 A 
ATOM     14  C   UNL     1      -0.808   1.236  23.843  0.00  0.00    +0.041 A 
ATOM     15  C   UNL     1      -0.159   0.585  23.837  0.00  0.00    +0.058 C 
ATOM     16  C   UNL     1       0.499   0.466  23.624  0.00  0.00    +0.011 C 
ATOM     17  C   UNL     1      -0.091   0.059  24.010  0.00  0.00    +0.043 C 
ATOM     18  C   UNL     1      -0.670  -0.587  24.483  0.00  0.00    +0.095 C 
ATOM     19  N   UNL     1      -1.357  -0.120  24.574  0.00  0.00    -0.278 N 
ATOM     20  C   UNL     1      -0.706  -0.051  24.293  0.00  0.00    +0.099 C 
ATOM     21  C   UNL     1      -2.125   0.084  24.797  0.00  0.00    +0.237 C 
ATOM     22  O   UNL     1      -2.418   0.837  24.626  0.00  0.00    -0.274 OA
ATOM     29  C   UNL     1      -0.775   0.733  24.022  0.00  0.00    +0.110 C 
ATOM     30  N   UNL     1      -1.404   0.821  24.235  0.00  0.00    -0.299 N 
ATOM     31  C   UNL     1      -2.130   1.183  24.382  0.00  0.00    +0.261 A 
ATOM     32  O   UNL     1      -2.850   0.991  24.736  0.00  0.00    -0.267 OA
ENDROOT
BRANCH  11  10
ATOM      5  C   UNL     1      -3.030   2.962  24.803  0.00  0.00    -0.006 A 
ATOM      6  C   UNL     1      -3.756   3.325  24.950  0.00  0.00    -0.003 A 
ATOM      7  C   UNL     1      -4.438   3.049  24.578  0.00  0.00    -0.000 A 
ATOM      8  C   UNL     1      -4.395   2.410  24.058  0.00  0.00    -0.000 A 
ATOM      9  C   UNL     1      -3.669   2.046  23.911  0.00  0.00    -0.000 A 
ATOM     10  C   UNL     1      -2.987   2.322  24.284  0.00  0.00    +0.002 A 
BRANCH   5   4
ATOM      4  C   UNL     1      -2.348   3.238  25.176  0.00  0.00    +0.099 C 
BRANCH   4   2
ATOM      1  C   UNL     1      -2.640   3.830  26.443  0.00  0.00    +0.090 C 
ATOM      2  N   UNL     1      -2.384   3.903  25.662  0.00  0.00    -0.267 NA
ATOM      3  C   UNL     1      -2.165   4.642  25.368  0.00  0.00    +0.090 C 
ENDBRANCH   4   2
ENDBRANCH   5   4
ENDBRANCH  11  10
BRANCH  21  23
ATOM     23  C   UNL     1      -2.599  -0.463  25.192  0.00  0.00    +0.143 C 
BRANCH  23  24
ATOM     24  S   UNL     1      -2.942  -1.087  24.775  0.00  0.00    -0.119 S 
BRANCH  24  25
ATOM     25  C   UNL     1      -3.475  -1.593  25.152  0.00  0.00    +0.172 C 
BRANCH  25  26
ATOM     26  C   UNL     1      -3.733  -2.277  24.772  0.00  0.00    +0.376 C 
ATOM     27  O   UNL     1      -3.503  -3.018  25.055  0.00  0.00    -0.245 OA
ATOM     28  O   UNL     1      -4.221  -2.223  24.108  0.00  0.00    -0.245 OA
ENDBRANCH  25  26
ENDBRANCH  24  25
ENDBRANCH  23  24
ENDBRANCH  21  23
TORSDOF 7
ENDMDL
MODEL 9
REMARK VINA RESULT:     -10.9      1.846      2.394
REMARK  Name = 
REMARK  7 active torsions:
REMARK  status: ('A' for Active; 'I' for Inactive)
REMARK    1  A    between atoms: N_2  and  C_4
REMARK    2  A    between atoms: C_4  and  C_5
REMARK    3  A    between atoms: C_10  and  C_11
REMARK    4  A    between atoms: C_21  and  C_23
REMARK    5  A    between atoms: C_23  and  S_24
REMARK    6  A    between atoms: S_24  and  C_25
REMARK    7  A    between atoms: C_25  and  C_26
REMARK                            x       y       z     vdW  Elec       q    Type
REMARK                         _______ _______ _______ _____ _____    ______ ____
ROOT
ATOM     11  C   UNL     1      -2.665   0.707  24.866  0.00  0.00    +0.056 A 
ATOM     12  C   UNL     1      -3.468   0.536  24.950  0.00  0.00    +0.006 A 
ATOM     13  C   UNL     1      -3.730  -0.245  24.916  0.00  0.00    +0.013 A 
ATOM     14  C   UNL     1      -3.189  -0.857  24.798  0.00  0.00    +0.041 A 
ATOM     15  C   UNL     1      -3.152  -1.771  24.716  0.00  0.00    +0.058 C 
ATOM     16  C   UNL     1      -3.562  -2.341  24.718  0.00  0.00    +0.011 C 
ATOM     17  C   UNL     1      -2.770  -2.169  24.636  0.00  0.00    +0.043 C 
ATOM     18  C   UNL     1      -1.789  -2.165  24.516  0.00  0.00    +0.095 C 
ATOM     19  N   UNL     1      -1.645  -1.344  24.568  0.00  0.00    -0.278 N 
ATOM     20  C   UNL     1      -2.205  -1.784  24.599  0.00  0.00    +0.099 C 
ATOM     21  C   UNL     1      -1.221  -0.636  24.576  0.00  0.00    +0.237 C 
ATOM     22  O   UNL     1      -1.617   0.081  24.685  0.00  0.00    -0.274 OA
ATOM     29  C   UNL     1      -2.799  -1.213  24.720  0.00  0.00    +0.110 C 
ATOM     30  N   UNL     1      -2.386  -0.686  24.714  0.00  0.00    -0.299 N 
ATOM     31  C   UNL     1      -2.124   0.095  24.749  0.00  0.00    +0.261 A 
ATOM     32  O   UNL     1      -1.411   0.505  24.696  0.00  0.00    -0.267 OA
ENDROOT
BRANCH  11  10
ATOM      5  C   UNL     1      -2.608   2.017  24.301  0.00  0.00    -0.006 A 
ATOM      6  C   UNL     1      -2.347   2.799  24.334  0.00  0.00    -0.003 A 
ATOM      7  C   UNL     1      -1.883   3.052  24.968  0.00  0.00    -0.000 A 
ATOM      8  C   UNL     1      -1.680   2.524  25.568  0.00  0.00    -0.000 A 
ATOM      9  C   UNL     1      -1.941   1.741  25.534  0.00  0.00    -0.000 A 
ATOM     10  C   UNL     1      -2.405   1.488  24.901  0.00  0.00    +0.002 A 
BRANCH   5   4
ATOM      4  C   UNL     1      -3.072   1.764  23.668  0.00  0.00    +0.099 C 
BRANCH   4   2
ATOM      1  C   UNL     1      -3.842   2.827  23.104  0.00  0.00    +0.090 C 
ATOM      2  N   UNL     1      -3.230   2.277  23.041  0.00  0.00    -0.267 NA
ATOM      3  C   UNL     1      -2.777   2.241  22.353  0.00  0.00    +0.090 C 
ENDBRANCH   4   2
ENDBRANCH   5   4
ENDBRANCH  11  10
BRANCH  21  23
ATOM     23  C   UNL     1      -0.403  -0.644  24.476  0.00  0.00    +0.143 C 
BRANCH  23  24
ATOM     24  S   UNL     1      -0.077  -0.481  23.735  0.00  0.00    -0.119 S 
BRANCH  24  25
ATOM     25  C   UNL     1       0.743  -0.478  23.637  0.00  0.00    +0.172 C 
BRANCH  25  26
ATOM     26  C   UNL     1       1.077  -0.122  22.972  0.00  0.00    +0.376 C 
ATOM     27  O   UNL     1       1.573   0.532  23.061  0.00  0.00    -0.245 OA
ATOM     28  O   UNL     1       0.915  -0.419  22.219  0.00  0.00    -0.245 OA
ENDBRANCH  25  26
ENDBRANCH  24  25
ENDBRANCH  23  24
ENDBRANCH  21  23
TORSDOF 7
ENDMDL
MODEL 10
REMARK VINA RESULT:     -10.9      1.734      3.171
REMARK  Name = 
REMARK  7 active torsions:
REMARK  status: ('A' for Active; 'I' for Inactive)
REMARK    1  A    between atoms: N_2  and  C_4
REMARK    2  A    between atoms: C_4  and  C_5
REMARK    3  A    between atoms: C_10  and  C_11
REMARK    4  A    between atoms: C_21  and  C_23
REMARK    5  A    between atoms: C_23  and  S_24
REMARK    6  A    between atoms: S_24  and  C_25
REMARK    7  A    between atoms: C_25  and  C_26
REMARK                            x       y       z     vdW  Elec       q    Type
REMARK                         _______ _______ _______ _____ _____    ______ ____
ROOT
ATOM     11  C   UNL     1      -3.365   2.728  24.682  0.00  0.00    +0.056 A 
ATOM     12  C   UNL     1      -3.573   3.509  24.518  0.00  0.00    +0.006 A 
ATOM     13  C   UNL     1      -3.017   4.112  24.607  0.00  0.00    +0.013 A 
ATOM     14  C   UNL     1      -2.252   3.933  24.859  0.00  0.00    +0.041 A 
ATOM     15  C   UNL     1      -1.449   4.338  25.047  0.00  0.00    +0.058 C 
ATOM     16  C   UNL     1      -1.140   4.968  25.058  0.00  0.00    +0.011 C 
ATOM     17  C   UNL     1      -0.938   4.196  25.219  0.00  0.00    +0.043 C 
ATOM     18  C   UNL     1      -0.509   3.339  25.458  0.00  0.00    +0.095 C 
ATOM     19  N   UNL     1      -1.152   2.820  25.333  0.00  0.00    -0.278 N 
ATOM     20  C   UNL     1      -1.020   3.518  25.282  0.00  0.00    +0.099 C 
ATOM     21  C   UNL     1      -1.574   2.111  25.298  0.00  0.00    +0.237 C 
ATOM     22  O   UNL     1      -2.364   2.113  25.061  0.00  0.00    -0.274 OA
ATOM     29  C   UNL     1      -1.773   3.763  25.025  0.00  0.00    +0.110 C 
ATOM     30  N   UNL     1      -2.044   3.151  25.023  0.00  0.00    -0.299 N 
ATOM     31  C   UNL     1      -2.601   2.549  24.934  0.00  0.00    +0.261 A 
ATOM     32  O   UNL     1      -2.639   1.730  25.028  0.00  0.00    -0.267 OA
ENDROOT
BRANCH  11  10
ATOM      5  C   UNL     1      -4.621   2.144  25.031  0.00  0.00    -0.006 A 
ATOM      6  C   UNL     1      -5.179   1.542  24.943  0.00  0.00    -0.003 A 
ATOM      7  C   UNL     1      -5.038   0.924  24.416  0.00  0.00    -0.000 A 
ATOM      8  C   UNL     1      -4.339   0.906  23.977  0.00  0.00    -0.000 A 
ATOM      9  C   UNL     1      -3.781   1.508  24.066  0.00  0.00    -0.000 A 
ATOM     10  C   UNL     1      -3.922   2.126  24.593  0.00  0.00    +0.002 A 
BRANCH   5   4
ATOM      4  C   UNL     1      -4.762   2.762  25.558  0.00  0.00    +0.099 C 
BRANCH   4   2
ATOM      1  C   UNL     1      -6.044   3.384  25.672  0.00  0.00    +0.090 C 
ATOM      2  N   UNL     1      -5.495   2.826  25.932  0.00  0.00    -0.267 NA
ATOM      3  C   UNL     1      -5.678   2.332  26.567  0.00  0.00    +0.090 C 
ENDBRANCH   4   2
ENDBRANCH   5   4
ENDBRANCH  11  10
BRANCH  21  23
ATOM     23  C   UNL     1      -1.205   1.402  25.500  0.00  0.00    +0.143 C 
BRANCH  23  24
ATOM     24  S   UNL     1      -0.835   0.949  24.918  0.00  0.00    -0.119 S 
BRANCH  24  25
ATOM     25  C   UNL     1      -0.536   0.202  25.104  0.00  0.00    +0.172 C 
BRANCH  25  26
ATOM     26  C   UNL     1      -0.323  -0.318  24.501  0.00  0.00    +0.376 C 
ATOM     27  O   UNL     1      -0.591  -1.099  24.517  0.00  0.00    -0.245 OA
ATOM     28  O   UNL     1       0.157  -0.059  23.881  0.00  0.00    -0.245 OA
ENDBRANCH  25  26
ENDBRANCH  24  25
ENDBRANCH  23  24
ENDBRANCH  21  23
TORSDOF 7
ENDMDL
