MODEL 1
REMARK VINA RESULT:     -10.1      0.000      0.000
REMARK  Name = 
REMARK  1 active torsions:
REMARK  status: ('A' for Active; 'I' for Inactive)
REMARK    1  A    between atoms: N_8  and  C_9
REMARK                            x       y       z     vdW  Elec       q    Type
REMARK                         _______ _______ _______ _____ _____    ______ ____
ROOT
ATOM      1  C   UNL     1      -5.405   3.115  25.378  0.00  0.00    +0.090 C 
ATOM      2  N   UNL     1      -4.938   2.493  25.100  0.00  0.00    -0.269 NA
ATOM      3  C   UNL     1      -4.270   2.650  24.643  0.00  0.00    +0.094 C 
ATOM      4  C   UNL     1      -3.804   2.029  24.366  0.00  0.00    +0.112 C 
ATOM      5  N   UNL     1      -4.007   1.249  24.545  0.00  0.00    -0.261 N 
ATOM      6  C   UNL     1      -4.676   1.092  25.002  0.00  0.00    +0.113 C 
ATOM      7  C   UNL     1      -4.738   0.274  25.089  0.00  0.00    +0.116 C 
ATOM      8  N   UNL     1      -4.108  -0.074  24.687  0.00  0.00    -0.264 N 
ATOM     15  C   UNL     1      -3.657   0.529  24.351  0.00  0.00    +0.307 C 
ATOM     16  O   UNL     1      -2.974   0.428  23.898  0.00  0.00    -0.252 OA
ATOM     17  C   UNL     1      -5.142   1.714  25.279  0.00  0.00    +0.094 C 
ENDROOT
BRANCH   8   9
ATOM      9  C   UNL     1      -3.957  -0.883  24.630  0.00  0.00    +0.077 C 
ATOM     10  C   UNL     1      -4.233  -1.311  23.980  0.00  0.00    +0.020 C 
ATOM     11  C   UNL     1      -4.081  -2.119  23.923  0.00  0.00    +0.002 C 
ATOM     12  C   UNL     1      -3.653  -2.501  24.517  0.00  0.00    +0.000 C 
ATOM     13  C   UNL     1      -3.377  -2.075  25.166  0.00  0.00    +0.002 C 
ATOM     14  C   UNL     1      -3.529  -1.266  25.223  0.00  0.00    +0.020 C 
ENDBRANCH   8   9
TORSDOF 1
ENDMDL
MODEL 2
REMARK VINA RESULT:      -9.0      3.042      4.481
REMARK  Name = 
REMARK  1 active torsions:
REMARK  status: ('A' for Active; 'I' for Inactive)
REMARK    1  A    between atoms: N_8  and  C_9
REMARK                            x       y       z     vdW  Elec       q    Type
REMARK                         _______ _______ _______ _____ _____    ______ ____
ROOT
ATOM      1  C   UNL     1      -5.959   1.942  24.763  0.00  0.00    +0.090 C 
ATOM      2  N   UNL     1      -5.355   2.416  25.067  0.00  0.00    -0.269 NA
ATOM      3  C   UNL     1      -5.461   2.810  25.784  0.00  0.00    +0.094 C 
ATOM      4  C   UNL     1      -4.858   3.283  26.088  0.00  0.00    +0.112 C 
ATOM      5  N   UNL     1      -4.148   3.364  25.675  0.00  0.00    -0.261 N 
ATOM      6  C   UNL     1      -4.042   2.970  24.958  0.00  0.00    +0.113 C 
ATOM      7  C   UNL     1      -3.289   3.152  24.676  0.00  0.00    +0.116 C 
ATOM      8  N   UNL     1      -2.929   3.658  25.219  0.00  0.00    -0.264 N 
ATOM     15  C   UNL     1      -3.461   3.789  25.836  0.00  0.00    +0.307 C 
ATOM     16  O   UNL     1      -3.328   4.262  26.499  0.00  0.00    -0.252 OA
ATOM     17  C   UNL     1      -4.646   2.496  24.654  0.00  0.00    +0.094 C 
ENDROOT
BRANCH   8   9
ATOM      9  C   UNL     1      -2.171   3.977  25.156  0.00  0.00    +0.077 C 
ATOM     10  C   UNL     1      -2.074   4.788  25.034  0.00  0.00    +0.020 C 
ATOM     11  C   UNL     1      -1.316   5.108  24.971  0.00  0.00    +0.002 C 
ATOM     12  C   UNL     1      -0.655   4.616  25.030  0.00  0.00    +0.000 C 
ATOM     13  C   UNL     1      -0.752   3.807  25.152  0.00  0.00    +0.002 C 
ATOM     14  C   UNL     1      -1.510   3.487  25.215  0.00  0.00    +0.020 C 
ENDBRANCH   8   9
TORSDOF 1
ENDMDL
