MODEL 1
REMARK VINA RESULT:      -9.8      0.000      0.000
REMARK  Name = 
REMARK  5 active torsions:
REMARK  status: ('A' for Active; 'I' for Inactive)
REMARK    1  A    between atoms: N_2  and  C_4
REMARK    2  A    between atoms: C_7  and  C_10
REMARK    3  A    between atoms: N_12  and  C_13
REMARK    4  A    between atoms: C_15  and  C_18
REMARK    5  A    between atoms: N_21  and  C_25
REMARK                            x       y       z     vdW  Elec       q    Type
REMARK                         _______ _______ _______ _____ _____    ______ ____
ROOT
ATOM     13  C   UNL     1      -0.718   0.568  24.327  0.00  0.00    +0.118 C 
ATOM     14  C   UNL     1      -1.376   1.018  24.114  0.00  0.00    +0.035 C 
ATOM     15  C   UNL     1      -2.028   0.724  24.526  0.00  0.00    +0.048 C 
ATOM     16  C   UNL     1      -1.772   0.093  24.993  0.00  0.00    -0.025 C 
ATOM     17  C   UNL     1      -0.961  -0.002  24.869  0.00  0.00    -0.009 C 
ENDROOT
BRANCH  15  18
ATOM     18  C   UNL     1      -2.800   1.010  24.479  0.00  0.00    +0.010 A 
ATOM     19  C   UNL     1      -3.087   1.693  24.843  0.00  0.00    +0.058 A 
ATOM     20  C   UNL     1      -2.653   2.209  25.317  0.00  0.00    +0.052 C 
ATOM     21  N   UNL     1      -3.886   1.769  24.649  0.00  0.00    -0.235 N 
ATOM     22  N   UNL     1      -4.092   1.133  24.165  0.00  0.00    -0.170 NA
ATOM     23  C   UNL     1      -3.421   0.664  24.060  0.00  0.00    +0.077 A 
ATOM     24  C   UNL     1      -3.379  -0.030  23.615  0.00  0.00    +0.054 C 
BRANCH  21  25
ATOM     25  C   UNL     1      -4.389   2.374  24.895  0.00  0.00    +0.078 A 
ATOM     26  C   UNL     1      -4.200   3.160  24.732  0.00  0.00    +0.020 A 
ATOM     27  C   UNL     1      -4.704   3.765  24.978  0.00  0.00    +0.013 A 
ATOM     28  C   UNL     1      -5.397   3.585  25.388  0.00  0.00    +0.057 A 
ATOM     29 CL   UNL     1      -5.900   4.189  25.634  0.00  0.00    -0.082 Cl
ATOM     30  C   UNL     1      -5.586   2.798  25.551  0.00  0.00    +0.009 A 
ATOM     31  C   UNL     1      -5.082   2.193  25.305  0.00  0.00    -0.003 A 
ATOM     32  C   UNL     1      -5.271   1.407  25.468  0.00  0.00    +0.033 C 
ENDBRANCH  21  25
ENDBRANCH  15  18
BRANCH  13  12
ATOM     10  C   UNL     1       0.385   0.112  23.541  0.00  0.00    +0.265 C 
ATOM     11  O   UNL     1      -0.050  -0.552  23.318  0.00  0.00    -0.268 OA
ATOM     12  N   UNL     1       0.051   0.672  24.046  0.00  0.00    -0.199 NA
BRANCH  10   7
ATOM      4  C   UNL     1       2.691   0.424  22.697  0.00  0.00    +0.048 A 
ATOM      5  C   UNL     1       2.233  -0.203  22.421  0.00  0.00    +0.015 A 
ATOM      6  C   UNL     1       1.463  -0.307  22.703  0.00  0.00    +0.006 A 
ATOM      7  C   UNL     1       1.154   0.216  23.259  0.00  0.00    +0.055 A 
ATOM      8  C   UNL     1       1.612   0.844  23.535  0.00  0.00    +0.006 A 
ATOM      9  C   UNL     1       2.381   0.948  23.253  0.00  0.00    +0.015 A 
BRANCH   4   2
ATOM      1  C   UNL     1       3.620   0.437  21.612  0.00  0.00    +0.112 C 
ATOM      2  N   UNL     1       3.459   0.528  22.415  0.00  0.00    -0.304 N 
ATOM      3  C   UNL     1       4.066   0.724  22.938  0.00  0.00    +0.112 C 
ENDBRANCH   4   2
ENDBRANCH  10   7
ENDBRANCH  13  12
TORSDOF 5
ENDMDL
MODEL 2
REMARK VINA RESULT:      -8.5      0.982      1.439
REMARK  Name = 
REMARK  5 active torsions:
REMARK  status: ('A' for Active; 'I' for Inactive)
REMARK    1  A    between atoms: N_2  and  C_4
REMARK    2  A    between atoms: C_7  and  C_10
REMARK    3  A    between atoms: N_12  and  C_13
REMARK    4  A    between atoms: C_15  and  C_18
REMARK    5  A    between atoms: N_21  and  C_25
REMARK                            x       y       z     vdW  Elec       q    Type
REMARK                         _______ _______ _______ _____ _____    ______ ____
ROOT
ATOM     13  C   UNL     1      -0.209  -0.445  24.056  0.00  0.00    +0.118 C 
ATOM     14  C   UNL     1      -0.757   0.010  24.473  0.00  0.00    +0.035 C 
ATOM     15  C   UNL     1      -1.481  -0.385  24.455  0.00  0.00    +0.048 C 
ATOM     16  C   UNL     1      -1.381  -1.082  24.026  0.00  0.00    -0.025 C 
ATOM     17  C   UNL     1      -0.594  -1.119  23.780  0.00  0.00    -0.009 C 
ENDROOT
BRANCH  15  18
ATOM     18  C   UNL     1      -2.183  -0.126  24.804  0.00  0.00    +0.010 A 
ATOM     19  C   UNL     1      -2.645   0.509  24.552  0.00  0.00    +0.058 A 
ATOM     20  C   UNL     1      -2.487   0.997  23.906  0.00  0.00    +0.052 C 
ATOM     21  N   UNL     1      -3.293   0.570  25.059  0.00  0.00    -0.235 N 
ATOM     22  N   UNL     1      -3.232  -0.027  25.624  0.00  0.00    -0.170 NA
ATOM     23  C   UNL     1      -2.545  -0.458  25.467  0.00  0.00    +0.077 A 
ATOM     24  C   UNL     1      -2.269  -1.106  25.897  0.00  0.00    +0.054 C 
BRANCH  21  25
ATOM     25  C   UNL     1      -3.897   1.130  25.009  0.00  0.00    +0.078 A 
ATOM     26  C   UNL     1      -3.729   1.929  25.124  0.00  0.00    +0.020 A 
ATOM     27  C   UNL     1      -4.332   2.489  25.074  0.00  0.00    +0.013 A 
ATOM     28  C   UNL     1      -5.105   2.250  24.909  0.00  0.00    +0.057 A 
ATOM     29 CL   UNL     1      -5.708   2.809  24.859  0.00  0.00    -0.082 Cl
ATOM     30  C   UNL     1      -5.273   1.450  24.793  0.00  0.00    +0.009 A 
ATOM     31  C   UNL     1      -4.669   0.890  24.843  0.00  0.00    -0.003 A 
ATOM     32  C   UNL     1      -4.837   0.091  24.728  0.00  0.00    +0.033 C 
ENDBRANCH  21  25
ENDBRANCH  15  18
BRANCH  13  12
ATOM     10  C   UNL     1       0.851  -0.050  23.183  0.00  0.00    +0.265 C 
ATOM     11  O   UNL     1       0.322  -0.031  22.551  0.00  0.00    -0.268 OA
ATOM     12  N   UNL     1       0.585  -0.257  23.936  0.00  0.00    -0.199 NA
BRANCH  10   7
ATOM      4  C   UNL     1       3.234   0.514  22.824  0.00  0.00    +0.048 A 
ATOM      5  C   UNL     1       2.735   1.054  23.195  0.00  0.00    +0.015 A 
ATOM      6  C   UNL     1       1.939   0.866  23.315  0.00  0.00    +0.006 A 
ATOM      7  C   UNL     1       1.646   0.138  23.063  0.00  0.00    +0.055 A 
ATOM      8  C   UNL     1       2.145  -0.402  22.692  0.00  0.00    +0.006 A 
ATOM      9  C   UNL     1       2.941  -0.214  22.572  0.00  0.00    +0.015 A 
BRANCH   4   2
ATOM      1  C   UNL     1       4.232   1.373  22.271  0.00  0.00    +0.112 C 
ATOM      2  N   UNL     1       4.029   0.702  22.704  0.00  0.00    -0.304 N 
ATOM      3  C   UNL     1       4.618   0.218  23.016  0.00  0.00    +0.112 C 
ENDBRANCH   4   2
ENDBRANCH  10   7
ENDBRANCH  13  12
TORSDOF 5
ENDMDL
MODEL 3
REMARK VINA RESULT:      -8.2      3.926      5.028
REMARK  Name = 
REMARK  5 active torsions:
REMARK  status: ('A' for Active; 'I' for Inactive)
REMARK    1  A    between atoms: N_2  and  C_4
REMARK    2  A    between atoms: C_7  and  C_10
REMARK    3  A    between atoms: N_12  and  C_13
REMARK    4  A    between atoms: C_15  and  C_18
REMARK    5  A    between atoms: N_21  and  C_25
REMARK                            x       y       z     vdW  Elec       q    Type
REMARK                         _______ _______ _______ _____ _____    ______ ____
ROOT
ATOM     13  C   UNL     1      -4.508   1.008  24.572  0.00  0.00    +0.118 C 
ATOM     14  C   UNL     1      -3.922   1.554  24.768  0.00  0.00    +0.035 C 
ATOM     15  C   UNL     1      -4.292   2.269  24.951  0.00  0.00    +0.048 C 
ATOM     16  C   UNL     1      -5.106   2.163  24.867  0.00  0.00    -0.025 C 
ATOM     17  C   UNL     1      -5.239   1.383  24.632  0.00  0.00    -0.009 C 
ENDROOT
BRANCH  15  18
ATOM     18  C   UNL     1      -3.915   2.966  25.178  0.00  0.00    +0.010 A 
ATOM     19  C   UNL     1      -3.205   3.255  24.872  0.00  0.00    +0.058 A 
ATOM     20  C   UNL     1      -2.748   2.898  24.286  0.00  0.00    +0.052 C 
ATOM     21  N   UNL     1      -3.033   3.965  25.256  0.00  0.00    -0.235 N 
ATOM     22  N   UNL     1      -3.636   4.115  25.799  0.00  0.00    -0.170 NA
ATOM     23  C   UNL     1      -4.181   3.498  25.750  0.00  0.00    +0.077 A 
ATOM     24  C   UNL     1      -4.872   3.424  26.196  0.00  0.00    +0.054 C 
BRANCH  21  25
ATOM     25  C   UNL     1      -2.373   4.442  25.121  0.00  0.00    +0.078 A 
ATOM     26  C   UNL     1      -2.406   5.041  24.555  0.00  0.00    +0.020 A 
ATOM     27  C   UNL     1      -1.746   5.517  24.420  0.00  0.00    +0.013 A 
ATOM     28  C   UNL     1      -1.053   5.395  24.851  0.00  0.00    +0.057 A 
ATOM     29 CL   UNL     1      -0.394   5.871  24.716  0.00  0.00    -0.082 Cl
ATOM     30  C   UNL     1      -1.020   4.796  25.417  0.00  0.00    +0.009 A 
ATOM     31  C   UNL     1      -1.680   4.319  25.552  0.00  0.00    -0.003 A 
ATOM     32  C   UNL     1      -1.648   3.720  26.119  0.00  0.00    +0.033 C 
ENDBRANCH  21  25
ENDBRANCH  15  18
BRANCH  13  12
ATOM     10  C   UNL     1      -4.136  -0.329  24.914  0.00  0.00    +0.265 C 
ATOM     11  O   UNL     1      -4.014  -0.094  25.695  0.00  0.00    -0.268 OA
ATOM     12  N   UNL     1      -4.383   0.222  24.352  0.00  0.00    -0.199 NA
BRANCH  10   7
ATOM      4  C   UNL     1      -3.761  -2.685  24.256  0.00  0.00    +0.048 A 
ATOM      5  C   UNL     1      -4.219  -2.192  23.780  0.00  0.00    +0.015 A 
ATOM      6  C   UNL     1      -4.344  -1.406  23.999  0.00  0.00    +0.006 A 
ATOM      7  C   UNL     1      -4.011  -1.114  24.695  0.00  0.00    +0.055 A 
ATOM      8  C   UNL     1      -3.553  -1.607  25.171  0.00  0.00    +0.006 A 
ATOM      9  C   UNL     1      -3.427  -2.394  24.951  0.00  0.00    +0.015 A 
BRANCH   4   2
ATOM      1  C   UNL     1      -4.276  -3.949  23.833  0.00  0.00    +0.112 C 
ATOM      2  N   UNL     1      -3.636  -3.471  24.037  0.00  0.00    -0.304 N 
ATOM      3  C   UNL     1      -2.871  -3.777  24.021  0.00  0.00    +0.112 C 
ENDBRANCH   4   2
ENDBRANCH  10   7
ENDBRANCH  13  12
TORSDOF 5
ENDMDL
