MODEL 1
REMARK VINA RESULT:     -11.2      0.000      0.000
REMARK  Name = 
REMARK  7 active torsions:
REMARK  status: ('A' for Active; 'I' for Inactive)
REMARK    1  A    between atoms: C_3  and  C_4
REMARK    2  A    between atoms: C_4  and  N_5
REMARK    3  A    between atoms: C_9  and  C_22
REMARK    4  A    between atoms: C_11  and  C_12
REMARK    5  A    between atoms: C_12  and  C_13
REMARK    6  A    between atoms: N_24  and  C_25
REMARK    7  A    between atoms: C_25  and  C_26
REMARK                            x       y       z     vdW  Elec       q    Type
REMARK                         _______ _______ _______ _____ _____    ______ ____
ROOT
ATOM      5  N   UNL     1      -3.231   2.822  24.989  0.00  0.00    -0.315 N 
ATOM      6  C   UNL     1      -2.490   2.460  24.964  0.00  0.00    +0.072 A 
ATOM      7  C   UNL     1      -2.604   1.644  24.931  0.00  0.00    -0.002 A 
ATOM      8  C   UNL     1      -1.986   1.099  24.900  0.00  0.00    +0.055 C 
ATOM      9  C   UNL     1      -2.027   0.275  24.866  0.00  0.00    +0.155 C 
ATOM     10  N   UNL     1      -2.698  -0.206  24.854  0.00  0.00    -0.207 NA
ATOM     11  C   UNL     1      -3.491   0.017  24.874  0.00  0.00    +0.095 C 
ATOM     16  C   UNL     1      -3.812   0.777  24.910  0.00  0.00    -0.005 A 
ATOM     17  C   UNL     1      -4.679   0.830  24.923  0.00  0.00    -0.003 A 
ATOM     18  C   UNL     1      -5.066   1.557  24.959  0.00  0.00    +0.001 A 
ATOM     19  C   UNL     1      -4.628   2.257  24.983  0.00  0.00    +0.017 A 
ATOM     20  C   UNL     1      -3.804   2.228  24.971  0.00  0.00    +0.060 A 
ATOM     21  C   UNL     1      -3.417   1.500  24.936  0.00  0.00    +0.011 A 
ENDROOT
BRANCH   9  22
ATOM     22  C   UNL     1      -1.303  -0.118  24.840  0.00  0.00    +0.258 C 
ATOM     23  O   UNL     1      -1.057  -0.573  25.483  0.00  0.00    -0.272 OA
ATOM     24  N   UNL     1      -0.824  -0.056  24.171  0.00  0.00    -0.199 NA
BRANCH  24  25
ATOM     25  C   UNL     1      -0.099  -0.449  24.145  0.00  0.00    +0.148 C 
BRANCH  25  26
ATOM     26  C   UNL     1       0.423  -0.312  23.521  0.00  0.00    +0.029 A 
ATOM     27  C   UNL     1       0.316  -0.548  22.738  0.00  0.00    +0.004 A 
ATOM     28  C   UNL     1       0.970  -0.296  22.303  0.00  0.00    +0.007 A 
ATOM     29  C   UNL     1       1.482   0.097  22.818  0.00  0.00    +0.035 A 
ATOM     30  S   UNL     1       1.143   0.087  23.570  0.00  0.00    -0.089 S 
ENDBRANCH  25  26
ENDBRANCH  24  25
ENDBRANCH   9  22
BRANCH   5   4
ATOM      4  C   UNL     1      -3.374   3.634  25.025  0.00  0.00    +0.183 C 
BRANCH   4   3
ATOM      1  C   UNL     1      -1.478   5.217  25.173  0.00  0.00    +0.090 C 
ATOM      2  C   UNL     1      -2.110   4.689  25.123  0.00  0.00    -0.088 C 
ATOM      3  C   UNL     1      -2.742   4.161  25.074  0.00  0.00    -0.066 C 
ENDBRANCH   4   3
ENDBRANCH   5   4
BRANCH  11  12
ATOM     12  C   UNL     1      -4.038  -0.601  24.854  0.00  0.00    +0.022 C 
BRANCH  12  13
ATOM     13  C   UNL     1      -3.852  -1.303  24.463  0.00  0.00    +0.002 C 
ATOM     14  C   UNL     1      -3.618  -1.967  24.895  0.00  0.00    +0.000 C 
ATOM     15  C   UNL     1      -3.901  -1.343  23.641  0.00  0.00    +0.000 C 
ENDBRANCH  12  13
ENDBRANCH  11  12
TORSDOF 7
ENDMDL
MODEL 2
REMARK VINA RESULT:     -11.1      2.328      3.406
REMARK  Name = 
REMARK  7 active torsions:
REMARK  status: ('A' for Active; 'I' for Inactive)
REMARK    1  A    between atoms: C_3  and  C_4
REMARK    2  A    between atoms: C_4  and  N_5
REMARK    3  A    between atoms: C_9  and  C_22
REMARK    4  A    between atoms: C_11  and  C_12
REMARK    5  A    between atoms: C_12  and  C_13
REMARK    6  A    between atoms: N_24  and  C_25
REMARK    7  A    between atoms: C_25  and  C_26
REMARK                            x       y       z     vdW  Elec       q    Type
REMARK                         _______ _______ _______ _____ _____    ______ ____
ROOT
ATOM      5  N   UNL     1      -1.780   3.104  25.228  0.00  0.00    -0.315 N 
ATOM      6  C   UNL     1      -1.836   2.364  24.867  0.00  0.00    +0.072 A 
ATOM      7  C   UNL     1      -2.636   2.178  24.789  0.00  0.00    -0.002 A 
ATOM      8  C   UNL     1      -2.908   1.477  24.451  0.00  0.00    +0.055 C 
ATOM      9  C   UNL     1      -3.688   1.227  24.341  0.00  0.00    +0.155 C 
ATOM     10  N   UNL     1      -4.386   1.618  24.543  0.00  0.00    -0.207 NA
ATOM     11  C   UNL     1      -4.478   2.354  24.904  0.00  0.00    +0.095 C 
ATOM     16  C   UNL     1      -3.894   2.882  25.153  0.00  0.00    -0.005 A 
ATOM     17  C   UNL     1      -4.171   3.620  25.518  0.00  0.00    -0.003 A 
ATOM     18  C   UNL     1      -3.642   4.192  25.789  0.00  0.00    +0.001 A 
ATOM     19  C   UNL     1      -2.829   4.070  25.716  0.00  0.00    +0.017 A 
ATOM     20  C   UNL     1      -2.545   3.376  25.373  0.00  0.00    +0.060 A 
ATOM     21  C   UNL     1      -3.075   2.803  25.102  0.00  0.00    +0.011 A 
ENDROOT
BRANCH   9  22
ATOM     22  C   UNL     1      -3.780   0.491  23.983  0.00  0.00    +0.258 C 
ATOM     23  O   UNL     1      -3.914   0.441  23.171  0.00  0.00    -0.272 OA
ATOM     24  N   UNL     1      -3.738  -0.197  24.437  0.00  0.00    -0.199 NA
BRANCH  24  25
ATOM     25  C   UNL     1      -3.830  -0.935  24.079  0.00  0.00    +0.148 C 
BRANCH  25  26
ATOM     26  C   UNL     1      -3.670  -1.623  24.505  0.00  0.00    +0.029 A 
ATOM     27  C   UNL     1      -3.485  -1.665  25.307  0.00  0.00    +0.004 A 
ATOM     28  C   UNL     1      -3.367  -2.458  25.501  0.00  0.00    +0.007 A 
ATOM     29  C   UNL     1      -3.480  -2.907  24.818  0.00  0.00    +0.035 A 
ATOM     30  S   UNL     1      -3.667  -2.390  24.202  0.00  0.00    -0.089 S 
ENDBRANCH  25  26
ENDBRANCH  24  25
ENDBRANCH   9  22
BRANCH   5   4
ATOM      4  C   UNL     1      -1.081   3.503  25.412  0.00  0.00    +0.183 C 
BRANCH   4   3
ATOM      1  C   UNL     1       0.628   2.411  26.831  0.00  0.00    +0.090 C 
ATOM      2  C   UNL     1       0.058   2.775  26.358  0.00  0.00    -0.088 C 
ATOM      3  C   UNL     1      -0.511   3.138  25.884  0.00  0.00    -0.066 C 
ENDBRANCH   4   3
ENDBRANCH   5   4
BRANCH  11  12
ATOM     12  C   UNL     1      -5.256   2.595  25.034  0.00  0.00    +0.022 C 
BRANCH  12  13
ATOM     13  C   UNL     1      -5.827   2.043  25.260  0.00  0.00    +0.002 C 
ATOM     14  C   UNL     1      -6.394   1.789  24.716  0.00  0.00    +0.000 C 
ATOM     15  C   UNL     1      -5.830   1.745  26.028  0.00  0.00    +0.000 C 
ENDBRANCH  12  13
ENDBRANCH  11  12
TORSDOF 7
ENDMDL
MODEL 3
REMARK VINA RESULT:     -10.7      2.227      5.370
REMARK  Name = 
REMARK  7 active torsions:
REMARK  status: ('A' for Active; 'I' for Inactive)
REMARK    1  A    between atoms: C_3  and  C_4
REMARK    2  A    between atoms: C_4  and  N_5
REMARK    3  A    between atoms: C_9  and  C_22
REMARK    4  A    between atoms: C_11  and  C_12
REMARK    5  A    between atoms: C_12  and  C_13
REMARK    6  A    between atoms: N_24  and  C_25
REMARK    7  A    between atoms: C_25  and  C_26
REMARK                            x       y       z     vdW  Elec       q    Type
REMARK                         _______ _______ _______ _____ _____    ______ ____
ROOT
ATOM      5  N   UNL     1      -0.789   0.303  24.189  0.00  0.00    -0.315 N 
ATOM      6  C   UNL     1      -1.587   0.460  24.046  0.00  0.00    +0.072 A 
ATOM      7  C   UNL     1      -1.712   1.268  24.158  0.00  0.00    -0.002 A 
ATOM      8  C   UNL     1      -2.446   1.631  24.064  0.00  0.00    +0.055 C 
ATOM      9  C   UNL     1      -2.642   2.427  24.159  0.00  0.00    +0.155 C 
ATOM     10  N   UNL     1      -2.151   3.056  24.372  0.00  0.00    -0.207 NA
ATOM     11  C   UNL     1      -1.344   3.044  24.541  0.00  0.00    +0.095 C 
ATOM     16  C   UNL     1      -0.827   2.400  24.541  0.00  0.00    -0.005 A 
ATOM     17  C   UNL     1      -0.000   2.568  24.745  0.00  0.00    -0.003 A 
ATOM     18  C   UNL     1       0.569   1.973  24.764  0.00  0.00    +0.001 A 
ATOM     19  C   UNL     1       0.359   1.195  24.586  0.00  0.00    +0.017 A 
ATOM     20  C   UNL     1      -0.421   1.013  24.389  0.00  0.00    +0.060 A 
ATOM     21  C   UNL     1      -0.991   1.610  24.370  0.00  0.00    +0.011 A 
ENDROOT
BRANCH   9  22
ATOM     22  C   UNL     1      -3.432   2.619  24.024  0.00  0.00    +0.258 C 
ATOM     23  O   UNL     1      -3.656   2.967  23.311  0.00  0.00    -0.272 OA
ATOM     24  N   UNL     1      -3.999   2.463  24.603  0.00  0.00    -0.199 NA
BRANCH  24  25
ATOM     25  C   UNL     1      -4.790   2.655  24.469  0.00  0.00    +0.148 C 
BRANCH  25  26
ATOM     26  C   UNL     1      -5.364   2.459  25.029  0.00  0.00    +0.029 A 
ATOM     27  C   UNL     1      -5.855   1.797  25.009  0.00  0.00    +0.004 A 
ATOM     28  C   UNL     1      -6.341   1.820  25.675  0.00  0.00    +0.007 A 
ATOM     29  C   UNL     1      -6.150   2.497  26.107  0.00  0.00    +0.035 A 
ATOM     30  S   UNL     1      -5.546   2.892  25.707  0.00  0.00    -0.089 S 
ENDBRANCH  25  26
ENDBRANCH  24  25
ENDBRANCH   9  22
BRANCH   5   4
ATOM      4  C   UNL     1      -0.424  -0.436  24.140  0.00  0.00    +0.183 C 
BRANCH   4   3
ATOM      1  C   UNL     1      -1.697  -2.485  24.692  0.00  0.00    +0.090 C 
ATOM      2  C   UNL     1      -1.273  -1.802  24.508  0.00  0.00    -0.088 C 
ATOM      3  C   UNL     1      -0.849  -1.119  24.324  0.00  0.00    -0.066 C 
ENDBRANCH   4   3
ENDBRANCH   5   4
BRANCH  11  12
ATOM     12  C   UNL     1      -1.008   3.771  24.737  0.00  0.00    +0.022 C 
BRANCH  12  13
ATOM     13  C   UNL     1      -1.436   4.315  25.187  0.00  0.00    +0.002 C 
ATOM     14  C   UNL     1      -1.628   5.053  24.870  0.00  0.00    +0.000 C 
ATOM     15  C   UNL     1      -1.672   4.123  25.953  0.00  0.00    +0.000 C 
ENDBRANCH  12  13
ENDBRANCH  11  12
TORSDOF 7
ENDMDL
MODEL 4
REMARK VINA RESULT:     -10.4      2.129      5.273
REMARK  Name = 
REMARK  7 active torsions:
REMARK  status: ('A' for Active; 'I' for Inactive)
REMARK    1  A    between atoms: C_3  and  C_4
REMARK    2  A    between atoms: C_4  and  N_5
REMARK    3  A    between atoms: C_9  and  C_22
REMARK    4  A    between atoms: C_11  and  C_12
REMARK    5  A    between atoms: C_12  and  C_13
REMARK    6  A    between atoms: N_24  and  C_25
REMARK    7  A    between atoms: C_25  and  C_26
REMARK                            x       y       z     vdW  Elec       q    Type
REMARK                         _______ _______ _______ _____ _____    ______ ____
ROOT
ATOM      5  N   UNL     1      -2.210  -1.339  24.608  0.00  0.00    -0.315 N 
ATOM      6  C   UNL     1      -2.792  -0.782  24.430  0.00  0.00    +0.072 A 
ATOM      7  C   UNL     1      -2.427  -0.045  24.360  0.00  0.00    -0.002 A 
ATOM      8  C   UNL     1      -2.837   0.649  24.184  0.00  0.00    +0.055 C 
ATOM      9  C   UNL     1      -2.538   1.414  24.100  0.00  0.00    +0.155 C 
ATOM     10  N   UNL     1      -1.757   1.673  24.169  0.00  0.00    -0.207 NA
ATOM     11  C   UNL     1      -1.083   1.230  24.341  0.00  0.00    +0.095 C 
ATOM     16  C   UNL     1      -1.021   0.420  24.485  0.00  0.00    -0.005 A 
ATOM     17  C   UNL     1      -0.224   0.117  24.651  0.00  0.00    -0.003 A 
ATOM     18  C   UNL     1      -0.090  -0.682  24.804  0.00  0.00    +0.001 A 
ATOM     19  C   UNL     1      -0.721  -1.214  24.802  0.00  0.00    +0.017 A 
ATOM     20  C   UNL     1      -1.485  -0.947  24.647  0.00  0.00    +0.060 A 
ATOM     21  C   UNL     1      -1.619  -0.147  24.494  0.00  0.00    +0.011 A 
ENDROOT
BRANCH   9  22
ATOM     22  C   UNL     1      -3.094   1.997  23.922  0.00  0.00    +0.258 C 
ATOM     23  O   UNL     1      -3.124   2.321  23.164  0.00  0.00    -0.272 OA
ATOM     24  N   UNL     1      -3.620   2.255  24.502  0.00  0.00    -0.199 NA
BRANCH  24  25
ATOM     25  C   UNL     1      -4.177   2.838  24.325  0.00  0.00    +0.148 C 
BRANCH  25  26
ATOM     26  C   UNL     1      -4.736   3.060  24.890  0.00  0.00    +0.029 A 
ATOM     27  C   UNL     1      -5.414   2.637  25.095  0.00  0.00    +0.004 A 
ATOM     28  C   UNL     1      -5.812   3.061  25.680  0.00  0.00    +0.007 A 
ATOM     29  C   UNL     1      -5.380   3.746  25.838  0.00  0.00    +0.035 A 
ATOM     30  S   UNL     1      -4.715   3.745  25.349  0.00  0.00    -0.089 S 
ENDBRANCH  25  26
ENDBRANCH  24  25
ENDBRANCH   9  22
BRANCH   5   4
ATOM      4  C   UNL     1      -2.331  -2.147  24.725  0.00  0.00    +0.183 C 
BRANCH   4   3
ATOM      1  C   UNL     1      -4.403  -3.218  23.897  0.00  0.00    +0.090 C 
ATOM      2  C   UNL     1      -3.712  -2.861  24.173  0.00  0.00    -0.088 C 
ATOM      3  C   UNL     1      -3.022  -2.504  24.450  0.00  0.00    -0.066 C 
ENDBRANCH   4   3
ENDBRANCH   5   4
BRANCH  11  12
ATOM     12  C   UNL     1      -0.375   1.654  24.372  0.00  0.00    +0.022 C 
BRANCH  12  13
ATOM     13  C   UNL     1      -0.360   2.407  24.710  0.00  0.00    +0.002 C 
ATOM     14  C   UNL     1      -0.312   3.075  24.227  0.00  0.00    +0.000 C 
ATOM     15  C   UNL     1      -0.392   2.493  25.529  0.00  0.00    +0.000 C 
ENDBRANCH  12  13
ENDBRANCH  11  12
TORSDOF 7
ENDMDL
MODEL 5
REMARK VINA RESULT:     -10.3      1.806      3.459
REMARK  Name = 
REMARK  7 active torsions:
REMARK  status: ('A' for Active; 'I' for Inactive)
REMARK    1  A    between atoms: C_3  and  C_4
REMARK    2  A    between atoms: C_4  and  N_5
REMARK    3  A    between atoms: C_9  and  C_22
REMARK    4  A    between atoms: C_11  and  C_12
REMARK    5  A    between atoms: C_12  and  C_13
REMARK    6  A    between atoms: N_24  and  C_25
REMARK    7  A    between atoms: C_25  and  C_26
REMARK                            x       y       z     vdW  Elec       q    Type
REMARK                         _______ _______ _______ _____ _____    ______ ____
ROOT
ATOM      5  N   UNL     1      -4.249   3.066  25.245  0.00  0.00    -0.315 N 
ATOM      6  C   UNL     1      -4.019   2.377  24.854  0.00  0.00    +0.072 A 
ATOM      7  C   UNL     1      -3.194   2.352  24.844  0.00  0.00    -0.002 A 
ATOM      8  C   UNL     1      -2.763   1.740  24.499  0.00  0.00    +0.055 C 
ATOM      9  C   UNL     1      -1.943   1.651  24.453  0.00  0.00    +0.155 C 
ATOM     10  N   UNL     1      -1.354   2.152  24.741  0.00  0.00    -0.207 NA
ATOM     11  C   UNL     1      -1.439   2.865  25.146  0.00  0.00    +0.095 C 
ATOM     16  C   UNL     1      -2.134   3.255  25.363  0.00  0.00    -0.005 A 
ATOM     17  C   UNL     1      -2.038   4.005  25.791  0.00  0.00    -0.003 A 
ATOM     18  C   UNL     1      -2.689   4.446  26.038  0.00  0.00    +0.001 A 
ATOM     19  C   UNL     1      -3.453   4.178  25.881  0.00  0.00    +0.017 A 
ATOM     20  C   UNL     1      -3.566   3.468  25.477  0.00  0.00    +0.060 A 
ATOM     21  C   UNL     1      -2.914   3.026  25.229  0.00  0.00    +0.011 A 
ENDROOT
BRANCH   9  22
ATOM     22  C   UNL     1      -1.679   0.971  24.068  0.00  0.00    +0.258 C 
ATOM     23  O   UNL     1      -1.488   0.998  23.266  0.00  0.00    -0.272 OA
ATOM     24  N   UNL     1      -1.606   0.263  24.485  0.00  0.00    -0.199 NA
BRANCH  24  25
ATOM     25  C   UNL     1      -1.342  -0.418  24.101  0.00  0.00    +0.148 C 
BRANCH  25  26
ATOM     26  C   UNL     1      -1.217  -1.112  24.529  0.00  0.00    +0.029 A 
ATOM     27  C   UNL     1      -0.592  -1.256  25.047  0.00  0.00    +0.004 A 
ATOM     28  C   UNL     1      -0.684  -2.017  25.353  0.00  0.00    +0.007 A 
ATOM     29  C   UNL     1      -1.366  -2.343  25.023  0.00  0.00    +0.035 A 
ATOM     30  S   UNL     1      -1.696  -1.783  24.514  0.00  0.00    -0.089 S 
ENDBRANCH  25  26
ENDBRANCH  24  25
ENDBRANCH   9  22
BRANCH   5   4
ATOM      4  C   UNL     1      -5.025   3.312  25.380  0.00  0.00    +0.183 C 
BRANCH   4   3
ATOM      1  C   UNL     1      -6.656   1.747  26.388  0.00  0.00    +0.090 C 
ATOM      2  C   UNL     1      -6.113   2.269  26.052  0.00  0.00    -0.088 C 
ATOM      3  C   UNL     1      -5.569   2.790  25.716  0.00  0.00    -0.066 C 
ENDBRANCH   4   3
ENDBRANCH   5   4
BRANCH  11  12
ATOM     12  C   UNL     1      -0.736   3.240  25.362  0.00  0.00    +0.022 C 
BRANCH  12  13
ATOM     13  C   UNL     1      -0.079   2.790  25.579  0.00  0.00    +0.002 C 
ATOM     14  C   UNL     1       0.513   2.632  25.025  0.00  0.00    +0.000 C 
ATOM     15  C   UNL     1      -0.013   2.498  26.346  0.00  0.00    +0.000 C 
ENDBRANCH  12  13
ENDBRANCH  11  12
TORSDOF 7
ENDMDL
MODEL 6
REMARK VINA RESULT:     -10.2      0.976      3.442
REMARK  Name = 
REMARK  7 active torsions:
REMARK  status: ('A' for Active; 'I' for Inactive)
REMARK    1  A    between atoms: C_3  and  C_4
REMARK    2  A    between atoms: C_4  and  N_5
REMARK    3  A    between atoms: C_9  and  C_22
REMARK    4  A    between atoms: C_11  and  C_12
REMARK    5  A    between atoms: C_12  and  C_13
REMARK    6  A    between atoms: N_24  and  C_25
REMARK    7  A    between atoms: C_25  and  C_26
REMARK                            x       y       z     vdW  Elec       q    Type
REMARK                         _______ _______ _______ _____ _____    ______ ____
ROOT
ATOM      5  N   UNL     1      -3.919   0.335  24.609  0.00  0.00    -0.315 N 
ATOM      6  C   UNL     1      -3.112   0.169  24.640  0.00  0.00    +0.072 A 
ATOM      7  C   UNL     1      -2.705   0.885  24.676  0.00  0.00    -0.002 A 
ATOM      8  C   UNL     1      -1.882   0.939  24.714  0.00  0.00    +0.055 C 
ATOM      9  C   UNL     1      -1.413   1.617  24.752  0.00  0.00    +0.155 C 
ATOM     10  N   UNL     1      -1.650   2.407  24.762  0.00  0.00    -0.207 NA
ATOM     11  C   UNL     1      -2.414   2.715  24.736  0.00  0.00    +0.095 C 
ATOM     16  C   UNL     1      -3.132   2.309  24.694  0.00  0.00    -0.005 A 
ATOM     17  C   UNL     1      -3.851   2.796  24.675  0.00  0.00    -0.003 A 
ATOM     18  C   UNL     1      -4.601   2.457  24.633  0.00  0.00    +0.001 A 
ATOM     19  C   UNL     1      -4.681   1.636  24.608  0.00  0.00    +0.017 A 
ATOM     20  C   UNL     1      -4.011   1.155  24.625  0.00  0.00    +0.060 A 
ATOM     21  C   UNL     1      -3.260   1.495  24.667  0.00  0.00    +0.011 A 
ENDROOT
BRANCH   9  22
ATOM     22  C   UNL     1      -0.599   1.486  24.785  0.00  0.00    +0.258 C 
ATOM     23  O   UNL     1      -0.185   1.632  25.483  0.00  0.00    -0.272 OA
ATOM     24  N   UNL     1      -0.199   1.209  24.118  0.00  0.00    -0.199 NA
BRANCH  24  25
ATOM     25  C   UNL     1       0.615   1.078  24.150  0.00  0.00    +0.148 C 
BRANCH  25  26
ATOM     26  C   UNL     1       0.988   0.648  23.553  0.00  0.00    +0.029 A 
ATOM     27  C   UNL     1       0.641   0.059  23.091  0.00  0.00    +0.004 A 
ATOM     28  C   UNL     1       1.211  -0.222  22.565  0.00  0.00    +0.007 A 
ATOM     29  C   UNL     1       1.911   0.193  22.702  0.00  0.00    +0.035 A 
ATOM     30  S   UNL     1       1.772   0.731  23.313  0.00  0.00    -0.089 S 
ENDBRANCH  25  26
ENDBRANCH  24  25
ENDBRANCH   9  22
BRANCH   5   4
ATOM      4  C   UNL     1      -4.528  -0.220  24.567  0.00  0.00    +0.183 C 
BRANCH   4   3
ATOM      1  C   UNL     1      -4.024  -2.562  23.943  0.00  0.00    +0.090 C 
ATOM      2  C   UNL     1      -4.192  -1.781  24.151  0.00  0.00    -0.088 C 
ATOM      3  C   UNL     1      -4.360  -1.001  24.359  0.00  0.00    -0.066 C 
ENDBRANCH   4   3
ENDBRANCH   5   4
BRANCH  11  12
ATOM     12  C   UNL     1      -2.470   3.538  24.755  0.00  0.00    +0.022 C 
BRANCH  12  13
ATOM     13  C   UNL     1      -1.978   3.974  25.254  0.00  0.00    +0.002 C 
ATOM     14  C   UNL     1      -1.341   4.395  24.940  0.00  0.00    +0.000 C 
ATOM     15  C   UNL     1      -2.122   3.988  26.065  0.00  0.00    +0.000 C 
ENDBRANCH  12  13
ENDBRANCH  11  12
TORSDOF 7
ENDMDL
MODEL 7
REMARK VINA RESULT:      -9.9      1.933      4.554
REMARK  Name = 
REMARK  7 active torsions:
REMARK  status: ('A' for Active; 'I' for Inactive)
REMARK    1  A    between atoms: C_3  and  C_4
REMARK    2  A    between atoms: C_4  and  N_5
REMARK    3  A    between atoms: C_9  and  C_22
REMARK    4  A    between atoms: C_11  and  C_12
REMARK    5  A    between atoms: C_12  and  C_13
REMARK    6  A    between atoms: N_24  and  C_25
REMARK    7  A    between atoms: C_25  and  C_26
REMARK                            x       y       z     vdW  Elec       q    Type
REMARK                         _______ _______ _______ _____ _____    ______ ____
ROOT
ATOM      5  N   UNL     1      -0.041  -0.075  24.095  0.00  0.00    -0.315 N 
ATOM      6  C   UNL     1      -0.495   0.578  23.872  0.00  0.00    +0.072 A 
ATOM      7  C   UNL     1      -1.286   0.406  24.030  0.00  0.00    -0.002 A 
ATOM      8  C   UNL     1      -1.904   0.930  23.878  0.00  0.00    +0.055 C 
ATOM      9  C   UNL     1      -2.712   0.825  24.010  0.00  0.00    +0.155 C 
ATOM     10  N   UNL     1      -3.100   0.169  24.327  0.00  0.00    -0.207 NA
ATOM     11  C   UNL     1      -2.777  -0.543  24.589  0.00  0.00    +0.095 C 
ATOM     16  C   UNL     1      -1.985  -0.776  24.600  0.00  0.00    -0.005 A 
ATOM     17  C   UNL     1      -1.820  -1.569  24.913  0.00  0.00    -0.003 A 
ATOM     18  C   UNL     1      -1.052  -1.866  24.953  0.00  0.00    +0.001 A 
ATOM     19  C   UNL     1      -0.418  -1.406  24.692  0.00  0.00    +0.017 A 
ATOM     20  C   UNL     1      -0.553  -0.651  24.391  0.00  0.00    +0.060 A 
ATOM     21  C   UNL     1      -1.322  -0.354  24.351  0.00  0.00    +0.011 A 
ENDROOT
BRANCH   9  22
ATOM     22  C   UNL     1      -3.194   1.459  23.798  0.00  0.00    +0.258 C 
ATOM     23  O   UNL     1      -3.320   1.633  23.002  0.00  0.00    -0.272 OA
ATOM     24  N   UNL     1      -3.550   1.919  24.383  0.00  0.00    -0.199 NA
BRANCH  24  25
ATOM     25  C   UNL     1      -4.033   2.554  24.171  0.00  0.00    +0.148 C 
BRANCH  25  26
ATOM     26  C   UNL     1      -4.479   2.943  24.746  0.00  0.00    +0.029 A 
ATOM     27  C   UNL     1      -5.233   2.728  25.002  0.00  0.00    +0.004 A 
ATOM     28  C   UNL     1      -5.470   3.268  25.580  0.00  0.00    +0.007 A 
ATOM     29  C   UNL     1      -4.862   3.817  25.681  0.00  0.00    +0.035 A 
ATOM     30  S   UNL     1      -4.250   3.616  25.165  0.00  0.00    -0.089 S 
ENDBRANCH  25  26
ENDBRANCH  24  25
ENDBRANCH   9  22
BRANCH   5   4
ATOM      4  C   UNL     1       0.779  -0.140  24.033  0.00  0.00    +0.183 C 
BRANCH   4   3
ATOM      1  C   UNL     1       1.856  -0.120  21.805  0.00  0.00    +0.090 C 
ATOM      2  C   UNL     1       1.497  -0.127  22.548  0.00  0.00    -0.088 C 
ATOM      3  C   UNL     1       1.138  -0.133  23.290  0.00  0.00    -0.066 C 
ENDBRANCH   4   3
ENDBRANCH   5   4
BRANCH  11  12
ATOM     12  C   UNL     1      -3.316  -1.096  24.879  0.00  0.00    +0.022 C 
BRANCH  12  13
ATOM     13  C   UNL     1      -4.045  -1.197  24.505  0.00  0.00    +0.002 C 
ATOM     14  C   UNL     1      -4.721  -0.839  24.816  0.00  0.00    +0.000 C 
ATOM     15  C   UNL     1      -4.099  -1.653  23.821  0.00  0.00    +0.000 C 
ENDBRANCH  12  13
ENDBRANCH  11  12
TORSDOF 7
ENDMDL
MODEL 8
REMARK VINA RESULT:      -9.9      2.067      4.198
REMARK  Name = 
REMARK  7 active torsions:
REMARK  status: ('A' for Active; 'I' for Inactive)
REMARK    1  A    between atoms: C_3  and  C_4
REMARK    2  A    between atoms: C_4  and  N_5
REMARK    3  A    between atoms: C_9  and  C_22
REMARK    4  A    between atoms: C_11  and  C_12
REMARK    5  A    between atoms: C_12  and  C_13
REMARK    6  A    between atoms: N_24  and  C_25
REMARK    7  A    between atoms: C_25  and  C_26
REMARK                            x       y       z     vdW  Elec       q    Type
REMARK                         _______ _______ _______ _____ _____    ______ ____
ROOT
ATOM      5  N   UNL     1      -0.682   0.997  24.422  0.00  0.00    -0.315 N 
ATOM      6  C   UNL     1      -1.462   1.263  24.376  0.00  0.00    +0.072 A 
ATOM      7  C   UNL     1      -1.959   0.606  24.416  0.00  0.00    -0.002 A 
ATOM      8  C   UNL     1      -2.782   0.656  24.387  0.00  0.00    +0.055 C 
ATOM      9  C   UNL     1      -3.336   0.045  24.422  0.00  0.00    +0.155 C 
ATOM     10  N   UNL     1      -3.203  -0.766  24.494  0.00  0.00    -0.207 NA
ATOM     11  C   UNL     1      -2.484  -1.167  24.550  0.00  0.00    +0.095 C 
ATOM     16  C   UNL     1      -1.720  -0.856  24.546  0.00  0.00    -0.005 A 
ATOM     17  C   UNL     1      -1.070  -1.428  24.614  0.00  0.00    -0.003 A 
ATOM     18  C   UNL     1      -0.282  -1.187  24.618  0.00  0.00    +0.001 A 
ATOM     19  C   UNL     1      -0.095  -0.385  24.556  0.00  0.00    +0.017 A 
ATOM     20  C   UNL     1      -0.697   0.175  24.491  0.00  0.00    +0.060 A 
ATOM     21  C   UNL     1      -1.486  -0.067  24.487  0.00  0.00    +0.011 A 
ENDROOT
BRANCH   9  22
ATOM     22  C   UNL     1      -4.126   0.277  24.378  0.00  0.00    +0.258 C 
ATOM     23  O   UNL     1      -4.634  -0.087  23.840  0.00  0.00    -0.272 OA
ATOM     24  N   UNL     1      -4.408   0.874  24.874  0.00  0.00    -0.199 NA
BRANCH  24  25
ATOM     25  C   UNL     1      -5.199   1.106  24.831  0.00  0.00    +0.148 C 
BRANCH  25  26
ATOM     26  C   UNL     1      -5.461   1.760  25.261  0.00  0.00    +0.029 A 
ATOM     27  C   UNL     1      -5.903   1.737  25.956  0.00  0.00    +0.004 A 
ATOM     28  C   UNL     1      -6.042   2.514  26.196  0.00  0.00    +0.007 A 
ATOM     29  C   UNL     1      -5.686   3.018  25.648  0.00  0.00    +0.035 A 
ATOM     30  S   UNL     1      -5.326   2.551  25.070  0.00  0.00    -0.089 S 
ENDBRANCH  25  26
ENDBRANCH  24  25
ENDBRANCH   9  22
BRANCH   5   4
ATOM      4  C   UNL     1      -0.006   1.469  24.403  0.00  0.00    +0.183 C 
BRANCH   4   3
ATOM      1  C   UNL     1      -0.199   3.918  24.707  0.00  0.00    +0.090 C 
ATOM      2  C   UNL     1      -0.135   3.102  24.605  0.00  0.00    -0.088 C 
ATOM      3  C   UNL     1      -0.071   2.285  24.504  0.00  0.00    -0.066 C 
ENDBRANCH   4   3
ENDBRANCH   5   4
BRANCH  11  12
ATOM     12  C   UNL     1      -2.536  -1.987  24.617  0.00  0.00    +0.022 C 
BRANCH  12  13
ATOM     13  C   UNL     1      -3.218  -2.334  24.929  0.00  0.00    +0.002 C 
ATOM     14  C   UNL     1      -3.764  -2.694  24.426  0.00  0.00    +0.000 C 
ATOM     15  C   UNL     1      -3.353  -2.319  25.742  0.00  0.00    +0.000 C 
ENDBRANCH  12  13
ENDBRANCH  11  12
TORSDOF 7
ENDMDL
MODEL 9
REMARK VINA RESULT:      -9.7      1.515      3.446
REMARK  Name = 
REMARK  7 active torsions:
REMARK  status: ('A' for Active; 'I' for Inactive)
REMARK    1  A    between atoms: C_3  and  C_4
REMARK    2  A    between atoms: C_4  and  N_5
REMARK    3  A    between atoms: C_9  and  C_22
REMARK    4  A    between atoms: C_11  and  C_12
REMARK    5  A    between atoms: C_12  and  C_13
REMARK    6  A    between atoms: N_24  and  C_25
REMARK    7  A    between atoms: C_25  and  C_26
REMARK                            x       y       z     vdW  Elec       q    Type
REMARK                         _______ _______ _______ _____ _____    ______ ____
ROOT
ATOM      5  N   UNL     1      -2.485   3.109  25.296  0.00  0.00    -0.315 N 
ATOM      6  C   UNL     1      -2.740   2.354  25.509  0.00  0.00    +0.072 A 
ATOM      7  C   UNL     1      -2.166   1.813  25.266  0.00  0.00    -0.002 A 
ATOM      8  C   UNL     1      -2.230   0.999  25.386  0.00  0.00    +0.055 C 
ATOM      9  C   UNL     1      -1.699   0.405  25.170  0.00  0.00    +0.155 C 
ATOM     10  N   UNL     1      -0.974   0.478  24.783  0.00  0.00    -0.207 NA
ATOM     11  C   UNL     1      -0.601   1.164  24.515  0.00  0.00    +0.095 C 
ATOM     16  C   UNL     1      -0.861   1.946  24.568  0.00  0.00    -0.005 A 
ATOM     17  C   UNL     1      -0.337   2.550  24.230  0.00  0.00    -0.003 A 
ATOM     18  C   UNL     1      -0.533   3.351  24.248  0.00  0.00    +0.001 A 
ATOM     19  C   UNL     1      -1.242   3.593  24.594  0.00  0.00    +0.017 A 
ATOM     20  C   UNL     1      -1.754   3.035  24.921  0.00  0.00    +0.060 A 
ATOM     21  C   UNL     1      -1.557   2.234  24.903  0.00  0.00    +0.011 A 
ENDROOT
BRANCH   9  22
ATOM     22  C   UNL     1      -1.923  -0.363  25.369  0.00  0.00    +0.258 C 
ATOM     23  O   UNL     1      -1.587  -0.735  26.023  0.00  0.00    -0.272 OA
ATOM     24  N   UNL     1      -2.484  -0.760  24.912  0.00  0.00    -0.199 NA
BRANCH  24  25
ATOM     25  C   UNL     1      -2.709  -1.529  25.110  0.00  0.00    +0.148 C 
BRANCH  25  26
ATOM     26  C   UNL     1      -3.264  -1.928  24.648  0.00  0.00    +0.029 A 
ATOM     27  C   UNL     1      -3.893  -1.585  24.240  0.00  0.00    +0.004 A 
ATOM     28  C   UNL     1      -4.306  -2.186  23.853  0.00  0.00    +0.007 A 
ATOM     29  C   UNL     1      -3.931  -2.902  24.023  0.00  0.00    +0.035 A 
ATOM     30  S   UNL     1      -3.287  -2.742  24.514  0.00  0.00    -0.089 S 
ENDBRANCH  25  26
ENDBRANCH  24  25
ENDBRANCH   9  22
BRANCH   5   4
ATOM      4  C   UNL     1      -2.890   3.815  25.434  0.00  0.00    +0.183 C 
BRANCH   4   3
ATOM      1  C   UNL     1      -5.363   3.820  25.529  0.00  0.00    +0.090 C 
ATOM      2  C   UNL     1      -4.539   3.818  25.498  0.00  0.00    -0.088 C 
ATOM      3  C   UNL     1      -3.715   3.817  25.466  0.00  0.00    -0.066 C 
ENDBRANCH   4   3
ENDBRANCH   5   4
BRANCH  11  12
ATOM     12  C   UNL     1       0.128   1.053  24.145  0.00  0.00    +0.022 C 
BRANCH  12  13
ATOM     13  C   UNL     1       0.240   0.413  23.636  0.00  0.00    +0.002 C 
ATOM     14  C   UNL     1       0.708  -0.225  23.874  0.00  0.00    +0.000 C 
ATOM     15  C   UNL     1      -0.115   0.409  22.893  0.00  0.00    +0.000 C 
ENDBRANCH  12  13
ENDBRANCH  11  12
TORSDOF 7
ENDMDL
MODEL 10
REMARK VINA RESULT:      -9.3      1.613      3.389
REMARK  Name = 
REMARK  7 active torsions:
REMARK  status: ('A' for Active; 'I' for Inactive)
REMARK    1  A    between atoms: C_3  and  C_4
REMARK    2  A    between atoms: C_4  and  N_5
REMARK    3  A    between atoms: C_9  and  C_22
REMARK    4  A    between atoms: C_11  and  C_12
REMARK    5  A    between atoms: C_12  and  C_13
REMARK    6  A    between atoms: N_24  and  C_25
REMARK    7  A    between atoms: C_25  and  C_26
REMARK                            x       y       z     vdW  Elec       q    Type
REMARK                         _______ _______ _______ _____ _____    ______ ____
ROOT
ATOM      5  N   UNL     1      -4.528   0.555  24.640  0.00  0.00    -0.315 N 
ATOM      6  C   UNL     1      -3.978   1.148  24.480  0.00  0.00    +0.072 A 
ATOM      7  C   UNL     1      -3.232   0.800  24.438  0.00  0.00    -0.002 A 
ATOM      8  C   UNL     1      -2.541   1.225  24.286  0.00  0.00    +0.055 C 
ATOM      9  C   UNL     1      -1.767   0.943  24.229  0.00  0.00    +0.155 C 
ATOM     10  N   UNL     1      -1.493   0.169  24.311  0.00  0.00    -0.207 NA
ATOM     11  C   UNL     1      -1.926  -0.515  24.470  0.00  0.00    +0.095 C 
ATOM     16  C   UNL     1      -2.740  -0.595  24.586  0.00  0.00    -0.005 A 
ATOM     17  C   UNL     1      -3.031  -1.398  24.744  0.00  0.00    -0.003 A 
ATOM     18  C   UNL     1      -3.831  -1.550  24.869  0.00  0.00    +0.001 A 
ATOM     19  C   UNL     1      -4.377  -0.931  24.845  0.00  0.00    +0.017 A 
ATOM     20  C   UNL     1      -4.122  -0.161  24.696  0.00  0.00    +0.060 A 
ATOM     21  C   UNL     1      -3.320  -0.009  24.571  0.00  0.00    +0.011 A 
ENDROOT
BRANCH   9  22
ATOM     22  C   UNL     1      -1.191   1.511  24.070  0.00  0.00    +0.258 C 
ATOM     23  O   UNL     1      -0.647   1.389  23.463  0.00  0.00    -0.272 OA
ATOM     24  N   UNL     1      -1.160   2.203  24.519  0.00  0.00    -0.199 NA
BRANCH  24  25
ATOM     25  C   UNL     1      -0.584   2.773  24.360  0.00  0.00    +0.148 C 
BRANCH  25  26
ATOM     26  C   UNL     1      -0.683   3.547  24.629  0.00  0.00    +0.029 A 
ATOM     27  C   UNL     1      -0.999   3.770  25.357  0.00  0.00    +0.004 A 
ATOM     28  C   UNL     1      -0.995   4.595  25.395  0.00  0.00    +0.007 A 
ATOM     29  C   UNL     1      -0.676   4.880  24.689  0.00  0.00    +0.035 A 
ATOM     30  S   UNL     1      -0.484   4.232  24.216  0.00  0.00    -0.089 S 
ENDBRANCH  25  26
ENDBRANCH  24  25
ENDBRANCH   9  22
BRANCH   5   4
ATOM      4  C   UNL     1      -5.342   0.658  24.728  0.00  0.00    +0.183 C 
BRANCH   4   3
ATOM      1  C   UNL     1      -6.219   2.725  25.768  0.00  0.00    +0.090 C 
ATOM      2  C   UNL     1      -5.927   2.036  25.422  0.00  0.00    -0.088 C 
ATOM      3  C   UNL     1      -5.635   1.347  25.075  0.00  0.00    -0.066 C 
ENDBRANCH   4   3
ENDBRANCH   5   4
BRANCH  11  12
ATOM     12  C   UNL     1      -1.488  -1.213  24.520  0.00  0.00    +0.022 C 
BRANCH  12  13
ATOM     13  C   UNL     1      -0.748  -1.210  24.885  0.00  0.00    +0.002 C 
ATOM     14  C   UNL     1      -0.062  -1.239  24.426  0.00  0.00    +0.000 C 
ATOM     15  C   UNL     1      -0.693  -1.178  25.706  0.00  0.00    +0.000 C 
ENDBRANCH  12  13
ENDBRANCH  11  12
TORSDOF 7
ENDMDL
