MODEL 1
REMARK VINA RESULT:     -12.1      0.000      0.000
REMARK  Name = 
REMARK  4 active torsions:
REMARK  status: ('A' for Active; 'I' for Inactive)
REMARK    1  A    between atoms: C_4  and  C_5
REMARK    2  A    between atoms: C_5  and  N_6
REMARK    3  A    between atoms: C_9  and  C_11
REMARK    4  A    between atoms: C_14  and  C_16
REMARK                            x       y       z     vdW  Elec       q    Type
REMARK                         _______ _______ _______ _____ _____    ______ ____
ROOT
ATOM      6  N   UNL     1      -3.370   3.360  25.239  0.00  0.00    -0.268 NA
ATOM      7  C   UNL     1      -3.730   3.502  24.510  0.00  0.00    +0.073 C 
ATOM      8  C   UNL     1      -4.107   2.807  24.274  0.00  0.00    +0.028 C 
ATOM      9  C   UNL     1      -3.979   2.237  24.856  0.00  0.00    +0.096 C 
ATOM     10  C   UNL     1      -3.524   2.579  25.453  0.00  0.00    +0.082 C 
ENDROOT
BRANCH   9  11
ATOM     11  C   UNL     1      -4.258   1.461  24.844  0.00  0.00    +0.227 A 
ATOM     12  N   UNL     1      -5.048   1.228  24.901  0.00  0.00    -0.111 NA
ATOM     13  N   UNL     1      -5.075   0.405  24.865  0.00  0.00    -0.107 NA
ATOM     14  C   UNL     1      -4.301   0.127  24.787  0.00  0.00    +0.250 A 
ATOM     15  O   UNL     1      -3.797   0.780  24.774  0.00  0.00    -0.419 OA
BRANCH  14  16
ATOM     16  C   UNL     1      -4.073  -0.664  24.732  0.00  0.00    +0.058 A 
ATOM     17  C   UNL     1      -4.239  -1.094  24.048  0.00  0.00    +0.025 A 
ATOM     18  C   UNL     1      -4.010  -1.885  23.993  0.00  0.00    +0.099 A 
ATOM     19  N   UNL     1      -3.615  -2.245  24.621  0.00  0.00    -0.242 NA
ATOM     20  C   UNL     1      -3.449  -1.814  25.305  0.00  0.00    +0.099 A 
ATOM     21  C   UNL     1      -3.678  -1.024  25.360  0.00  0.00    +0.025 A 
ENDBRANCH  14  16
ENDBRANCH   9  11
BRANCH   6   5
ATOM      5  C   UNL     1      -2.933   3.906  25.677  0.00  0.00    +0.099 C 
BRANCH   5   4
ATOM      1 CL   UNL     1      -0.192   3.095  25.659  0.00  0.00    -0.082 Cl
ATOM      2  C   UNL     1      -0.774   3.649  25.473  0.00  0.00    +0.057 A 
ATOM      3  C   UNL     1      -1.562   3.500  25.668  0.00  0.00    +0.008 A 
ATOM      4  C   UNL     1      -2.144   4.054  25.482  0.00  0.00    -0.005 A 
ATOM     22  C   UNL     1      -1.939   4.757  25.101  0.00  0.00    -0.003 A 
ATOM     23  C   UNL     1      -1.152   4.905  24.906  0.00  0.00    +0.001 A 
ATOM     24  C   UNL     1      -0.569   4.352  25.092  0.00  0.00    +0.011 A 
ENDBRANCH   5   4
ENDBRANCH   6   5
TORSDOF 4
ENDMDL
MODEL 2
REMARK VINA RESULT:     -11.7      2.349      5.504
REMARK  Name = 
REMARK  4 active torsions:
REMARK  status: ('A' for Active; 'I' for Inactive)
REMARK    1  A    between atoms: C_4  and  C_5
REMARK    2  A    between atoms: C_5  and  N_6
REMARK    3  A    between atoms: C_9  and  C_11
REMARK    4  A    between atoms: C_14  and  C_16
REMARK                            x       y       z     vdW  Elec       q    Type
REMARK                         _______ _______ _______ _____ _____    ______ ____
ROOT
ATOM      6  N   UNL     1      -2.087  -0.551  25.571  0.00  0.00    -0.268 NA
ATOM      7  C   UNL     1      -1.361  -0.819  25.284  0.00  0.00    +0.073 C 
ATOM      8  C   UNL     1      -0.870  -0.163  25.183  0.00  0.00    +0.028 C 
ATOM      9  C   UNL     1      -1.293   0.509  25.408  0.00  0.00    +0.096 C 
ATOM     10  C   UNL     1      -2.045   0.268  25.648  0.00  0.00    +0.082 C 
ENDROOT
BRANCH   9  11
ATOM     11  C   UNL     1      -1.013   1.285  25.396  0.00  0.00    +0.227 A 
ATOM     12  N   UNL     1      -0.221   1.515  25.418  0.00  0.00    -0.111 NA
ATOM     13  N   UNL     1      -0.194   2.339  25.395  0.00  0.00    -0.107 NA
ATOM     14  C   UNL     1      -0.970   2.618  25.358  0.00  0.00    +0.250 A 
ATOM     15  O   UNL     1      -1.476   1.967  25.358  0.00  0.00    -0.419 OA
BRANCH  14  16
ATOM     16  C   UNL     1      -1.199   3.411  25.326  0.00  0.00    +0.058 A 
ATOM     17  C   UNL     1      -1.917   3.645  25.657  0.00  0.00    +0.025 A 
ATOM     18  C   UNL     1      -2.147   4.437  25.625  0.00  0.00    +0.099 A 
ATOM     19  N   UNL     1      -1.658   4.994  25.263  0.00  0.00    -0.242 NA
ATOM     20  C   UNL     1      -0.939   4.759  24.933  0.00  0.00    +0.099 A 
ATOM     21  C   UNL     1      -0.710   3.967  24.964  0.00  0.00    +0.025 A 
ENDBRANCH  14  16
ENDBRANCH   9  11
BRANCH   6   5
ATOM      5  C   UNL     1      -2.740  -1.022  25.750  0.00  0.00    +0.099 C 
BRANCH   5   4
ATOM      1 CL   UNL     1      -3.725  -3.082  24.030  0.00  0.00    -0.082 Cl
ATOM      2  C   UNL     1      -3.741  -2.298  24.288  0.00  0.00    +0.057 A 
ATOM      3  C   UNL     1      -3.232  -2.052  24.890  0.00  0.00    +0.008 A 
ATOM      4  C   UNL     1      -3.249  -1.269  25.148  0.00  0.00    -0.005 A 
ATOM     22  C   UNL     1      -3.773  -0.732  24.805  0.00  0.00    -0.003 A 
ATOM     23  C   UNL     1      -4.280  -0.978  24.204  0.00  0.00    +0.001 A 
ATOM     24  C   UNL     1      -4.265  -1.761  23.945  0.00  0.00    +0.011 A 
ENDBRANCH   5   4
ENDBRANCH   6   5
TORSDOF 4
ENDMDL
MODEL 3
REMARK VINA RESULT:     -11.6      1.862      2.491
REMARK  Name = 
REMARK  4 active torsions:
REMARK  status: ('A' for Active; 'I' for Inactive)
REMARK    1  A    between atoms: C_4  and  C_5
REMARK    2  A    between atoms: C_5  and  N_6
REMARK    3  A    between atoms: C_9  and  C_11
REMARK    4  A    between atoms: C_14  and  C_16
REMARK                            x       y       z     vdW  Elec       q    Type
REMARK                         _______ _______ _______ _____ _____    ______ ____
ROOT
ATOM      6  N   UNL     1      -0.536   1.903  25.413  0.00  0.00    -0.268 NA
ATOM      7  C   UNL     1      -0.188   1.694  24.695  0.00  0.00    +0.073 C 
ATOM      8  C   UNL     1      -0.459   0.941  24.492  0.00  0.00    +0.028 C 
ATOM      9  C   UNL     1      -0.974   0.687  25.084  0.00  0.00    +0.096 C 
ATOM     10  C   UNL     1      -1.021   1.282  25.654  0.00  0.00    +0.082 C 
ENDROOT
BRANCH   9  11
ATOM     11  C   UNL     1      -1.372  -0.035  25.103  0.00  0.00    +0.227 A 
ATOM     12  N   UNL     1      -1.145  -0.703  25.531  0.00  0.00    -0.111 NA
ATOM     13  N   UNL     1      -1.699  -1.297  25.391  0.00  0.00    -0.107 NA
ATOM     14  C   UNL     1      -2.270  -0.997  24.876  0.00  0.00    +0.250 A 
ATOM     15  O   UNL     1      -2.067  -0.217  24.698  0.00  0.00    -0.419 OA
BRANCH  14  16
ATOM     16  C   UNL     1      -2.927  -1.405  24.588  0.00  0.00    +0.058 A 
ATOM     17  C   UNL     1      -3.588  -0.988  24.325  0.00  0.00    +0.025 A 
ATOM     18  C   UNL     1      -4.245  -1.396  24.037  0.00  0.00    +0.099 A 
ATOM     19  N   UNL     1      -4.241  -2.221  24.014  0.00  0.00    -0.242 NA
ATOM     20  C   UNL     1      -3.580  -2.637  24.279  0.00  0.00    +0.099 A 
ATOM     21  C   UNL     1      -2.923  -2.230  24.565  0.00  0.00    +0.025 A 
ENDBRANCH  14  16
ENDBRANCH   9  11
BRANCH   6   5
ATOM      5  C   UNL     1      -0.418   2.611  25.820  0.00  0.00    +0.099 C 
BRANCH   5   4
ATOM      1 CL   UNL     1      -2.786   4.189  26.086  0.00  0.00    -0.082 Cl
ATOM      2  C   UNL     1      -2.041   4.070  25.752  0.00  0.00    +0.057 A 
ATOM      3  C   UNL     1      -1.602   3.400  25.953  0.00  0.00    +0.008 A 
ATOM      4  C   UNL     1      -0.857   3.281  25.619  0.00  0.00    -0.005 A 
ATOM     22  C   UNL     1      -0.551   3.830  25.085  0.00  0.00    -0.003 A 
ATOM     23  C   UNL     1      -0.990   4.498  24.884  0.00  0.00    +0.001 A 
ATOM     24  C   UNL     1      -1.736   4.619  25.218  0.00  0.00    +0.011 A 
ENDBRANCH   5   4
ENDBRANCH   6   5
TORSDOF 4
ENDMDL
MODEL 4
REMARK VINA RESULT:     -11.5      1.675      5.115
REMARK  Name = 
REMARK  4 active torsions:
REMARK  status: ('A' for Active; 'I' for Inactive)
REMARK    1  A    between atoms: C_4  and  C_5
REMARK    2  A    between atoms: C_5  and  N_6
REMARK    3  A    between atoms: C_9  and  C_11
REMARK    4  A    between atoms: C_14  and  C_16
REMARK                            x       y       z     vdW  Elec       q    Type
REMARK                         _______ _______ _______ _____ _____    ______ ____
ROOT
ATOM      6  N   UNL     1      -3.833  -0.082  25.211  0.00  0.00    -0.268 NA
ATOM      7  C   UNL     1      -4.554   0.237  24.968  0.00  0.00    +0.073 C 
ATOM      8  C   UNL     1      -4.409   0.990  24.662  0.00  0.00    +0.028 C 
ATOM      9  C   UNL     1      -3.599   1.135  24.716  0.00  0.00    +0.096 C 
ATOM     10  C   UNL     1      -3.243   0.472  25.056  0.00  0.00    +0.082 C 
ENDROOT
BRANCH   9  11
ATOM     11  C   UNL     1      -3.212   1.822  24.474  0.00  0.00    +0.227 A 
ATOM     12  N   UNL     1      -3.215   2.137  23.711  0.00  0.00    -0.111 NA
ATOM     13  N   UNL     1      -2.759   2.824  23.717  0.00  0.00    -0.107 NA
ATOM     14  C   UNL     1      -2.474   2.935  24.484  0.00  0.00    +0.250 A 
ATOM     15  O   UNL     1      -2.754   2.315  24.951  0.00  0.00    -0.419 OA
BRANCH  14  16
ATOM     16  C   UNL     1      -1.993   3.556  24.738  0.00  0.00    +0.058 A 
ATOM     17  C   UNL     1      -2.331   4.217  25.097  0.00  0.00    +0.025 A 
ATOM     18  C   UNL     1      -1.850   4.838  25.351  0.00  0.00    +0.099 A 
ATOM     19  N   UNL     1      -1.033   4.797  25.246  0.00  0.00    -0.242 NA
ATOM     20  C   UNL     1      -0.697   4.135  24.887  0.00  0.00    +0.099 A 
ATOM     21  C   UNL     1      -1.176   3.515  24.633  0.00  0.00    +0.025 A 
ENDBRANCH  14  16
ENDBRANCH   9  11
BRANCH   6   5
ATOM      5  C   UNL     1      -3.722  -0.825  25.550  0.00  0.00    +0.099 C 
BRANCH   5   4
ATOM      1 CL   UNL     1      -1.659  -2.548  24.578  0.00  0.00    -0.082 Cl
ATOM      2  C   UNL     1      -2.453  -2.323  24.595  0.00  0.00    +0.057 A 
ATOM      3  C   UNL     1      -2.691  -1.687  25.064  0.00  0.00    +0.008 A 
ATOM      4  C   UNL     1      -3.484  -1.462  25.081  0.00  0.00    -0.005 A 
ATOM     22  C   UNL     1      -4.040  -1.872  24.630  0.00  0.00    -0.003 A 
ATOM     23  C   UNL     1      -3.802  -2.508  24.162  0.00  0.00    +0.001 A 
ATOM     24  C   UNL     1      -3.008  -2.734  24.144  0.00  0.00    +0.011 A 
ENDBRANCH   5   4
ENDBRANCH   6   5
TORSDOF 4
ENDMDL
