MODEL 1
REMARK VINA RESULT:     -10.3      0.000      0.000
REMARK  Name = 
REMARK  3 active torsions:
REMARK  status: ('A' for Active; 'I' for Inactive)
REMARK    1  A    between atoms: C_2  and  C_17
REMARK    2  A    between atoms: C_8  and  O_10
REMARK    3  A    between atoms: O_10  and  C_11
REMARK                            x       y       z     vdW  Elec       q    Type
REMARK                         _______ _______ _______ _____ _____    ______ ____
ROOT
ATOM      1  O   UNL     1      -5.014   1.476  25.004  0.00  0.00    -0.268 OA
ATOM      2  C   UNL     1      -4.228   1.703  24.894  0.00  0.00    +0.268 C 
ATOM      3  N   UNL     1      -3.623   1.148  24.975  0.00  0.00    -0.268 N 
ATOM      4  C   UNL     1      -2.858   1.433  24.855  0.00  0.00    +0.126 C 
ATOM      5  C   UNL     1      -2.144   1.021  24.896  0.00  0.00    +0.164 C 
ATOM      6  O   UNL     1      -2.019   0.224  25.067  0.00  0.00    -0.348 OA
ATOM      7  C   UNL     1      -2.577  -0.359  25.239  0.00  0.00    +0.187 C 
ATOM      8  C   UNL     1      -3.397  -0.288  25.284  0.00  0.00    +0.215 C 
ATOM      9  C   UNL     1      -3.864   0.382  25.166  0.00  0.00    +0.140 C 
ENDROOT
BRANCH   2  17
ATOM     17  C   UNL     1      -4.048   2.485  24.704  0.00  0.00    +0.154 A 
ATOM     18  C   UNL     1      -4.033   2.725  23.915  0.00  0.00    +0.123 A 
ATOM     19  N   UNL     1      -3.853   3.508  23.725  0.00  0.00    -0.239 NA
ATOM     20  C   UNL     1      -3.687   4.050  24.325  0.00  0.00    +0.120 A 
ATOM     21  C   UNL     1      -3.702   3.810  25.114  0.00  0.00    +0.120 A 
ATOM     22  N   UNL     1      -3.882   3.027  25.304  0.00  0.00    -0.236 NA
ENDBRANCH   2  17
BRANCH   8  10
ATOM     10  O   UNL     1      -3.807  -0.981  25.470  0.00  0.00    -0.475 OA
BRANCH  10  11
ATOM     11  C   UNL     1      -3.793  -1.621  24.950  0.00  0.00    +0.139 A 
ATOM     12  C   UNL     1      -3.339  -2.287  25.127  0.00  0.00    +0.037 A 
ATOM     13  C   UNL     1      -3.326  -2.927  24.607  0.00  0.00    +0.003 A 
ATOM     14  C   UNL     1      -3.767  -2.901  23.910  0.00  0.00    +0.000 A 
ATOM     15  C   UNL     1      -4.221  -2.235  23.734  0.00  0.00    +0.003 A 
ATOM     16  C   UNL     1      -4.234  -1.595  24.254  0.00  0.00    +0.037 A 
ENDBRANCH  10  11
ENDBRANCH   8  10
TORSDOF 3
ENDMDL
MODEL 2
REMARK VINA RESULT:     -10.2      1.557      1.742
REMARK  Name = 
REMARK  3 active torsions:
REMARK  status: ('A' for Active; 'I' for Inactive)
REMARK    1  A    between atoms: C_2  and  C_17
REMARK    2  A    between atoms: C_8  and  O_10
REMARK    3  A    between atoms: O_10  and  C_11
REMARK                            x       y       z     vdW  Elec       q    Type
REMARK                         _______ _______ _______ _____ _____    ______ ____
ROOT
ATOM      1  O   UNL     1      -3.115   1.853  24.987  0.00  0.00    -0.268 OA
ATOM      2  C   UNL     1      -2.310   1.668  25.004  0.00  0.00    +0.268 C 
ATOM      3  N   UNL     1      -2.067   0.896  25.160  0.00  0.00    -0.268 N 
ATOM      4  C   UNL     1      -1.252   0.771  25.163  0.00  0.00    +0.126 C 
ATOM      5  C   UNL     1      -0.840   0.069  25.299  0.00  0.00    +0.164 C 
ATOM      6  O   UNL     1      -1.141  -0.681  25.465  0.00  0.00    -0.348 OA
ATOM      7  C   UNL     1      -1.930  -0.914  25.536  0.00  0.00    +0.187 C 
ATOM      8  C   UNL     1      -2.610  -0.455  25.459  0.00  0.00    +0.215 C 
ATOM      9  C   UNL     1      -2.672   0.350  25.291  0.00  0.00    +0.140 C 
ENDROOT
BRANCH   2  17
ATOM     17  C   UNL     1      -1.749   2.257  24.865  0.00  0.00    +0.154 A 
ATOM     18  C   UNL     1      -1.494   2.410  24.096  0.00  0.00    +0.123 A 
ATOM     19  N   UNL     1      -0.933   2.999  23.956  0.00  0.00    -0.239 NA
ATOM     20  C   UNL     1      -0.628   3.434  24.587  0.00  0.00    +0.120 A 
ATOM     21  C   UNL     1      -0.883   3.281  25.356  0.00  0.00    +0.120 A 
ATOM     22  N   UNL     1      -1.444   2.692  25.495  0.00  0.00    -0.236 NA
ENDBRANCH   2  17
BRANCH   8  10
ATOM     10  O   UNL     1      -3.325  -0.855  25.563  0.00  0.00    -0.475 OA
BRANCH  10  11
ATOM     11  C   UNL     1      -3.574  -1.409  25.003  0.00  0.00    +0.139 A 
ATOM     12  C   UNL     1      -3.370  -2.203  25.091  0.00  0.00    +0.037 A 
ATOM     13  C   UNL     1      -3.618  -2.757  24.532  0.00  0.00    +0.003 A 
ATOM     14  C   UNL     1      -4.070  -2.515  23.885  0.00  0.00    +0.000 A 
ATOM     15  C   UNL     1      -4.273  -1.720  23.798  0.00  0.00    +0.003 A 
ATOM     16  C   UNL     1      -4.025  -1.167  24.357  0.00  0.00    +0.037 A 
ENDBRANCH  10  11
ENDBRANCH   8  10
TORSDOF 3
ENDMDL
MODEL 3
REMARK VINA RESULT:      -9.7      1.366      4.474
REMARK  Name = 
REMARK  3 active torsions:
REMARK  status: ('A' for Active; 'I' for Inactive)
REMARK    1  A    between atoms: C_2  and  C_17
REMARK    2  A    between atoms: C_8  and  O_10
REMARK    3  A    between atoms: O_10  and  C_11
REMARK                            x       y       z     vdW  Elec       q    Type
REMARK                         _______ _______ _______ _____ _____    ______ ____
ROOT
ATOM      1  O   UNL     1      -4.659   0.445  24.780  0.00  0.00    -0.268 OA
ATOM      2  C   UNL     1      -3.918   0.102  24.655  0.00  0.00    +0.268 C 
ATOM      3  N   UNL     1      -3.271   0.576  24.464  0.00  0.00    -0.268 N 
ATOM      4  C   UNL     1      -2.557   0.179  24.351  0.00  0.00    +0.126 C 
ATOM      5  C   UNL     1      -1.819   0.493  24.157  0.00  0.00    +0.164 C 
ATOM      6  O   UNL     1      -1.612   1.281  24.029  0.00  0.00    -0.348 OA
ATOM      7  C   UNL     1      -2.093   1.951  24.063  0.00  0.00    +0.187 C 
ATOM      8  C   UNL     1      -2.898   1.997  24.234  0.00  0.00    +0.215 C 
ATOM      9  C   UNL     1      -3.423   1.386  24.412  0.00  0.00    +0.140 C 
ENDROOT
BRANCH   2  17
ATOM     17  C   UNL     1      -3.826  -0.715  24.721  0.00  0.00    +0.154 A 
ATOM     18  C   UNL     1      -3.609  -1.049  25.443  0.00  0.00    +0.123 A 
ATOM     19  N   UNL     1      -3.517  -1.866  25.509  0.00  0.00    -0.239 NA
ATOM     20  C   UNL     1      -3.641  -2.349  24.852  0.00  0.00    +0.120 A 
ATOM     21  C   UNL     1      -3.858  -2.015  24.130  0.00  0.00    +0.120 A 
ATOM     22  N   UNL     1      -3.950  -1.198  24.064  0.00  0.00    -0.236 NA
ENDBRANCH   2  17
BRANCH   8  10
ATOM     10  O   UNL     1      -3.223   2.756  24.225  0.00  0.00    -0.475 OA
BRANCH  10  11
ATOM     11  C   UNL     1      -3.063   3.281  24.840  0.00  0.00    +0.139 A 
ATOM     12  C   UNL     1      -3.608   3.378  25.452  0.00  0.00    +0.037 A 
ATOM     13  C   UNL     1      -3.448   3.903  26.068  0.00  0.00    +0.003 A 
ATOM     14  C   UNL     1      -2.742   4.331  26.072  0.00  0.00    +0.000 A 
ATOM     15  C   UNL     1      -2.197   4.234  25.460  0.00  0.00    +0.003 A 
ATOM     16  C   UNL     1      -2.358   3.709  24.844  0.00  0.00    +0.037 A 
ENDBRANCH  10  11
ENDBRANCH   8  10
TORSDOF 3
ENDMDL
