MODEL 1
REMARK VINA RESULT:      -8.0      0.000      0.000
REMARK  Name = 
REMARK  4 active torsions:
REMARK  status: ('A' for Active; 'I' for Inactive)
REMARK    1  A    between atoms: C_3  and  C_4
REMARK    2  A    between atoms: C_4  and  N_5
REMARK    3  A    between atoms: C_16  and  N_17
REMARK    4  A    between atoms: N_17  and  C_18
REMARK                            x       y       z     vdW  Elec       q    Type
REMARK                         _______ _______ _______ _____ _____    ______ ____
ROOT
ATOM      1  O   UNL     1      -4.928   0.968  25.172  0.00  0.00    -0.219 OA
ATOM      2  C   UNL     1      -4.215   0.777  24.804  0.00  0.00    +0.199 C 
ATOM      3  C   UNL     1      -3.608   1.303  24.619  0.00  0.00    +0.169 C 
ATOM     14  O   UNL     1      -3.003   0.876  24.256  0.00  0.00    -0.350 OA
ATOM     15  C   UNL     1      -3.236   0.085  24.217  0.00  0.00    +0.162 C 
ATOM     16  C   UNL     1      -3.986   0.024  24.555  0.00  0.00    +0.135 C 
ENDROOT
BRANCH   3   4
ATOM      4  C   UNL     1      -3.606   2.114  24.770  0.00  0.00    +0.149 C 
BRANCH   4   5
ATOM      5  N   UNL     1      -2.892   2.523  24.816  0.00  0.00    -0.186 NA
ATOM      6  C   UNL     1      -2.890   3.336  24.960  0.00  0.00    +0.323 C 
ATOM      7  O   UNL     1      -3.604   3.739  25.058  0.00  0.00    -0.251 OA
ATOM      8  N   UNL     1      -2.176   3.746  25.006  0.00  0.00    -0.258 N 
ATOM      9  C   UNL     1      -2.174   4.558  25.149  0.00  0.00    +0.127 C 
ATOM     10  C   UNL     1      -1.460   4.968  25.195  0.00  0.00    +0.164 C 
ATOM     11  O   UNL     1      -0.746   4.565  25.097  0.00  0.00    -0.350 OA
ATOM     12  C   UNL     1      -0.748   3.753  24.953  0.00  0.00    +0.164 C 
ATOM     13  C   UNL     1      -1.462   3.343  24.907  0.00  0.00    +0.127 C 
ENDBRANCH   4   5
ENDBRANCH   3   4
BRANCH  16  17
ATOM     17  N   UNL     1      -4.427  -0.668  24.632  0.00  0.00    -0.211 NA
BRANCH  17  18
ATOM     18  C   UNL     1      -4.087  -1.397  24.450  0.00  0.00    +0.132 C 
ATOM     19  C   UNL     1      -4.088  -1.893  23.790  0.00  0.00    +0.162 C 
ATOM     20  O   UNL     1      -3.605  -2.428  24.192  0.00  0.00    -0.351 OA
ATOM     21  C   UNL     1      -3.603  -1.932  24.851  0.00  0.00    +0.162 C 
ENDBRANCH  17  18
ENDBRANCH  16  17
TORSDOF 4
ENDMDL
MODEL 2
REMARK VINA RESULT:      -7.8      1.048      5.010
REMARK  Name = 
REMARK  4 active torsions:
REMARK  status: ('A' for Active; 'I' for Inactive)
REMARK    1  A    between atoms: C_3  and  C_4
REMARK    2  A    between atoms: C_4  and  N_5
REMARK    3  A    between atoms: C_16  and  N_17
REMARK    4  A    between atoms: N_17  and  C_18
REMARK                            x       y       z     vdW  Elec       q    Type
REMARK                         _______ _______ _______ _____ _____    ______ ____
ROOT
ATOM      1  O   UNL     1      -4.620   2.305  24.273  0.00  0.00    -0.219 OA
ATOM      2  C   UNL     1      -3.860   2.119  24.533  0.00  0.00    +0.199 C 
ATOM      3  C   UNL     1      -3.547   1.360  24.614  0.00  0.00    +0.169 C 
ATOM     14  O   UNL     1      -2.772   1.433  24.889  0.00  0.00    -0.350 OA
ATOM     15  C   UNL     1      -2.606   2.236  24.978  0.00  0.00    +0.162 C 
ATOM     16  C   UNL     1      -3.279   2.660  24.758  0.00  0.00    +0.135 C 
ENDROOT
BRANCH   3   4
ATOM      4  C   UNL     1      -3.939   0.654  24.450  0.00  0.00    +0.149 C 
BRANCH   4   5
ATOM      5  N   UNL     1      -3.532  -0.063  24.489  0.00  0.00    -0.186 NA
ATOM      6  C   UNL     1      -3.930  -0.772  24.344  0.00  0.00    +0.323 C 
ATOM      7  O   UNL     1      -4.734  -0.763  24.158  0.00  0.00    -0.251 OA
ATOM      8  N   UNL     1      -3.523  -1.488  24.383  0.00  0.00    -0.258 N 
ATOM      9  C   UNL     1      -3.920  -2.196  24.238  0.00  0.00    +0.127 C 
ATOM     10  C   UNL     1      -3.514  -2.913  24.277  0.00  0.00    +0.164 C 
ATOM     11  O   UNL     1      -2.710  -2.922  24.463  0.00  0.00    -0.350 OA
ATOM     12  C   UNL     1      -2.313  -2.213  24.608  0.00  0.00    +0.164 C 
ATOM     13  C   UNL     1      -2.719  -1.496  24.568  0.00  0.00    +0.127 C 
ENDBRANCH   4   5
ENDBRANCH   3   4
BRANCH  16  17
ATOM     17  N   UNL     1      -3.356   3.481  24.762  0.00  0.00    -0.211 NA
BRANCH  17  18
ATOM     18  C   UNL     1      -2.822   3.944  25.187  0.00  0.00    +0.132 C 
ATOM     19  C   UNL     1      -2.766   4.201  25.970  0.00  0.00    +0.162 C 
ATOM     20  O   UNL     1      -2.065   4.598  25.789  0.00  0.00    -0.351 OA
ATOM     21  C   UNL     1      -2.121   4.340  25.007  0.00  0.00    +0.162 C 
ENDBRANCH  17  18
ENDBRANCH  16  17
TORSDOF 4
ENDMDL
MODEL 3
REMARK VINA RESULT:      -7.6      1.509      5.310
REMARK  Name = 
REMARK  4 active torsions:
REMARK  status: ('A' for Active; 'I' for Inactive)
REMARK    1  A    between atoms: C_3  and  C_4
REMARK    2  A    between atoms: C_4  and  N_5
REMARK    3  A    between atoms: C_16  and  N_17
REMARK    4  A    between atoms: N_17  and  C_18
REMARK                            x       y       z     vdW  Elec       q    Type
REMARK                         _______ _______ _______ _____ _____    ______ ____
ROOT
ATOM      1  O   UNL     1      -0.527   1.416  25.993  0.00  0.00    -0.219 OA
ATOM      2  C   UNL     1      -1.108   1.648  25.455  0.00  0.00    +0.199 C 
ATOM      3  C   UNL     1      -1.592   1.144  25.016  0.00  0.00    +0.169 C 
ATOM     14  O   UNL     1      -2.089   1.610  24.552  0.00  0.00    -0.350 OA
ATOM     15  C   UNL     1      -1.913   2.402  24.703  0.00  0.00    +0.162 C 
ATOM     16  C   UNL     1      -1.306   2.425  25.262  0.00  0.00    +0.135 C 
ENDROOT
BRANCH   3   4
ATOM      4  C   UNL     1      -1.580   0.320  25.039  0.00  0.00    +0.149 C 
BRANCH   4   5
ATOM      5  N   UNL     1      -2.240  -0.109  24.791  0.00  0.00    -0.186 NA
ATOM      6  C   UNL     1      -2.233  -0.934  24.824  0.00  0.00    +0.323 C 
ATOM      7  O   UNL     1      -1.565  -1.329  25.104  0.00  0.00    -0.251 OA
ATOM      8  N   UNL     1      -2.893  -1.362  24.576  0.00  0.00    -0.258 N 
ATOM      9  C   UNL     1      -2.885  -2.186  24.609  0.00  0.00    +0.127 C 
ATOM     10  C   UNL     1      -3.545  -2.615  24.361  0.00  0.00    +0.164 C 
ATOM     11  O   UNL     1      -4.213  -2.219  24.081  0.00  0.00    -0.350 OA
ATOM     12  C   UNL     1      -4.220  -1.395  24.049  0.00  0.00    +0.164 C 
ATOM     13  C   UNL     1      -3.560  -0.966  24.296  0.00  0.00    +0.127 C 
ENDBRANCH   4   5
ENDBRANCH   3   4
BRANCH  16  17
ATOM     17  N   UNL     1      -0.959   3.106  25.572  0.00  0.00    -0.211 NA
BRANCH  17  18
ATOM     18  C   UNL     1      -1.300   3.843  25.430  0.00  0.00    +0.132 C 
ATOM     19  C   UNL     1      -1.094   4.506  24.984  0.00  0.00    +0.162 C 
ATOM     20  O   UNL     1      -1.783   4.887  25.231  0.00  0.00    -0.351 OA
ATOM     21  C   UNL     1      -1.989   4.225  25.677  0.00  0.00    +0.162 C 
ENDBRANCH  17  18
ENDBRANCH  16  17
TORSDOF 4
ENDMDL
MODEL 4
REMARK VINA RESULT:      -7.5      1.416      2.014
REMARK  Name = 
REMARK  4 active torsions:
REMARK  status: ('A' for Active; 'I' for Inactive)
REMARK    1  A    between atoms: C_3  and  C_4
REMARK    2  A    between atoms: C_4  and  N_5
REMARK    3  A    between atoms: C_16  and  N_17
REMARK    4  A    between atoms: N_17  and  C_18
REMARK                            x       y       z     vdW  Elec       q    Type
REMARK                         _______ _______ _______ _____ _____    ______ ____
ROOT
ATOM      1  O   UNL     1      -0.633  -0.399  25.004  0.00  0.00    -0.219 OA
ATOM      2  C   UNL     1      -1.415  -0.167  24.880  0.00  0.00    +0.199 C 
ATOM      3  C   UNL     1      -1.673   0.599  24.714  0.00  0.00    +0.169 C 
ATOM     14  O   UNL     1      -2.493   0.578  24.632  0.00  0.00    -0.350 OA
ATOM     15  C   UNL     1      -2.743  -0.199  24.746  0.00  0.00    +0.162 C 
ATOM     16  C   UNL     1      -2.075  -0.661  24.899  0.00  0.00    +0.135 C 
ENDROOT
BRANCH   3   4
ATOM      4  C   UNL     1      -1.195   1.267  24.644  0.00  0.00    +0.149 C 
BRANCH   4   5
ATOM      5  N   UNL     1      -1.475   2.003  24.889  0.00  0.00    -0.186 NA
ATOM      6  C   UNL     1      -1.029   2.683  24.748  0.00  0.00    +0.323 C 
ATOM      7  O   UNL     1      -0.302   2.626  24.362  0.00  0.00    -0.251 OA
ATOM      8  N   UNL     1      -1.309   3.419  24.994  0.00  0.00    -0.258 N 
ATOM      9  C   UNL     1      -0.864   4.098  24.853  0.00  0.00    +0.127 C 
ATOM     10  C   UNL     1      -1.144   4.834  25.098  0.00  0.00    +0.164 C 
ATOM     11  O   UNL     1      -1.871   4.891  25.484  0.00  0.00    -0.350 OA
ATOM     12  C   UNL     1      -2.317   4.211  25.625  0.00  0.00    +0.164 C 
ATOM     13  C   UNL     1      -2.037   3.475  25.380  0.00  0.00    +0.127 C 
ENDBRANCH   4   5
ENDBRANCH   3   4
BRANCH  16  17
ATOM     17  N   UNL     1      -2.071  -1.472  25.046  0.00  0.00    -0.211 NA
BRANCH  17  18
ATOM     18  C   UNL     1      -2.759  -1.914  24.941  0.00  0.00    +0.132 C 
ATOM     19  C   UNL     1      -3.421  -2.083  25.405  0.00  0.00    +0.162 C 
ATOM     20  O   UNL     1      -3.734  -2.539  24.793  0.00  0.00    -0.351 OA
ATOM     21  C   UNL     1      -3.073  -2.370  24.329  0.00  0.00    +0.162 C 
ENDBRANCH  17  18
ENDBRANCH  16  17
TORSDOF 4
ENDMDL
MODEL 5
REMARK VINA RESULT:      -7.4     15.786     18.387
REMARK  Name = 
REMARK  4 active torsions:
REMARK  status: ('A' for Active; 'I' for Inactive)
REMARK    1  A    between atoms: C_3  and  C_4
REMARK    2  A    between atoms: C_4  and  N_5
REMARK    3  A    between atoms: C_16  and  N_17
REMARK    4  A    between atoms: N_17  and  C_18
REMARK                            x       y       z     vdW  Elec       q    Type
REMARK                         _______ _______ _______ _____ _____    ______ ____
ROOT
ATOM      1  O   UNL     1      12.102   7.436  19.273  0.00  0.00    -0.219 OA
ATOM      2  C   UNL     1      12.336   7.212  20.031  0.00  0.00    +0.199 C 
ATOM      3  C   UNL     1      13.090   6.958  20.251  0.00  0.00    +0.169 C 
ATOM     14  O   UNL     1      13.076   6.791  21.058  0.00  0.00    -0.350 OA
ATOM     15  C   UNL     1      12.315   6.941  21.338  0.00  0.00    +0.162 C 
ATOM     16  C   UNL     1      11.857   7.201  20.703  0.00  0.00    +0.135 C 
ENDROOT
BRANCH   3   4
ATOM      4  C   UNL     1      13.741   6.885  19.751  0.00  0.00    +0.149 C 
BRANCH   4   5
ATOM      5  N   UNL     1      14.494   6.770  20.068  0.00  0.00    -0.186 NA
ATOM      6  C   UNL     1      15.146   6.691  19.568  0.00  0.00    +0.323 C 
ATOM      7  O   UNL     1      15.044   6.728  18.750  0.00  0.00    -0.251 OA
ATOM      8  N   UNL     1      15.898   6.577  19.885  0.00  0.00    -0.258 N 
ATOM      9  C   UNL     1      16.549   6.498  19.385  0.00  0.00    +0.127 C 
ATOM     10  C   UNL     1      17.302   6.384  19.702  0.00  0.00    +0.164 C 
ATOM     11  O   UNL     1      17.404   6.347  20.520  0.00  0.00    -0.350 OA
ATOM     12  C   UNL     1      16.752   6.426  21.020  0.00  0.00    +0.164 C 
ATOM     13  C   UNL     1      16.000   6.541  20.703  0.00  0.00    +0.127 C 
ENDBRANCH   4   5
ENDBRANCH   3   4
BRANCH  16  17
ATOM     17  N   UNL     1      11.061   7.413  20.734  0.00  0.00    -0.211 NA
BRANCH  17  18
ATOM     18  C   UNL     1      10.723   7.639  21.452  0.00  0.00    +0.132 C 
ATOM     19  C   UNL     1      10.631   8.355  21.855  0.00  0.00    +0.162 C 
ATOM     20  O   UNL     1      10.244   7.959  22.467  0.00  0.00    -0.351 OA
ATOM     21  C   UNL     1      10.336   7.245  22.065  0.00  0.00    +0.162 C 
ENDBRANCH  17  18
ENDBRANCH  16  17
TORSDOF 4
ENDMDL
MODEL 6
REMARK VINA RESULT:      -7.3      2.398      3.588
REMARK  Name = 
REMARK  4 active torsions:
REMARK  status: ('A' for Active; 'I' for Inactive)
REMARK    1  A    between atoms: C_3  and  C_4
REMARK    2  A    between atoms: C_4  and  N_5
REMARK    3  A    between atoms: C_16  and  N_17
REMARK    4  A    between atoms: N_17  and  C_18
REMARK                            x       y       z     vdW  Elec       q    Type
REMARK                         _______ _______ _______ _____ _____    ______ ____
ROOT
ATOM      1  O   UNL     1      -0.832   2.094  25.553  0.00  0.00    -0.219 OA
ATOM      2  C   UNL     1      -1.129   1.915  24.804  0.00  0.00    +0.199 C 
ATOM      3  C   UNL     1      -1.841   2.186  24.488  0.00  0.00    +0.169 C 
ATOM     14  O   UNL     1      -1.918   1.871  23.729  0.00  0.00    -0.350 OA
ATOM     15  C   UNL     1      -1.253   1.407  23.576  0.00  0.00    +0.162 C 
ATOM     16  C   UNL     1      -0.766   1.434  24.242  0.00  0.00    +0.135 C 
ENDROOT
BRANCH   3   4
ATOM      4  C   UNL     1      -2.381   2.683  24.863  0.00  0.00    +0.149 C 
BRANCH   4   5
ATOM      5  N   UNL     1      -3.178   2.473  24.902  0.00  0.00    -0.186 NA
ATOM      6  C   UNL     1      -3.726   2.992  25.236  0.00  0.00    +0.323 C 
ATOM      7  O   UNL     1      -3.477   3.721  25.530  0.00  0.00    -0.251 OA
ATOM      8  N   UNL     1      -4.523   2.782  25.275  0.00  0.00    -0.258 N 
ATOM      9  C   UNL     1      -5.070   3.300  25.608  0.00  0.00    +0.127 C 
ATOM     10  C   UNL     1      -5.867   3.090  25.647  0.00  0.00    +0.164 C 
ATOM     11  O   UNL     1      -6.116   2.361  25.353  0.00  0.00    -0.350 OA
ATOM     12  C   UNL     1      -5.568   1.842  25.019  0.00  0.00    +0.164 C 
ATOM     13  C   UNL     1      -4.771   2.052  24.980  0.00  0.00    +0.127 C 
ENDBRANCH   4   5
ENDBRANCH   3   4
BRANCH  16  17
ATOM     17  N   UNL     1      -0.043   1.047  24.328  0.00  0.00    -0.211 NA
BRANCH  17  18
ATOM     18  C   UNL     1       0.075   0.310  23.978  0.00  0.00    +0.132 C 
ATOM     19  C   UNL     1       0.479   0.038  23.310  0.00  0.00    +0.162 C 
ATOM     20  O   UNL     1       0.242  -0.733  23.482  0.00  0.00    -0.351 OA
ATOM     21  C   UNL     1      -0.161  -0.462  24.148  0.00  0.00    +0.162 C 
ENDBRANCH  17  18
ENDBRANCH  16  17
TORSDOF 4
ENDMDL
MODEL 7
REMARK VINA RESULT:      -7.3      1.828      2.488
REMARK  Name = 
REMARK  4 active torsions:
REMARK  status: ('A' for Active; 'I' for Inactive)
REMARK    1  A    between atoms: C_3  and  C_4
REMARK    2  A    between atoms: C_4  and  N_5
REMARK    3  A    between atoms: C_16  and  N_17
REMARK    4  A    between atoms: N_17  and  C_18
REMARK                            x       y       z     vdW  Elec       q    Type
REMARK                         _______ _______ _______ _____ _____    ______ ____
ROOT
ATOM      1  O   UNL     1      -2.065   0.025  24.524  0.00  0.00    -0.219 OA
ATOM      2  C   UNL     1      -2.857  -0.161  24.389  0.00  0.00    +0.199 C 
ATOM      3  C   UNL     1      -3.474   0.380  24.305  0.00  0.00    +0.169 C 
ATOM     14  O   UNL     1      -4.170  -0.045  24.179  0.00  0.00    -0.350 OA
ATOM     15  C   UNL     1      -3.983  -0.849  24.185  0.00  0.00    +0.162 C 
ATOM     16  C   UNL     1      -3.171  -0.920  24.315  0.00  0.00    +0.135 C 
ENDROOT
BRANCH   3   4
ATOM      4  C   UNL     1      -3.408   1.201  24.340  0.00  0.00    +0.149 C 
BRANCH   4   5
ATOM      5  N   UNL     1      -4.002   1.649  24.696  0.00  0.00    -0.186 NA
ATOM      6  C   UNL     1      -3.941   2.471  24.723  0.00  0.00    +0.323 C 
ATOM      7  O   UNL     1      -3.284   2.846  24.393  0.00  0.00    -0.251 OA
ATOM      8  N   UNL     1      -4.535   2.919  25.078  0.00  0.00    -0.258 N 
ATOM      9  C   UNL     1      -4.474   3.740  25.105  0.00  0.00    +0.127 C 
ATOM     10  C   UNL     1      -5.068   4.188  25.460  0.00  0.00    +0.164 C 
ATOM     11  O   UNL     1      -5.725   3.813  25.790  0.00  0.00    -0.350 OA
ATOM     12  C   UNL     1      -5.787   2.990  25.764  0.00  0.00    +0.164 C 
ATOM     13  C   UNL     1      -5.192   2.543  25.408  0.00  0.00    +0.127 C 
ENDBRANCH   4   5
ENDBRANCH   3   4
BRANCH  16  17
ATOM     17  N   UNL     1      -2.748  -1.626  24.362  0.00  0.00    -0.211 NA
BRANCH  17  18
ATOM     18  C   UNL     1      -3.133  -2.323  24.578  0.00  0.00    +0.132 C 
ATOM     19  C   UNL     1      -3.303  -2.699  25.294  0.00  0.00    +0.162 C 
ATOM     20  O   UNL     1      -3.678  -3.309  24.884  0.00  0.00    -0.351 OA
ATOM     21  C   UNL     1      -3.508  -2.934  24.170  0.00  0.00    +0.162 C 
ENDBRANCH  17  18
ENDBRANCH  16  17
TORSDOF 4
ENDMDL
MODEL 8
REMARK VINA RESULT:      -7.3      2.340      4.242
REMARK  Name = 
REMARK  4 active torsions:
REMARK  status: ('A' for Active; 'I' for Inactive)
REMARK    1  A    between atoms: C_3  and  C_4
REMARK    2  A    between atoms: C_4  and  N_5
REMARK    3  A    between atoms: C_16  and  N_17
REMARK    4  A    between atoms: N_17  and  C_18
REMARK                            x       y       z     vdW  Elec       q    Type
REMARK                         _______ _______ _______ _____ _____    ______ ____
ROOT
ATOM      1  O   UNL     1      -3.490   2.283  23.360  0.00  0.00    -0.219 OA
ATOM      2  C   UNL     1      -3.230   2.511  24.110  0.00  0.00    +0.199 C 
ATOM      3  C   UNL     1      -2.516   2.298  24.462  0.00  0.00    +0.169 C 
ATOM     14  O   UNL     1      -2.485   2.647  25.208  0.00  0.00    -0.350 OA
ATOM     15  C   UNL     1      -3.181   3.077  25.318  0.00  0.00    +0.162 C 
ATOM     16  C   UNL     1      -3.642   2.992  24.639  0.00  0.00    +0.135 C 
ENDROOT
BRANCH   3   4
ATOM      4  C   UNL     1      -1.934   1.819  24.126  0.00  0.00    +0.149 C 
BRANCH   4   5
ATOM      5  N   UNL     1      -1.729   1.105  24.485  0.00  0.00    -0.186 NA
ATOM      6  C   UNL     1      -1.114   0.649  24.176  0.00  0.00    +0.323 C 
ATOM      7  O   UNL     1      -0.705   0.908  23.508  0.00  0.00    -0.251 OA
ATOM      8  N   UNL     1      -0.910  -0.065  24.535  0.00  0.00    -0.258 N 
ATOM      9  C   UNL     1      -0.296  -0.521  24.226  0.00  0.00    +0.127 C 
ATOM     10  C   UNL     1      -0.091  -1.235  24.585  0.00  0.00    +0.164 C 
ATOM     11  O   UNL     1      -0.501  -1.493  25.253  0.00  0.00    -0.350 OA
ATOM     12  C   UNL     1      -1.116  -1.037  25.561  0.00  0.00    +0.164 C 
ATOM     13  C   UNL     1      -1.320  -0.323  25.203  0.00  0.00    +0.127 C 
ENDBRANCH   4   5
ENDBRANCH   3   4
BRANCH  16  17
ATOM     17  N   UNL     1      -4.383   3.330  24.511  0.00  0.00    -0.211 NA
BRANCH  17  18
ATOM     18  C   UNL     1      -4.949   3.322  25.112  0.00  0.00    +0.132 C 
ATOM     19  C   UNL     1      -5.486   2.764  25.401  0.00  0.00    +0.162 C 
ATOM     20  O   UNL     1      -5.749   3.310  25.962  0.00  0.00    -0.351 OA
ATOM     21  C   UNL     1      -5.213   3.866  25.673  0.00  0.00    +0.162 C 
ENDBRANCH  17  18
ENDBRANCH  16  17
TORSDOF 4
ENDMDL
