MODEL 1
REMARK VINA RESULT:      -9.8      0.000      0.000
REMARK  Name = 
REMARK  3 active torsions:
REMARK  status: ('A' for Active; 'I' for Inactive)
REMARK    1  A    between atoms: O_2  and  C_3
REMARK    2  A    between atoms: C_3  and  C_5
REMARK    3  A    between atoms: C_14  and  C_16
REMARK                            x       y       z     vdW  Elec       q    Type
REMARK                         _______ _______ _______ _____ _____    ______ ____
ROOT
ATOM      5  C   UNL     1      -3.979   2.136  24.859  0.00  0.00    +0.195 C 
ATOM      6  C   UNL     1      -3.474   1.533  24.611  0.00  0.00    +0.125 C 
ATOM      7  N   UNL     1      -3.709   0.745  24.676  0.00  0.00    -0.272 N 
ATOM      8  C   UNL     1      -4.450   0.560  24.990  0.00  0.00    +0.115 C 
ATOM      9  C   UNL     1      -4.954   1.164  25.238  0.00  0.00    +0.115 C 
ATOM     10  N   UNL     1      -4.719   1.952  25.173  0.00  0.00    -0.268 N 
ATOM     11  C   UNL     1      -5.224   2.554  25.421  0.00  0.00    +0.227 C 
ATOM     12  C   UNL     1      -4.988   3.343  25.356  0.00  0.00    +0.095 C 
ATOM     13  O   UNL     1      -5.964   2.370  25.735  0.00  0.00    -0.275 OA
ATOM     14  C   UNL     1      -3.205   0.142  24.428  0.00  0.00    +0.251 C 
ATOM     15  O   UNL     1      -2.464   0.327  24.114  0.00  0.00    -0.270 OA
ENDROOT
BRANCH  14  16
ATOM     16  C   UNL     1      -3.440  -0.646  24.493  0.00  0.00    +0.073 A 
ATOM     17  C   UNL     1      -3.253  -1.077  25.172  0.00  0.00    +0.103 A 
ATOM     18  N   UNL     1      -3.488  -1.865  25.237  0.00  0.00    -0.242 NA
ATOM     19  C   UNL     1      -3.910  -2.222  24.624  0.00  0.00    +0.099 A 
ATOM     20  C   UNL     1      -4.096  -1.791  23.946  0.00  0.00    +0.021 A 
ATOM     21  C   UNL     1      -3.861  -1.003  23.881  0.00  0.00    +0.008 A 
ENDBRANCH  14  16
BRANCH   5   3
ATOM      3  C   UNL     1      -3.744   2.925  24.794  0.00  0.00    +0.337 C 
ATOM      4  O   UNL     1      -3.992   3.377  24.150  0.00  0.00    -0.248 OA
BRANCH   3   2
ATOM      1  C   UNL     1      -2.823   3.938  25.201  0.00  0.00    +0.256 C 
ATOM      2  O   UNL     1      -3.261   3.260  25.372  0.00  0.00    -0.443 OA
ENDBRANCH   3   2
ENDBRANCH   5   3
TORSDOF 3
ENDMDL
MODEL 2
REMARK VINA RESULT:      -9.6      1.110      1.718
REMARK  Name = 
REMARK  3 active torsions:
REMARK  status: ('A' for Active; 'I' for Inactive)
REMARK    1  A    between atoms: O_2  and  C_3
REMARK    2  A    between atoms: C_3  and  C_5
REMARK    3  A    between atoms: C_14  and  C_16
REMARK                            x       y       z     vdW  Elec       q    Type
REMARK                         _______ _______ _______ _____ _____    ______ ____
ROOT
ATOM      5  C   UNL     1      -3.973   1.705  24.478  0.00  0.00    +0.195 C 
ATOM      6  C   UNL     1      -4.126   1.021  24.915  0.00  0.00    +0.125 C 
ATOM      7  N   UNL     1      -3.804   0.300  24.678  0.00  0.00    -0.272 N 
ATOM      8  C   UNL     1      -3.330   0.261  24.003  0.00  0.00    +0.115 C 
ATOM      9  C   UNL     1      -3.177   0.945  23.568  0.00  0.00    +0.115 C 
ATOM     10  N   UNL     1      -3.499   1.666  23.805  0.00  0.00    -0.268 N 
ATOM     11  C   UNL     1      -3.346   2.349  23.369  0.00  0.00    +0.227 C 
ATOM     12  C   UNL     1      -3.668   3.071  23.607  0.00  0.00    +0.095 C 
ATOM     13  O   UNL     1      -2.871   2.311  22.695  0.00  0.00    -0.275 OA
ATOM     14  C   UNL     1      -3.957  -0.384  25.114  0.00  0.00    +0.251 C 
ATOM     15  O   UNL     1      -4.432  -0.345  25.788  0.00  0.00    -0.270 OA
ENDROOT
BRANCH  14  16
ATOM     16  C   UNL     1      -3.636  -1.104  24.876  0.00  0.00    +0.073 A 
ATOM     17  C   UNL     1      -2.888  -1.331  25.143  0.00  0.00    +0.103 A 
ATOM     18  N   UNL     1      -2.566  -2.053  24.906  0.00  0.00    -0.242 NA
ATOM     19  C   UNL     1      -2.992  -2.548  24.402  0.00  0.00    +0.099 A 
ATOM     20  C   UNL     1      -3.739  -2.322  24.135  0.00  0.00    +0.021 A 
ATOM     21  C   UNL     1      -4.061  -1.600  24.373  0.00  0.00    +0.008 A 
ENDBRANCH  14  16
BRANCH   5   3
ATOM      3  C   UNL     1      -4.295   2.427  24.716  0.00  0.00    +0.337 C 
ATOM      4  O   UNL     1      -4.996   2.698  24.375  0.00  0.00    -0.248 OA
BRANCH   3   2
ATOM      1  C   UNL     1      -4.321   3.488  25.672  0.00  0.00    +0.256 C 
ATOM      2  O   UNL     1      -3.916   2.877  25.294  0.00  0.00    -0.443 OA
ENDBRANCH   3   2
ENDBRANCH   5   3
TORSDOF 3
ENDMDL
MODEL 3
REMARK VINA RESULT:      -9.0      1.311      4.205
REMARK  Name = 
REMARK  3 active torsions:
REMARK  status: ('A' for Active; 'I' for Inactive)
REMARK    1  A    between atoms: O_2  and  C_3
REMARK    2  A    between atoms: C_3  and  C_5
REMARK    3  A    between atoms: C_14  and  C_16
REMARK                            x       y       z     vdW  Elec       q    Type
REMARK                         _______ _______ _______ _____ _____    ______ ____
ROOT
ATOM      5  C   UNL     1      -3.360  -0.481  24.874  0.00  0.00    +0.195 C 
ATOM      6  C   UNL     1      -3.971   0.070  24.812  0.00  0.00    +0.125 C 
ATOM      7  N   UNL     1      -3.796   0.876  24.776  0.00  0.00    -0.272 N 
ATOM      8  C   UNL     1      -3.011   1.130  24.802  0.00  0.00    +0.115 C 
ATOM      9  C   UNL     1      -2.401   0.578  24.864  0.00  0.00    +0.115 C 
ATOM     10  N   UNL     1      -2.576  -0.228  24.900  0.00  0.00    -0.268 N 
ATOM     11  C   UNL     1      -1.966  -0.779  24.961  0.00  0.00    +0.227 C 
ATOM     12  C   UNL     1      -2.141  -1.586  24.997  0.00  0.00    +0.095 C 
ATOM     13  O   UNL     1      -1.181  -0.526  24.987  0.00  0.00    -0.275 OA
ATOM     14  C   UNL     1      -4.406   1.428  24.714  0.00  0.00    +0.251 C 
ATOM     15  O   UNL     1      -5.191   1.174  24.688  0.00  0.00    -0.270 OA
ENDROOT
BRANCH  14  16
ATOM     16  C   UNL     1      -4.231   2.233  24.678  0.00  0.00    +0.073 A 
ATOM     17  C   UNL     1      -4.197   2.679  25.372  0.00  0.00    +0.103 A 
ATOM     18  N   UNL     1      -4.023   3.485  25.336  0.00  0.00    -0.242 NA
ATOM     19  C   UNL     1      -3.882   3.844  24.606  0.00  0.00    +0.099 A 
ATOM     20  C   UNL     1      -3.917   3.398  23.914  0.00  0.00    +0.021 A 
ATOM     21  C   UNL     1      -4.091   2.593  23.949  0.00  0.00    +0.008 A 
ENDBRANCH  14  16
BRANCH   5   3
ATOM      3  C   UNL     1      -3.535  -1.288  24.910  0.00  0.00    +0.337 C 
ATOM      4  O   UNL     1      -3.593  -1.664  25.642  0.00  0.00    -0.248 OA
BRANCH   3   2
ATOM      1  C   UNL     1      -3.969  -2.476  24.247  0.00  0.00    +0.256 C 
ATOM      2  O   UNL     1      -3.651  -1.715  24.215  0.00  0.00    -0.443 OA
ENDBRANCH   3   2
ENDBRANCH   5   3
TORSDOF 3
ENDMDL
MODEL 4
REMARK VINA RESULT:      -8.7      2.136      2.513
REMARK  Name = 
REMARK  3 active torsions:
REMARK  status: ('A' for Active; 'I' for Inactive)
REMARK    1  A    between atoms: O_2  and  C_3
REMARK    2  A    between atoms: C_3  and  C_5
REMARK    3  A    between atoms: C_14  and  C_16
REMARK                            x       y       z     vdW  Elec       q    Type
REMARK                         _______ _______ _______ _____ _____    ______ ____
ROOT
ATOM      5  C   UNL     1      -2.275   2.888  25.127  0.00  0.00    +0.195 C 
ATOM      6  C   UNL     1      -1.633   2.430  25.370  0.00  0.00    +0.125 C 
ATOM      7  N   UNL     1      -1.596   1.632  25.164  0.00  0.00    -0.272 N 
ATOM      8  C   UNL     1      -2.200   1.292  24.716  0.00  0.00    +0.115 C 
ATOM      9  C   UNL     1      -2.841   1.752  24.473  0.00  0.00    +0.115 C 
ATOM     10  N   UNL     1      -2.878   2.550  24.679  0.00  0.00    -0.268 N 
ATOM     11  C   UNL     1      -3.519   3.009  24.436  0.00  0.00    +0.227 C 
ATOM     12  C   UNL     1      -3.556   3.808  24.642  0.00  0.00    +0.095 C 
ATOM     13  O   UNL     1      -4.123   2.670  23.988  0.00  0.00    -0.275 OA
ATOM     14  C   UNL     1      -0.955   1.172  25.407  0.00  0.00    +0.251 C 
ATOM     15  O   UNL     1      -0.351   1.511  25.855  0.00  0.00    -0.270 OA
ENDROOT
BRANCH  14  16
ATOM     16  C   UNL     1      -0.918   0.375  25.201  0.00  0.00    +0.073 A 
ATOM     17  C   UNL     1      -0.548   0.146  24.500  0.00  0.00    +0.103 A 
ATOM     18  N   UNL     1      -0.511  -0.652  24.294  0.00  0.00    -0.242 NA
ATOM     19  C   UNL     1      -0.844  -1.221  24.790  0.00  0.00    +0.099 A 
ATOM     20  C   UNL     1      -1.214  -0.993  25.490  0.00  0.00    +0.021 A 
ATOM     21  C   UNL     1      -1.251  -0.195  25.696  0.00  0.00    +0.008 A 
ENDBRANCH  14  16
BRANCH   5   3
ATOM      3  C   UNL     1      -2.312   3.688  25.333  0.00  0.00    +0.337 C 
ATOM      4  O   UNL     1      -2.776   3.927  25.971  0.00  0.00    -0.248 OA
BRANCH   3   2
ATOM      1  C   UNL     1      -1.685   4.968  25.244  0.00  0.00    +0.256 C 
ATOM      2  O   UNL     1      -1.884   4.245  24.900  0.00  0.00    -0.443 OA
ENDBRANCH   3   2
ENDBRANCH   5   3
TORSDOF 3
ENDMDL
MODEL 5
REMARK VINA RESULT:      -8.6      2.240      2.836
REMARK  Name = 
REMARK  3 active torsions:
REMARK  status: ('A' for Active; 'I' for Inactive)
REMARK    1  A    between atoms: O_2  and  C_3
REMARK    2  A    between atoms: C_3  and  C_5
REMARK    3  A    between atoms: C_14  and  C_16
REMARK                            x       y       z     vdW  Elec       q    Type
REMARK                         _______ _______ _______ _____ _____    ______ ____
ROOT
ATOM      5  C   UNL     1      -1.065   1.336  25.187  0.00  0.00    +0.195 C 
ATOM      6  C   UNL     1      -1.073   0.554  25.450  0.00  0.00    +0.125 C 
ATOM      7  N   UNL     1      -1.677   0.046  25.213  0.00  0.00    -0.272 N 
ATOM      8  C   UNL     1      -2.274   0.319  24.712  0.00  0.00    +0.115 C 
ATOM      9  C   UNL     1      -2.265   1.101  24.449  0.00  0.00    +0.115 C 
ATOM     10  N   UNL     1      -1.660   1.610  24.687  0.00  0.00    -0.268 N 
ATOM     11  C   UNL     1      -1.652   2.391  24.424  0.00  0.00    +0.227 C 
ATOM     12  C   UNL     1      -1.046   2.900  24.662  0.00  0.00    +0.095 C 
ATOM     13  O   UNL     1      -2.248   2.665  23.923  0.00  0.00    -0.275 OA
ATOM     14  C   UNL     1      -1.686  -0.736  25.475  0.00  0.00    +0.251 C 
ATOM     15  O   UNL     1      -1.090  -1.010  25.976  0.00  0.00    -0.270 OA
ENDROOT
BRANCH  14  16
ATOM     16  C   UNL     1      -2.290  -1.244  25.238  0.00  0.00    +0.073 A 
ATOM     17  C   UNL     1      -2.172  -1.757  24.602  0.00  0.00    +0.103 A 
ATOM     18  N   UNL     1      -2.777  -2.266  24.364  0.00  0.00    -0.242 NA
ATOM     19  C   UNL     1      -3.500  -2.261  24.762  0.00  0.00    +0.099 A 
ATOM     20  C   UNL     1      -3.618  -1.749  25.397  0.00  0.00    +0.021 A 
ATOM     21  C   UNL     1      -3.013  -1.240  25.635  0.00  0.00    +0.008 A 
ENDBRANCH  14  16
BRANCH   5   3
ATOM      3  C   UNL     1      -0.459   1.845  25.425  0.00  0.00    +0.337 C 
ATOM      4  O   UNL     1       0.190   1.972  24.932  0.00  0.00    -0.248 OA
BRANCH   3   2
ATOM      1  C   UNL     1       0.179   2.526  26.507  0.00  0.00    +0.256 C 
ATOM      2  O   UNL     1      -0.505   2.227  26.154  0.00  0.00    -0.443 OA
ENDBRANCH   3   2
ENDBRANCH   5   3
TORSDOF 3
ENDMDL
