MODEL 1
REMARK VINA RESULT:     -15.0      0.000      0.000
REMARK  Name = 
REMARK  3 active torsions:
REMARK  status: ('A' for Active; 'I' for Inactive)
REMARK    1  A    between atoms: O_2  and  C_3
REMARK    2  A    between atoms: C_8  and  N_9
REMARK    3  A    between atoms: C_19  and  C_26
REMARK                            x       y       z     vdW  Elec       q    Type
REMARK                         _______ _______ _______ _____ _____    ______ ____
ROOT
ATOM      9  N   UNL     1      -2.859   1.658  24.841  0.00  0.00    -0.159 NA
ATOM     10  C   UNL     1      -2.072   1.818  25.031  0.00  0.00    +0.328 C 
ATOM     11  O   UNL     1      -1.805   2.598  25.059  0.00  0.00    -0.250 OA
ATOM     12  N   UNL     1      -1.553   1.198  25.195  0.00  0.00    -0.262 N 
ATOM     13  C   UNL     1      -0.840   0.810  25.395  0.00  0.00    +0.097 C 
ATOM     14  C   UNL     1      -1.148  -0.128  25.365  0.00  0.00    +0.043 C 
ATOM     15  C   UNL     1      -1.241  -0.937  25.383  0.00  0.00    +0.011 C 
ATOM     16  C   UNL     1      -1.637  -0.372  25.254  0.00  0.00    +0.058 C 
ATOM     17  C   UNL     1      -1.324   0.529  25.287  0.00  0.00    +0.101 C 
ATOM     18  C   UNL     1      -2.493  -0.129  25.025  0.00  0.00    +0.041 A 
ATOM     19  C   UNL     1      -3.230  -0.460  24.856  0.00  0.00    +0.013 A 
ATOM     20  C   UNL     1      -3.868   0.028  24.669  0.00  0.00    +0.006 A 
ATOM     21  C   UNL     1      -3.770   0.847  24.652  0.00  0.00    +0.061 A 
ATOM     22  C   UNL     1      -3.034   1.178  24.821  0.00  0.00    +0.261 A 
ATOM     23  O   UNL     1      -3.421   1.893  24.687  0.00  0.00    -0.267 OA
ATOM     24  N   UNL     1      -2.396   0.690  25.008  0.00  0.00    -0.299 N 
ATOM     25  C   UNL     1      -2.040   0.135  25.126  0.00  0.00    +0.110 C 
ENDROOT
BRANCH   9   8
ATOM      3  C   UNL     1      -3.414   2.597  23.917  0.00  0.00    +0.154 A 
ATOM      4  C   UNL     1      -3.932   3.218  23.753  0.00  0.00    +0.038 A 
ATOM      5  C   UNL     1      -4.414   3.520  24.350  0.00  0.00    +0.003 A 
ATOM      6  C   UNL     1      -4.378   3.202  25.111  0.00  0.00    +0.002 A 
ATOM      7  C   UNL     1      -3.860   2.582  25.274  0.00  0.00    +0.020 A 
ATOM      8  C   UNL     1      -3.378   2.279  24.678  0.00  0.00    +0.109 A 
BRANCH   3   2
ATOM      1  C   UNL     1      -2.970   2.609  22.559  0.00  0.00    +0.253 C 
ATOM      2  O   UNL     1      -2.932   2.294  23.320  0.00  0.00    -0.470 OA
ENDBRANCH   3   2
ENDBRANCH   9   8
BRANCH  19  26
ATOM     26  C   UNL     1      -3.327  -1.279  24.873  0.00  0.00    +0.020 A 
ATOM     27  C   UNL     1      -3.294  -1.714  24.173  0.00  0.00    +0.003 A 
ATOM     28  C   UNL     1      -3.392  -2.533  24.190  0.00  0.00    +0.021 A 
ATOM     29  C   UNL     1      -3.523  -2.918  24.908  0.00  0.00    +0.099 A 
ATOM     30  N   UNL     1      -3.556  -2.484  25.608  0.00  0.00    -0.242 NA
ATOM     31  C   UNL     1      -3.459  -1.664  25.591  0.00  0.00    +0.099 A 
ENDBRANCH  19  26
TORSDOF 3
ENDMDL
MODEL 2
REMARK VINA RESULT:     -14.5      1.433      3.947
REMARK  Name = 
REMARK  3 active torsions:
REMARK  status: ('A' for Active; 'I' for Inactive)
REMARK    1  A    between atoms: O_2  and  C_3
REMARK    2  A    between atoms: C_8  and  N_9
REMARK    3  A    between atoms: C_19  and  C_26
REMARK                            x       y       z     vdW  Elec       q    Type
REMARK                         _______ _______ _______ _____ _____    ______ ____
ROOT
ATOM      9  N   UNL     1      -3.379  -0.028  24.203  0.00  0.00    -0.159 NA
ATOM     10  C   UNL     1      -2.857   0.254  23.630  0.00  0.00    +0.328 C 
ATOM     11  O   UNL     1      -2.338  -0.264  23.252  0.00  0.00    -0.250 OA
ATOM     12  N   UNL     1      -2.854   1.056  23.434  0.00  0.00    -0.262 N 
ATOM     13  C   UNL     1      -2.631   1.763  23.048  0.00  0.00    +0.097 C 
ATOM     14  C   UNL     1      -3.247   2.395  23.493  0.00  0.00    +0.043 C 
ATOM     15  C   UNL     1      -3.681   3.031  23.759  0.00  0.00    +0.011 C 
ATOM     16  C   UNL     1      -3.640   2.342  23.885  0.00  0.00    +0.058 C 
ATOM     17  C   UNL     1      -3.038   1.744  23.447  0.00  0.00    +0.101 C 
ATOM     18  C   UNL     1      -4.012   1.681  24.404  0.00  0.00    +0.041 A 
ATOM     19  C   UNL     1      -4.586   1.571  24.986  0.00  0.00    +0.013 A 
ATOM     20  C   UNL     1      -4.719   0.818  25.296  0.00  0.00    +0.006 A 
ATOM     21  C   UNL     1      -4.278   0.176  25.024  0.00  0.00    +0.061 A 
ATOM     22  C   UNL     1      -3.704   0.286  24.442  0.00  0.00    +0.261 A 
ATOM     23  O   UNL     1      -3.588  -0.526  24.525  0.00  0.00    -0.267 OA
ATOM     24  N   UNL     1      -3.571   1.039  24.132  0.00  0.00    -0.299 N 
ATOM     25  C   UNL     1      -3.630   1.698  24.031  0.00  0.00    +0.110 C 
ENDROOT
BRANCH   9   8
ATOM      3  C   UNL     1      -2.826  -1.125  24.933  0.00  0.00    +0.154 A 
ATOM      4  C   UNL     1      -2.829  -1.927  25.129  0.00  0.00    +0.038 A 
ATOM      5  C   UNL     1      -3.385  -2.433  24.790  0.00  0.00    +0.003 A 
ATOM      6  C   UNL     1      -3.941  -2.137  24.256  0.00  0.00    +0.002 A 
ATOM      7  C   UNL     1      -3.938  -1.336  24.060  0.00  0.00    +0.020 A 
ATOM      8  C   UNL     1      -3.382  -0.829  24.398  0.00  0.00    +0.109 A 
BRANCH   3   2
ATOM      1  C   UNL     1      -1.696  -0.920  25.781  0.00  0.00    +0.253 C 
ATOM      2  O   UNL     1      -2.270  -0.620  25.271  0.00  0.00    -0.470 OA
ENDBRANCH   3   2
ENDBRANCH   9   8
BRANCH  19  26
ATOM     26  C   UNL     1      -5.026   2.213  25.259  0.00  0.00    +0.020 A 
ATOM     27  C   UNL     1      -5.785   2.347  24.964  0.00  0.00    +0.003 A 
ATOM     28  C   UNL     1      -6.226   2.989  25.236  0.00  0.00    +0.021 A 
ATOM     29  C   UNL     1      -5.908   3.498  25.803  0.00  0.00    +0.099 A 
ATOM     30  N   UNL     1      -5.149   3.364  26.097  0.00  0.00    -0.242 NA
ATOM     31  C   UNL     1      -4.708   2.721  25.825  0.00  0.00    +0.099 A 
ENDBRANCH  19  26
TORSDOF 3
ENDMDL
MODEL 3
REMARK VINA RESULT:     -14.3      1.420      4.067
REMARK  Name = 
REMARK  3 active torsions:
REMARK  status: ('A' for Active; 'I' for Inactive)
REMARK    1  A    between atoms: O_2  and  C_3
REMARK    2  A    between atoms: C_8  and  N_9
REMARK    3  A    between atoms: C_19  and  C_26
REMARK                            x       y       z     vdW  Elec       q    Type
REMARK                         _______ _______ _______ _____ _____    ______ ____
ROOT
ATOM      9  N   UNL     1      -3.746   0.406  25.016  0.00  0.00    -0.159 NA
ATOM     10  C   UNL     1      -4.502   0.722  24.916  0.00  0.00    +0.328 C 
ATOM     11  O   UNL     1      -5.163   0.229  24.943  0.00  0.00    -0.250 OA
ATOM     12  N   UNL     1      -4.597   1.532  24.789  0.00  0.00    -0.262 N 
ATOM     13  C   UNL     1      -4.986   2.259  24.654  0.00  0.00    +0.097 C 
ATOM     14  C   UNL     1      -4.203   2.861  24.620  0.00  0.00    +0.043 C 
ATOM     15  C   UNL     1      -3.674   3.478  24.565  0.00  0.00    +0.011 C 
ATOM     16  C   UNL     1      -3.653   2.785  24.670  0.00  0.00    +0.058 C 
ATOM     17  C   UNL     1      -4.419   2.216  24.700  0.00  0.00    +0.101 C 
ATOM     18  C   UNL     1      -3.062   2.095  24.813  0.00  0.00    +0.041 A 
ATOM     19  C   UNL     1      -2.254   1.950  24.892  0.00  0.00    +0.013 A 
ATOM     20  C   UNL     1      -1.985   1.182  25.025  0.00  0.00    +0.006 A 
ATOM     21  C   UNL     1      -2.523   0.559  25.079  0.00  0.00    +0.061 A 
ATOM     22  C   UNL     1      -3.331   0.704  25.001  0.00  0.00    +0.261 A 
ATOM     23  O   UNL     1      -3.401  -0.109  25.117  0.00  0.00    -0.267 OA
ATOM     24  N   UNL     1      -3.601   1.472  24.868  0.00  0.00    -0.299 N 
ATOM     25  C   UNL     1      -3.594   2.135  24.770  0.00  0.00    +0.110 C 
ENDROOT
BRANCH   9   8
ATOM      3  C   UNL     1      -3.700  -0.929  24.507  0.00  0.00    +0.154 A 
ATOM      4  C   UNL     1      -3.606  -1.739  24.634  0.00  0.00    +0.038 A 
ATOM      5  C   UNL     1      -3.464  -2.024  25.394  0.00  0.00    +0.003 A 
ATOM      6  C   UNL     1      -3.416  -1.499  26.030  0.00  0.00    +0.002 A 
ATOM      7  C   UNL     1      -3.510  -0.689  25.903  0.00  0.00    +0.020 A 
ATOM      8  C   UNL     1      -3.652  -0.404  25.143  0.00  0.00    +0.109 A 
BRANCH   3   2
ATOM      1  C   UNL     1      -3.912  -1.170  23.115  0.00  0.00    +0.253 C 
ATOM      2  O   UNL     1      -3.843  -0.644  23.747  0.00  0.00    -0.470 OA
ENDBRANCH   3   2
ENDBRANCH   9   8
BRANCH  19  26
ATOM     26  C   UNL     1      -1.716   2.573  24.837  0.00  0.00    +0.020 A 
ATOM     27  C   UNL     1      -1.517   3.006  25.510  0.00  0.00    +0.003 A 
ATOM     28  C   UNL     1      -0.978   3.629  25.455  0.00  0.00    +0.021 A 
ATOM     29  C   UNL     1      -0.639   3.819  24.728  0.00  0.00    +0.099 A 
ATOM     30  N   UNL     1      -0.838   3.385  24.055  0.00  0.00    -0.242 NA
ATOM     31  C   UNL     1      -1.376   2.762  24.109  0.00  0.00    +0.099 A 
ENDBRANCH  19  26
TORSDOF 3
ENDMDL
MODEL 4
REMARK VINA RESULT:     -14.2      1.257      2.542
REMARK  Name = 
REMARK  3 active torsions:
REMARK  status: ('A' for Active; 'I' for Inactive)
REMARK    1  A    between atoms: O_2  and  C_3
REMARK    2  A    between atoms: C_8  and  N_9
REMARK    3  A    between atoms: C_19  and  C_26
REMARK                            x       y       z     vdW  Elec       q    Type
REMARK                         _______ _______ _______ _____ _____    ______ ____
ROOT
ATOM      9  N   UNL     1      -2.829   2.458  24.696  0.00  0.00    -0.159 NA
ATOM     10  C   UNL     1      -3.554   2.842  24.606  0.00  0.00    +0.328 C 
ATOM     11  O   UNL     1      -3.579   3.660  24.512  0.00  0.00    -0.250 OA
ATOM     12  N   UNL     1      -4.255   2.405  24.610  0.00  0.00    -0.262 N 
ATOM     13  C   UNL     1      -5.074   2.247  24.575  0.00  0.00    +0.097 C 
ATOM     14  C   UNL     1      -5.058   1.265  24.687  0.00  0.00    +0.043 C 
ATOM     15  C   UNL     1      -5.214   0.470  24.767  0.00  0.00    +0.011 C 
ATOM     16  C   UNL     1      -4.652   0.890  24.756  0.00  0.00    +0.058 C 
ATOM     17  C   UNL     1      -4.684   1.838  24.647  0.00  0.00    +0.101 C 
ATOM     18  C   UNL     1      -3.735   0.869  24.818  0.00  0.00    +0.041 A 
ATOM     19  C   UNL     1      -3.112   0.338  24.918  0.00  0.00    +0.013 A 
ATOM     20  C   UNL     1      -2.335   0.613  24.937  0.00  0.00    +0.006 A 
ATOM     21  C   UNL     1      -2.180   1.420  24.856  0.00  0.00    +0.061 A 
ATOM     22  C   UNL     1      -2.804   1.951  24.755  0.00  0.00    +0.261 A 
ATOM     23  O   UNL     1      -2.204   2.516  24.730  0.00  0.00    -0.267 OA
ATOM     24  N   UNL     1      -3.581   1.675  24.736  0.00  0.00    -0.299 N 
ATOM     25  C   UNL     1      -4.100   1.253  24.751  0.00  0.00    +0.110 C 
ENDROOT
BRANCH   9   8
ATOM      3  C   UNL     1      -1.918   3.342  25.353  0.00  0.00    +0.154 A 
ATOM      4  C   UNL     1      -1.218   3.779  25.350  0.00  0.00    +0.038 A 
ATOM      5  C   UNL     1      -0.729   3.769  24.685  0.00  0.00    +0.003 A 
ATOM      6  C   UNL     1      -0.940   3.322  24.024  0.00  0.00    +0.002 A 
ATOM      7  C   UNL     1      -1.640   2.886  24.028  0.00  0.00    +0.020 A 
ATOM      8  C   UNL     1      -2.129   2.895  24.692  0.00  0.00    +0.109 A 
BRANCH   3   2
ATOM      1  C   UNL     1      -2.220   3.833  26.661  0.00  0.00    +0.253 C 
ATOM      2  O   UNL     1      -2.407   3.352  26.018  0.00  0.00    -0.470 OA
ENDBRANCH   3   2
ENDBRANCH   9   8
BRANCH  19  26
ATOM     26  C   UNL     1      -3.266  -0.469  25.000  0.00  0.00    +0.020 A 
ATOM     27  C   UNL     1      -3.318  -0.948  24.331  0.00  0.00    +0.003 A 
ATOM     28  C   UNL     1      -3.472  -1.755  24.412  0.00  0.00    +0.021 A 
ATOM     29  C   UNL     1      -3.575  -2.082  25.162  0.00  0.00    +0.099 A 
ATOM     30  N   UNL     1      -3.523  -1.602  25.831  0.00  0.00    -0.242 NA
ATOM     31  C   UNL     1      -3.369  -0.796  25.750  0.00  0.00    +0.099 A 
ENDBRANCH  19  26
TORSDOF 3
ENDMDL
MODEL 5
REMARK VINA RESULT:     -14.2      1.041      2.184
REMARK  Name = 
REMARK  3 active torsions:
REMARK  status: ('A' for Active; 'I' for Inactive)
REMARK    1  A    between atoms: O_2  and  C_3
REMARK    2  A    between atoms: C_8  and  N_9
REMARK    3  A    between atoms: C_19  and  C_26
REMARK                            x       y       z     vdW  Elec       q    Type
REMARK                         _______ _______ _______ _____ _____    ______ ____
ROOT
ATOM      9  N   UNL     1      -3.795   1.664  24.811  0.00  0.00    -0.159 NA
ATOM     10  C   UNL     1      -4.507   1.271  24.672  0.00  0.00    +0.328 C 
ATOM     11  O   UNL     1      -5.207   1.701  24.594  0.00  0.00    -0.250 OA
ATOM     12  N   UNL     1      -4.520   0.448  24.610  0.00  0.00    -0.262 N 
ATOM     13  C   UNL     1      -4.829  -0.321  24.506  0.00  0.00    +0.097 C 
ATOM     14  C   UNL     1      -3.998  -0.848  24.597  0.00  0.00    +0.043 C 
ATOM     15  C   UNL     1      -3.416  -1.415  24.647  0.00  0.00    +0.011 C 
ATOM     16  C   UNL     1      -3.464  -0.716  24.690  0.00  0.00    +0.058 C 
ATOM     17  C   UNL     1      -4.276  -0.221  24.600  0.00  0.00    +0.101 C 
ATOM     18  C   UNL     1      -2.952   0.035  24.824  0.00  0.00    +0.041 A 
ATOM     19  C   UNL     1      -2.171   0.261  24.962  0.00  0.00    +0.013 A 
ATOM     20  C   UNL     1      -1.982   1.059  25.049  0.00  0.00    +0.006 A 
ATOM     21  C   UNL     1      -2.575   1.632  24.998  0.00  0.00    +0.061 A 
ATOM     22  C   UNL     1      -3.356   1.405  24.860  0.00  0.00    +0.261 A 
ATOM     23  O   UNL     1      -3.506   2.215  24.896  0.00  0.00    -0.267 OA
ATOM     24  N   UNL     1      -3.544   0.607  24.773  0.00  0.00    -0.299 N 
ATOM     25  C   UNL     1      -3.471  -0.057  24.737  0.00  0.00    +0.110 C 
ENDROOT
BRANCH   9   8
ATOM      3  C   UNL     1      -3.742   2.950  24.190  0.00  0.00    +0.154 A 
ATOM      4  C   UNL     1      -3.730   3.773  24.251  0.00  0.00    +0.038 A 
ATOM      5  C   UNL     1      -3.759   4.132  24.993  0.00  0.00    +0.003 A 
ATOM      6  C   UNL     1      -3.800   3.668  25.675  0.00  0.00    +0.002 A 
ATOM      7  C   UNL     1      -3.812   2.846  25.613  0.00  0.00    +0.020 A 
ATOM      8  C   UNL     1      -3.783   2.486  24.872  0.00  0.00    +0.109 A 
BRANCH   3   2
ATOM      1  C   UNL     1      -3.673   3.054  22.767  0.00  0.00    +0.253 C 
ATOM      2  O   UNL     1      -3.712   2.591  23.449  0.00  0.00    -0.470 OA
ENDBRANCH   3   2
ENDBRANCH   9   8
BRANCH  19  26
ATOM     26  C   UNL     1      -1.578  -0.311  25.012  0.00  0.00    +0.020 A 
ATOM     27  C   UNL     1      -1.399  -0.656  25.740  0.00  0.00    +0.003 A 
ATOM     28  C   UNL     1      -0.807  -1.228  25.791  0.00  0.00    +0.021 A 
ATOM     29  C   UNL     1      -0.393  -1.455  25.114  0.00  0.00    +0.099 A 
ATOM     30  N   UNL     1      -0.573  -1.110  24.386  0.00  0.00    -0.242 NA
ATOM     31  C   UNL     1      -1.165  -0.538  24.336  0.00  0.00    +0.099 A 
ENDBRANCH  19  26
TORSDOF 3
ENDMDL
MODEL 6
REMARK VINA RESULT:     -14.0      1.308      2.180
REMARK  Name = 
REMARK  3 active torsions:
REMARK  status: ('A' for Active; 'I' for Inactive)
REMARK    1  A    between atoms: O_2  and  C_3
REMARK    2  A    between atoms: C_8  and  N_9
REMARK    3  A    between atoms: C_19  and  C_26
REMARK                            x       y       z     vdW  Elec       q    Type
REMARK                         _______ _______ _______ _____ _____    ______ ____
ROOT
ATOM      9  N   UNL     1      -3.937   1.906  24.468  0.00  0.00    -0.159 NA
ATOM     10  C   UNL     1      -3.660   2.374  23.847  0.00  0.00    +0.328 C 
ATOM     11  O   UNL     1      -4.097   3.027  23.596  0.00  0.00    -0.250 OA
ATOM     12  N   UNL     1      -2.946   2.189  23.477  0.00  0.00    -0.262 N 
ATOM     13  C   UNL     1      -2.306   2.250  22.944  0.00  0.00    +0.097 C 
ATOM     14  C   UNL     1      -1.772   1.471  23.235  0.00  0.00    +0.043 C 
ATOM     15  C   UNL     1      -1.226   0.877  23.351  0.00  0.00    +0.011 C 
ATOM     16  C   UNL     1      -1.838   1.081  23.629  0.00  0.00    +0.058 C 
ATOM     17  C   UNL     1      -2.342   1.838  23.336  0.00  0.00    +0.101 C 
ATOM     18  C   UNL     1      -2.444   0.856  24.281  0.00  0.00    +0.041 A 
ATOM     19  C   UNL     1      -2.570   0.294  24.872  0.00  0.00    +0.013 A 
ATOM     20  C   UNL     1      -3.247   0.335  25.342  0.00  0.00    +0.006 A 
ATOM     21  C   UNL     1      -3.798   0.938  25.221  0.00  0.00    +0.061 A 
ATOM     22  C   UNL     1      -3.672   1.499  24.631  0.00  0.00    +0.261 A 
ATOM     23  O   UNL     1      -4.390   1.809  24.893  0.00  0.00    -0.267 OA
ATOM     24  N   UNL     1      -2.995   1.458  24.161  0.00  0.00    -0.299 N 
ATOM     25  C   UNL     1      -2.411   1.243  23.914  0.00  0.00    +0.110 C 
ENDROOT
BRANCH   9   8
ATOM      3  C   UNL     1      -4.681   2.703  25.391  0.00  0.00    +0.154 A 
ATOM      4  C   UNL     1      -5.395   2.890  25.761  0.00  0.00    +0.038 A 
ATOM      5  C   UNL     1      -6.077   2.465  25.578  0.00  0.00    +0.003 A 
ATOM      6  C   UNL     1      -6.046   1.853  25.024  0.00  0.00    +0.002 A 
ATOM      7  C   UNL     1      -5.333   1.667  24.655  0.00  0.00    +0.020 A 
ATOM      8  C   UNL     1      -4.650   2.092  24.838  0.00  0.00    +0.109 A 
BRANCH   3   2
ATOM      1  C   UNL     1      -4.034   3.757  26.107  0.00  0.00    +0.253 C 
ATOM      2  O   UNL     1      -3.998   3.128  25.575  0.00  0.00    -0.470 OA
ENDBRANCH   3   2
ENDBRANCH   9   8
BRANCH  19  26
ATOM     26  C   UNL     1      -2.019  -0.308  24.993  0.00  0.00    +0.020 A 
ATOM     27  C   UNL     1      -2.112  -1.034  24.613  0.00  0.00    +0.003 A 
ATOM     28  C   UNL     1      -1.561  -1.636  24.734  0.00  0.00    +0.021 A 
ATOM     29  C   UNL     1      -0.918  -1.513  25.235  0.00  0.00    +0.099 A 
ATOM     30  N   UNL     1      -0.825  -0.786  25.615  0.00  0.00    -0.242 NA
ATOM     31  C   UNL     1      -1.376  -0.184  25.494  0.00  0.00    +0.099 A 
ENDBRANCH  19  26
TORSDOF 3
ENDMDL
MODEL 7
REMARK VINA RESULT:     -13.6      1.816      3.892
REMARK  Name = 
REMARK  3 active torsions:
REMARK  status: ('A' for Active; 'I' for Inactive)
REMARK    1  A    between atoms: O_2  and  C_3
REMARK    2  A    between atoms: C_8  and  N_9
REMARK    3  A    between atoms: C_19  and  C_26
REMARK                            x       y       z     vdW  Elec       q    Type
REMARK                         _______ _______ _______ _____ _____    ______ ____
ROOT
ATOM      9  N   UNL     1      -1.091   1.273  25.248  0.00  0.00    -0.159 NA
ATOM     10  C   UNL     1      -0.469   1.771  25.463  0.00  0.00    +0.328 C 
ATOM     11  O   UNL     1       0.284   1.459  25.590  0.00  0.00    -0.250 OA
ATOM     12  N   UNL     1      -0.600   2.581  25.552  0.00  0.00    -0.262 N 
ATOM     13  C   UNL     1      -0.433   3.385  25.707  0.00  0.00    +0.097 C 
ATOM     14  C   UNL     1      -1.330   3.772  25.558  0.00  0.00    +0.043 C 
ATOM     15  C   UNL     1      -1.993   4.238  25.474  0.00  0.00    +0.011 C 
ATOM     16  C   UNL     1      -1.824   3.559  25.413  0.00  0.00    +0.058 C 
ATOM     17  C   UNL     1      -0.952   3.200  25.561  0.00  0.00    +0.101 C 
ATOM     18  C   UNL     1      -2.191   2.741  25.210  0.00  0.00    +0.041 A 
ATOM     19  C   UNL     1      -2.908   2.396  24.995  0.00  0.00    +0.013 A 
ATOM     20  C   UNL     1      -2.953   1.583  24.866  0.00  0.00    +0.006 A 
ATOM     21  C   UNL     1      -2.279   1.114  24.952  0.00  0.00    +0.061 A 
ATOM     22  C   UNL     1      -1.561   1.459  25.167  0.00  0.00    +0.261 A 
ATOM     23  O   UNL     1      -1.276   0.687  25.120  0.00  0.00    -0.267 OA
ATOM     24  N   UNL     1      -1.517   2.272  25.296  0.00  0.00    -0.299 N 
ATOM     25  C   UNL     1      -1.703   2.913  25.347  0.00  0.00    +0.110 C 
ENDROOT
BRANCH   9   8
ATOM      3  C   UNL     1      -0.599   0.177  24.475  0.00  0.00    +0.154 A 
ATOM      4  C   UNL     1      -0.467  -0.633  24.386  0.00  0.00    +0.038 A 
ATOM      5  C   UNL     1      -0.697  -1.155  24.982  0.00  0.00    +0.003 A 
ATOM      6  C   UNL     1      -1.058  -0.868  25.666  0.00  0.00    +0.002 A 
ATOM      7  C   UNL     1      -1.189  -0.059  25.754  0.00  0.00    +0.020 A 
ATOM      8  C   UNL     1      -0.960   0.464  25.160  0.00  0.00    +0.109 A 
BRANCH   3   2
ATOM      1  C   UNL     1       0.035   0.420  23.218  0.00  0.00    +0.253 C 
ATOM      2  O   UNL     1      -0.369   0.700  23.880  0.00  0.00    -0.470 OA
ENDBRANCH   3   2
ENDBRANCH   9   8
BRANCH  19  26
ATOM     26  C   UNL     1      -3.582   2.865  24.908  0.00  0.00    +0.020 A 
ATOM     27  C   UNL     1      -3.765   3.193  24.174  0.00  0.00    +0.003 A 
ATOM     28  C   UNL     1      -4.438   3.662  24.088  0.00  0.00    +0.021 A 
ATOM     29  C   UNL     1      -4.929   3.803  24.736  0.00  0.00    +0.099 A 
ATOM     30  N   UNL     1      -4.746   3.475  25.470  0.00  0.00    -0.242 NA
ATOM     31  C   UNL     1      -4.072   3.006  25.556  0.00  0.00    +0.099 A 
ENDBRANCH  19  26
TORSDOF 3
ENDMDL
