MODEL 1
REMARK VINA RESULT:     -17.6      0.000      0.000
REMARK  Name = 
REMARK  2 active torsions:
REMARK  status: ('A' for Active; 'I' for Inactive)
REMARK    1  A    between atoms: C_5  and  C_8
REMARK    2  A    between atoms: C_18  and  C_20
REMARK                            x       y       z     vdW  Elec       q    Type
REMARK                         _______ _______ _______ _____ _____    ______ ____
ROOT
ATOM      8  C   UNL     1      -4.223   0.232  24.776  0.00  0.00    +0.056 A 
ATOM      9  C   UNL     1      -4.862   0.476  25.238  0.00  0.00    +0.006 A 
ATOM     10  C   UNL     1      -5.052   1.277  25.289  0.00  0.00    +0.013 A 
ATOM     11  C   UNL     1      -4.604   1.834  24.879  0.00  0.00    +0.041 A 
ATOM     12  C   UNL     1      -4.552   2.740  24.731  0.00  0.00    +0.058 C 
ATOM     13  C   UNL     1      -4.867   3.344  24.901  0.00  0.00    +0.011 C 
ATOM     14  C   UNL     1      -4.237   3.100  24.446  0.00  0.00    +0.043 C 
ATOM     15  C   UNL     1      -3.451   3.005  23.854  0.00  0.00    +0.096 C 
ATOM     16  N   UNL     1      -3.356   2.176  23.879  0.00  0.00    -0.273 N 
ATOM     17  C   UNL     1      -3.793   2.665  24.157  0.00  0.00    +0.100 C 
ATOM     18  C   UNL     1      -2.921   1.493  23.627  0.00  0.00    +0.284 C 
ATOM     19  O   UNL     1      -2.244   1.636  23.089  0.00  0.00    -0.267 OA
ATOM     25  C   UNL     1      -4.283   2.153  24.594  0.00  0.00    +0.110 C 
ATOM     26  N   UNL     1      -3.965   1.591  24.417  0.00  0.00    -0.299 N 
ATOM     27  C   UNL     1      -3.774   0.790  24.366  0.00  0.00    +0.261 A 
ATOM     28  O   UNL     1      -2.948   0.781  23.732  0.00  0.00    -0.267 OA
ENDROOT
BRANCH   8   5
ATOM      1 CL   UNL     1      -3.462  -3.015  24.554  0.00  0.00    -0.082 Cl
ATOM      2  C   UNL     1      -3.652  -2.171  24.626  0.00  0.00    +0.058 A 
ATOM      3  C   UNL     1      -4.073  -1.809  24.016  0.00  0.00    +0.011 A 
ATOM      4  C   UNL     1      -4.263  -1.007  24.066  0.00  0.00    +0.001 A 
ATOM      5  C   UNL     1      -4.033  -0.569  24.726  0.00  0.00    +0.005 A 
ATOM      6  C   UNL     1      -3.612  -0.932  25.335  0.00  0.00    +0.001 A 
ATOM      7  C   UNL     1      -3.422  -1.733  25.286  0.00  0.00    +0.011 A 
ENDBRANCH   8   5
BRANCH  18  20
ATOM     20  C   UNL     1      -3.368   0.757  24.057  0.00  0.00    +0.199 A 
ATOM     21  C   UNL     1      -3.054   0.412  24.738  0.00  0.00    +0.045 A 
ATOM     22  C   UNL     1      -3.561  -0.197  24.969  0.00  0.00    +0.044 A 
ATOM     23  C   UNL     1      -4.186  -0.228  24.432  0.00  0.00    +0.180 A 
ATOM     24  O   UNL     1      -4.066   0.362  23.868  0.00  0.00    -0.446 OA
ENDBRANCH  18  20
TORSDOF 2
ENDMDL
MODEL 2
REMARK VINA RESULT:     -17.0      0.828      1.690
REMARK  Name = 
REMARK  2 active torsions:
REMARK  status: ('A' for Active; 'I' for Inactive)
REMARK    1  A    between atoms: C_5  and  C_8
REMARK    2  A    between atoms: C_18  and  C_20
REMARK                            x       y       z     vdW  Elec       q    Type
REMARK                         _______ _______ _______ _____ _____    ______ ____
ROOT
ATOM      8  C   UNL     1      -3.612   0.364  24.323  0.00  0.00    +0.056 A 
ATOM      9  C   UNL     1      -3.067   0.673  23.786  0.00  0.00    +0.006 A 
ATOM     10  C   UNL     1      -3.070   1.480  23.614  0.00  0.00    +0.013 A 
ATOM     11  C   UNL     1      -3.617   1.977  23.978  0.00  0.00    +0.041 A 
ATOM     12  C   UNL     1      -3.871   2.860  24.006  0.00  0.00    +0.058 C 
ATOM     13  C   UNL     1      -3.713   3.487  23.734  0.00  0.00    +0.011 C 
ATOM     14  C   UNL     1      -4.249   3.179  24.264  0.00  0.00    +0.043 C 
ATOM     15  C   UNL     1      -4.965   3.000  24.921  0.00  0.00    +0.096 C 
ATOM     16  N   UNL     1      -4.867   2.176  25.014  0.00  0.00    -0.273 N 
ATOM     17  C   UNL     1      -4.567   2.703  24.641  0.00  0.00    +0.100 C 
ATOM     18  C   UNL     1      -5.120   1.458  25.388  0.00  0.00    +0.284 C 
ATOM     19  O   UNL     1      -5.789   1.524  25.951  0.00  0.00    -0.267 OA
ATOM     25  C   UNL     1      -3.991   2.254  24.241  0.00  0.00    +0.110 C 
ATOM     26  N   UNL     1      -4.162   1.668  24.516  0.00  0.00    -0.299 N 
ATOM     27  C   UNL     1      -4.159   0.862  24.688  0.00  0.00    +0.261 A 
ATOM     28  O   UNL     1      -4.934   0.763  25.378  0.00  0.00    -0.267 OA
ENDROOT
BRANCH   8   5
ATOM      1 CL   UNL     1      -3.590  -2.902  25.036  0.00  0.00    -0.082 Cl
ATOM      2  C   UNL     1      -3.604  -2.057  24.838  0.00  0.00    +0.058 A 
ATOM      3  C   UNL     1      -3.241  -1.525  25.354  0.00  0.00    +0.011 A 
ATOM      4  C   UNL     1      -3.244  -0.717  25.182  0.00  0.00    +0.001 A 
ATOM      5  C   UNL     1      -3.609  -0.443  24.495  0.00  0.00    +0.005 A 
ATOM      6  C   UNL     1      -3.971  -0.975  23.980  0.00  0.00    +0.001 A 
ATOM      7  C   UNL     1      -3.968  -1.782  24.151  0.00  0.00    +0.011 A 
ENDBRANCH   8   5
BRANCH  18  20
ATOM     20  C   UNL     1      -4.534   0.785  25.028  0.00  0.00    +0.199 A 
ATOM     21  C   UNL     1      -4.792   0.274  24.434  0.00  0.00    +0.045 A 
ATOM     22  C   UNL     1      -4.167  -0.232  24.246  0.00  0.00    +0.044 A 
ATOM     23  C   UNL     1      -3.525  -0.034  24.725  0.00  0.00    +0.180 A 
ATOM     24  O   UNL     1      -3.752   0.595  25.208  0.00  0.00    -0.446 OA
ENDBRANCH  18  20
TORSDOF 2
ENDMDL
MODEL 3
REMARK VINA RESULT:     -16.4      1.747      3.592
REMARK  Name = 
REMARK  2 active torsions:
REMARK  status: ('A' for Active; 'I' for Inactive)
REMARK    1  A    between atoms: C_5  and  C_8
REMARK    2  A    between atoms: C_18  and  C_20
REMARK                            x       y       z     vdW  Elec       q    Type
REMARK                         _______ _______ _______ _____ _____    ______ ____
ROOT
ATOM      8  C   UNL     1      -3.759   0.133  24.270  0.00  0.00    +0.056 A 
ATOM      9  C   UNL     1      -4.429  -0.311  24.084  0.00  0.00    +0.006 A 
ATOM     10  C   UNL     1      -4.400  -1.135  24.118  0.00  0.00    +0.013 A 
ATOM     11  C   UNL     1      -3.702  -1.514  24.338  0.00  0.00    +0.041 A 
ATOM     12  C   UNL     1      -3.357  -2.356  24.467  0.00  0.00    +0.058 C 
ATOM     13  C   UNL     1      -3.535  -3.035  24.436  0.00  0.00    +0.011 C 
ATOM     14  C   UNL     1      -2.875  -2.593  24.619  0.00  0.00    +0.043 C 
ATOM     15  C   UNL     1      -1.988  -2.241  24.872  0.00  0.00    +0.096 C 
ATOM     16  N   UNL     1      -2.137  -1.422  24.802  0.00  0.00    -0.273 N 
ATOM     17  C   UNL     1      -2.494  -2.032  24.715  0.00  0.00    +0.100 C 
ATOM     18  C   UNL     1      -1.843  -0.629  24.865  0.00  0.00    +0.284 C 
ATOM     19  O   UNL     1      -1.007  -0.538  25.112  0.00  0.00    -0.267 OA
ATOM     25  C   UNL     1      -3.227  -1.709  24.486  0.00  0.00    +0.110 C 
ATOM     26  N   UNL     1      -3.032  -1.070  24.524  0.00  0.00    -0.299 N 
ATOM     27  C   UNL     1      -3.061  -0.246  24.490  0.00  0.00    +0.261 A 
ATOM     28  O   UNL     1      -2.098   0.038  24.768  0.00  0.00    -0.267 OA
ENDROOT
BRANCH   8   5
ATOM      1 CL   UNL     1      -3.869   3.470  24.113  0.00  0.00    -0.082 Cl
ATOM      2  C   UNL     1      -3.848   2.604  24.167  0.00  0.00    +0.058 A 
ATOM      3  C   UNL     1      -3.472   2.180  23.568  0.00  0.00    +0.011 A 
ATOM      4  C   UNL     1      -3.442   1.356  23.602  0.00  0.00    +0.001 A 
ATOM      5  C   UNL     1      -3.788   0.957  24.235  0.00  0.00    +0.005 A 
ATOM      6  C   UNL     1      -4.165   1.381  24.834  0.00  0.00    +0.001 A 
ATOM      7  C   UNL     1      -4.195   2.205  24.800  0.00  0.00    +0.011 A 
ENDBRANCH   8   5
BRANCH  18  20
ATOM     20  C   UNL     1      -2.596  -0.079  24.623  0.00  0.00    +0.199 A 
ATOM     21  C   UNL     1      -3.049   0.294  25.202  0.00  0.00    +0.045 A 
ATOM     22  C   UNL     1      -3.647   0.719  24.821  0.00  0.00    +0.044 A 
ATOM     23  C   UNL     1      -3.561   0.607  24.009  0.00  0.00    +0.180 A 
ATOM     24  O   UNL     1      -2.911   0.113  23.887  0.00  0.00    -0.446 OA
ENDBRANCH  18  20
TORSDOF 2
ENDMDL
MODEL 4
REMARK VINA RESULT:     -15.2      2.237      3.789
REMARK  Name = 
REMARK  2 active torsions:
REMARK  status: ('A' for Active; 'I' for Inactive)
REMARK    1  A    between atoms: C_5  and  C_8
REMARK    2  A    between atoms: C_18  and  C_20
REMARK                            x       y       z     vdW  Elec       q    Type
REMARK                         _______ _______ _______ _____ _____    ______ ____
ROOT
ATOM      8  C   UNL     1      -3.549   3.466  25.291  0.00  0.00    +0.056 A 
ATOM      9  C   UNL     1      -4.172   3.844  25.679  0.00  0.00    +0.006 A 
ATOM     10  C   UNL     1      -4.903   3.469  25.748  0.00  0.00    +0.013 A 
ATOM     11  C   UNL     1      -5.012   2.716  25.429  0.00  0.00    +0.041 A 
ATOM     12  C   UNL     1      -5.655   2.066  25.338  0.00  0.00    +0.058 C 
ATOM     13  C   UNL     1      -6.325   1.927  25.498  0.00  0.00    +0.011 C 
ATOM     14  C   UNL     1      -5.708   1.558  25.115  0.00  0.00    +0.043 C 
ATOM     15  C   UNL     1      -5.096   0.957  24.624  0.00  0.00    +0.096 C 
ATOM     16  N   UNL     1      -4.409   1.431  24.617  0.00  0.00    -0.273 N 
ATOM     17  C   UNL     1      -5.077   1.474  24.862  0.00  0.00    +0.100 C 
ATOM     18  C   UNL     1      -3.598   1.521  24.386  0.00  0.00    +0.284 C 
ATOM     19  O   UNL     1      -3.239   0.852  23.948  0.00  0.00    -0.267 OA
ATOM     25  C   UNL     1      -5.030   2.231  25.205  0.00  0.00    +0.110 C 
ATOM     26  N   UNL     1      -4.390   2.339  25.040  0.00  0.00    -0.299 N 
ATOM     27  C   UNL     1      -3.659   2.714  24.971  0.00  0.00    +0.261 A 
ATOM     28  O   UNL     1      -3.083   2.020  24.449  0.00  0.00    -0.267 OA
ENDROOT
BRANCH   8   5
ATOM      1 CL   UNL     1      -0.594   4.999  24.998  0.00  0.00    -0.082 Cl
ATOM      2  C   UNL     1      -1.355   4.592  25.086  0.00  0.00    +0.058 A 
ATOM      3  C   UNL     1      -1.977   4.808  24.588  0.00  0.00    +0.011 A 
ATOM      4  C   UNL     1      -2.709   4.432  24.656  0.00  0.00    +0.001 A 
ATOM      5  C   UNL     1      -2.818   3.842  25.222  0.00  0.00    +0.005 A 
ATOM      6  C   UNL     1      -2.196   3.627  25.720  0.00  0.00    +0.001 A 
ATOM      7  C   UNL     1      -1.465   4.002  25.652  0.00  0.00    +0.011 A 
ENDBRANCH   8   5
BRANCH  18  20
ATOM     20  C   UNL     1      -3.354   2.391  24.716  0.00  0.00    +0.199 A 
ATOM     21  C   UNL     1      -3.327   3.043  24.210  0.00  0.00    +0.045 A 
ATOM     22  C   UNL     1      -3.102   3.700  24.656  0.00  0.00    +0.044 A 
ATOM     23  C   UNL     1      -2.991   3.454  25.435  0.00  0.00    +0.180 A 
ATOM     24  O   UNL     1      -3.146   2.645  25.472  0.00  0.00    -0.446 OA
ENDBRANCH  18  20
TORSDOF 2
ENDMDL
