MODEL 1
REMARK VINA RESULT:     -10.9      0.000      0.000
REMARK  Name = 
REMARK  5 active torsions:
REMARK  status: ('A' for Active; 'I' for Inactive)
REMARK    1  A    between atoms: C_4  and  C_15
REMARK    2  A    between atoms: C_6  and  C_8
REMARK    3  A    between atoms: C_22  and  C_23
REMARK    4  A    between atoms: C_23  and  N_24
REMARK    5  A    between atoms: C_25  and  C_27
REMARK                            x       y       z     vdW  Elec       q    Type
REMARK                         _______ _______ _______ _____ _____    ______ ____
ROOT
ATOM     15  C   UNL     1      -0.379  -0.435  24.155  0.00  0.00    +0.056 C 
ATOM     16  C   UNL     1       0.037  -1.023  23.861  0.00  0.00    +0.078 C 
ATOM     17  N   UNL     1       0.161  -0.219  23.719  0.00  0.00    -0.272 NA
ATOM     18  C   UNL     1      -0.566   0.307  24.261  0.00  0.00    +0.072 C 
ATOM     19  C   UNL     1      -0.840   0.871  24.446  0.00  0.00    +0.018 C 
ATOM     20  C   UNL     1      -0.251   0.352  24.012  0.00  0.00    +0.010 C 
ATOM     21  C   UNL     1       0.344   0.771  23.521  0.00  0.00    +0.018 C 
ATOM     22  C   UNL     1       0.777   0.223  23.211  0.00  0.00    +0.079 C 
ENDROOT
BRANCH  15   4
ATOM      1  C   UNL     1      -1.443  -0.706  26.795  0.00  0.00    +0.074 C 
ATOM      2  C   UNL     1      -1.537  -0.765  25.977  0.00  0.00    +0.139 A 
ATOM      3  N   UNL     1      -0.912  -0.571  25.475  0.00  0.00    -0.235 NA
ATOM      4  C   UNL     1      -1.006  -0.629  24.658  0.00  0.00    +0.063 A 
ATOM      5  C   UNL     1      -1.724  -0.881  24.342  0.00  0.00    +0.034 A 
ATOM      6  C   UNL     1      -2.349  -1.075  24.843  0.00  0.00    +0.084 A 
ATOM      7  N   UNL     1      -2.256  -1.017  25.661  0.00  0.00    -0.231 NA
BRANCH   6   8
ATOM      8  C   UNL     1      -3.069  -1.328  24.528  0.00  0.00    +0.024 A 
ATOM      9  C   UNL     1      -3.220  -2.134  24.440  0.00  0.00    +0.036 A 
ATOM     10 BR   UNL     1      -2.652  -2.687  24.668  0.00  0.00    -0.049 Br
ATOM     11  C   UNL     1      -3.939  -2.388  24.125  0.00  0.00    +0.007 A 
ATOM     12  C   UNL     1      -4.508  -1.834  23.898  0.00  0.00    +0.001 A 
ATOM     13  C   UNL     1      -4.356  -1.028  23.986  0.00  0.00    +0.000 A 
ATOM     14  C   UNL     1      -3.637  -0.775  24.301  0.00  0.00    +0.002 A 
ENDBRANCH   6   8
ENDBRANCH  15   4
BRANCH  22  23
ATOM     23  C   UNL     1       1.421   0.103  22.712  0.00  0.00    +0.131 C 
BRANCH  23  24
ATOM     24  N   UNL     1       2.189   0.197  22.998  0.00  0.00    -0.198 NA
ATOM     25  C   UNL     1       2.830   0.157  22.480  0.00  0.00    +0.300 C 
ATOM     26  O   UNL     1       2.703   0.024  21.676  0.00  0.00    -0.265 OA
BRANCH  25  27
ATOM     27  C   UNL     1       3.598   0.250  22.767  0.00  0.00    +0.200 A 
ATOM     28  C   UNL     1       4.050   0.939  22.729  0.00  0.00    +0.046 A 
ATOM     29  C   UNL     1       4.780   0.786  23.080  0.00  0.00    +0.044 A 
ATOM     30  C   UNL     1       4.780   0.002  23.336  0.00  0.00    +0.180 A 
ATOM     31  O   UNL     1       4.049  -0.329  23.142  0.00  0.00    -0.446 OA
ENDBRANCH  25  27
ENDBRANCH  23  24
ENDBRANCH  22  23
TORSDOF 5
ENDMDL
MODEL 2
REMARK VINA RESULT:     -10.8      2.111      2.980
REMARK  Name = 
REMARK  5 active torsions:
REMARK  status: ('A' for Active; 'I' for Inactive)
REMARK    1  A    between atoms: C_4  and  C_15
REMARK    2  A    between atoms: C_6  and  C_8
REMARK    3  A    between atoms: C_22  and  C_23
REMARK    4  A    between atoms: C_23  and  N_24
REMARK    5  A    between atoms: C_25  and  C_27
REMARK                            x       y       z     vdW  Elec       q    Type
REMARK                         _______ _______ _______ _____ _____    ______ ____
ROOT
ATOM     15  C   UNL     1      -1.137   0.682  23.943  0.00  0.00    +0.056 C 
ATOM     16  C   UNL     1      -1.009   0.884  23.202  0.00  0.00    +0.078 C 
ATOM     17  N   UNL     1      -0.502   0.443  23.681  0.00  0.00    -0.272 NA
ATOM     18  C   UNL     1      -0.966   0.347  24.617  0.00  0.00    +0.072 C 
ATOM     19  C   UNL     1      -0.965   0.124  25.231  0.00  0.00    +0.018 C 
ATOM     20  C   UNL     1      -0.634   0.249  24.407  0.00  0.00    +0.010 C 
ATOM     21  C   UNL     1       0.152  -0.107  24.248  0.00  0.00    +0.018 C 
ATOM     22  C   UNL     1       0.316   0.070  23.524  0.00  0.00    +0.079 C 
ENDROOT
BRANCH  15   4
ATOM      1  C   UNL     1      -3.765   0.091  24.899  0.00  0.00    +0.074 C 
ATOM      2  C   UNL     1      -3.160   0.635  24.763  0.00  0.00    +0.139 A 
ATOM      3  N   UNL     1      -2.452   0.387  24.421  0.00  0.00    -0.235 NA
ATOM      4  C   UNL     1      -1.846   0.931  24.286  0.00  0.00    +0.063 A 
ATOM      5  C   UNL     1      -1.949   1.722  24.492  0.00  0.00    +0.034 A 
ATOM      6  C   UNL     1      -2.657   1.970  24.834  0.00  0.00    +0.084 A 
ATOM      7  N   UNL     1      -3.263   1.427  24.970  0.00  0.00    -0.231 NA
BRANCH   6   8
ATOM      8  C   UNL     1      -2.761   2.762  25.041  0.00  0.00    +0.024 A 
ATOM      9  C   UNL     1      -3.248   3.247  24.585  0.00  0.00    +0.036 A 
ATOM     10 BR   UNL     1      -3.632   2.940  23.923  0.00  0.00    -0.049 Br
ATOM     11  C   UNL     1      -3.353   4.039  24.792  0.00  0.00    +0.007 A 
ATOM     12  C   UNL     1      -2.969   4.346  25.455  0.00  0.00    +0.001 A 
ATOM     13  C   UNL     1      -2.482   3.862  25.910  0.00  0.00    +0.000 A 
ATOM     14  C   UNL     1      -2.377   3.069  25.704  0.00  0.00    +0.002 A 
ENDBRANCH   6   8
ENDBRANCH  15   4
BRANCH  22  23
ATOM     23  C   UNL     1       0.892  -0.022  22.942  0.00  0.00    +0.131 C 
BRANCH  23  24
ATOM     24  N   UNL     1       1.684   0.127  23.118  0.00  0.00    -0.198 NA
ATOM     25  C   UNL     1       2.255   0.076  22.525  0.00  0.00    +0.300 C 
ATOM     26  O   UNL     1       2.034  -0.123  21.755  0.00  0.00    -0.265 OA
BRANCH  25  27
ATOM     27  C   UNL     1       3.047   0.225  22.701  0.00  0.00    +0.200 A 
ATOM     28  C   UNL     1       3.439   0.944  22.604  0.00  0.00    +0.046 A 
ATOM     29  C   UNL     1       4.220   0.844  22.848  0.00  0.00    +0.044 A 
ATOM     30  C   UNL     1       4.312   0.062  23.096  0.00  0.00    +0.180 A 
ATOM     31  O   UNL     1       3.587  -0.320  23.005  0.00  0.00    -0.446 OA
ENDBRANCH  25  27
ENDBRANCH  23  24
ENDBRANCH  22  23
TORSDOF 5
ENDMDL
MODEL 3
REMARK VINA RESULT:     -10.6      2.230      2.754
REMARK  Name = 
REMARK  5 active torsions:
REMARK  status: ('A' for Active; 'I' for Inactive)
REMARK    1  A    between atoms: C_4  and  C_15
REMARK    2  A    between atoms: C_6  and  C_8
REMARK    3  A    between atoms: C_22  and  C_23
REMARK    4  A    between atoms: C_23  and  N_24
REMARK    5  A    between atoms: C_25  and  C_27
REMARK                            x       y       z     vdW  Elec       q    Type
REMARK                         _______ _______ _______ _____ _____    ______ ____
ROOT
ATOM     15  C   UNL     1      -1.062   1.503  24.273  0.00  0.00    +0.056 C 
ATOM     16  C   UNL     1      -0.884   1.690  23.539  0.00  0.00    +0.078 C 
ATOM     17  N   UNL     1      -0.549   1.078  23.981  0.00  0.00    -0.272 NA
ATOM     18  C   UNL     1      -1.005   1.094  24.925  0.00  0.00    +0.072 C 
ATOM     19  C   UNL     1      -1.071   0.850  25.528  0.00  0.00    +0.018 C 
ATOM     20  C   UNL     1      -0.729   0.901  24.700  0.00  0.00    +0.010 C 
ATOM     21  C   UNL     1      -0.113   0.309  24.500  0.00  0.00    +0.018 C 
ATOM     22  C   UNL     1       0.091   0.460  23.780  0.00  0.00    +0.079 C 
ENDROOT
BRANCH  15   4
ATOM      1  C   UNL     1      -1.775   3.707  25.948  0.00  0.00    +0.074 C 
ATOM      2  C   UNL     1      -1.996   3.060  25.487  0.00  0.00    +0.139 A 
ATOM      3  N   UNL     1      -1.419   2.606  25.111  0.00  0.00    -0.235 NA
ATOM      4  C   UNL     1      -1.640   1.958  24.650  0.00  0.00    +0.063 A 
ATOM      5  C   UNL     1      -2.436   1.764  24.564  0.00  0.00    +0.034 A 
ATOM      6  C   UNL     1      -3.013   2.218  24.940  0.00  0.00    +0.084 A 
ATOM      7  N   UNL     1      -2.793   2.866  25.402  0.00  0.00    -0.231 NA
BRANCH   6   8
ATOM      8  C   UNL     1      -3.811   2.025  24.856  0.00  0.00    +0.024 A 
ATOM      9  C   UNL     1      -4.294   2.477  24.362  0.00  0.00    +0.036 A 
ATOM     10 BR   UNL     1      -3.979   3.120  23.953  0.00  0.00    -0.049 Br
ATOM     11  C   UNL     1      -5.092   2.284  24.276  0.00  0.00    +0.007 A 
ATOM     12  C   UNL     1      -5.406   1.640  24.686  0.00  0.00    +0.001 A 
ATOM     13  C   UNL     1      -4.924   1.190  25.179  0.00  0.00    +0.000 A 
ATOM     14  C   UNL     1      -4.126   1.382  25.265  0.00  0.00    +0.002 A 
ENDBRANCH   6   8
ENDBRANCH  15   4
BRANCH  22  23
ATOM     23  C   UNL     1       0.594   0.210  23.176  0.00  0.00    +0.131 C 
BRANCH  23  24
ATOM     24  N   UNL     1       1.408   0.330  23.240  0.00  0.00    -0.198 NA
ATOM     25  C   UNL     1       1.908   0.094  22.629  0.00  0.00    +0.300 C 
ATOM     26  O   UNL     1       1.596  -0.262  21.953  0.00  0.00    -0.265 OA
BRANCH  25  27
ATOM     27  C   UNL     1       2.722   0.214  22.693  0.00  0.00    +0.200 A 
ATOM     28  C   UNL     1       3.107   0.943  22.689  0.00  0.00    +0.046 A 
ATOM     29  C   UNL     1       3.916   0.806  22.766  0.00  0.00    +0.044 A 
ATOM     30  C   UNL     1       4.032  -0.010  22.817  0.00  0.00    +0.180 A 
ATOM     31  O   UNL     1       3.294  -0.375  22.772  0.00  0.00    -0.446 OA
ENDBRANCH  25  27
ENDBRANCH  23  24
ENDBRANCH  22  23
TORSDOF 5
ENDMDL
MODEL 4
REMARK VINA RESULT:     -10.0      3.250      5.170
REMARK  Name = 
REMARK  5 active torsions:
REMARK  status: ('A' for Active; 'I' for Inactive)
REMARK    1  A    between atoms: C_4  and  C_15
REMARK    2  A    between atoms: C_6  and  C_8
REMARK    3  A    between atoms: C_22  and  C_23
REMARK    4  A    between atoms: C_23  and  N_24
REMARK    5  A    between atoms: C_25  and  C_27
REMARK                            x       y       z     vdW  Elec       q    Type
REMARK                         _______ _______ _______ _____ _____    ______ ____
ROOT
ATOM     15  C   UNL     1      -1.456   1.500  24.887  0.00  0.00    +0.056 C 
ATOM     16  C   UNL     1      -1.766   1.068  24.319  0.00  0.00    +0.078 C 
ATOM     17  N   UNL     1      -1.278   0.796  24.926  0.00  0.00    -0.272 NA
ATOM     18  C   UNL     1      -1.033   1.624  25.521  0.00  0.00    +0.072 C 
ATOM     19  C   UNL     1      -0.724   1.883  26.035  0.00  0.00    +0.018 C 
ATOM     20  C   UNL     1      -0.977   1.226  25.480  0.00  0.00    +0.010 C 
ATOM     21  C   UNL     1      -0.674   0.424  25.668  0.00  0.00    +0.018 C 
ATOM     22  C   UNL     1      -0.959  -0.035  25.127  0.00  0.00    +0.079 C 
ENDROOT
BRANCH  15   4
ATOM      1  C   UNL     1      -0.626   4.209  24.503  0.00  0.00    +0.074 C 
ATOM      2  C   UNL     1      -1.214   3.661  24.693  0.00  0.00    +0.139 A 
ATOM      3  N   UNL     1      -1.041   2.855  24.695  0.00  0.00    -0.235 NA
ATOM      4  C   UNL     1      -1.629   2.308  24.885  0.00  0.00    +0.063 A 
ATOM      5  C   UNL     1      -2.388   2.566  25.073  0.00  0.00    +0.034 A 
ATOM      6  C   UNL     1      -2.561   3.373  25.071  0.00  0.00    +0.084 A 
ATOM      7  N   UNL     1      -1.974   3.921  24.881  0.00  0.00    -0.231 NA
BRANCH   6   8
ATOM      8  C   UNL     1      -3.321   3.633  25.260  0.00  0.00    +0.024 A 
ATOM      9  C   UNL     1      -3.892   3.699  24.668  0.00  0.00    +0.036 A 
ATOM     10 BR   UNL     1      -3.703   3.505  23.889  0.00  0.00    -0.049 Br
ATOM     11  C   UNL     1      -4.653   3.959  24.855  0.00  0.00    +0.007 A 
ATOM     12  C   UNL     1      -4.842   4.153  25.635  0.00  0.00    +0.001 A 
ATOM     13  C   UNL     1      -4.271   4.087  26.226  0.00  0.00    +0.000 A 
ATOM     14  C   UNL     1      -3.510   3.827  26.039  0.00  0.00    +0.002 A 
ENDBRANCH   6   8
ENDBRANCH  15   4
BRANCH  22  23
ATOM     23  C   UNL     1      -0.970  -0.819  24.875  0.00  0.00    +0.131 C 
BRANCH  23  24
ATOM     24  N   UNL     1      -1.690  -1.210  24.773  0.00  0.00    -0.198 NA
ATOM     25  C   UNL     1      -1.704  -2.030  24.686  0.00  0.00    +0.300 C 
ATOM     26  O   UNL     1      -1.001  -2.460  24.701  0.00  0.00    -0.265 OA
BRANCH  25  27
ATOM     27  C   UNL     1      -2.424  -2.421  24.584  0.00  0.00    +0.200 A 
ATOM     28  C   UNL     1      -3.064  -2.403  25.105  0.00  0.00    +0.046 A 
ATOM     29  C   UNL     1      -3.665  -2.869  24.786  0.00  0.00    +0.044 A 
ATOM     30  C   UNL     1      -3.397  -3.175  24.068  0.00  0.00    +0.180 A 
ATOM     31  O   UNL     1      -2.630  -2.898  23.944  0.00  0.00    -0.446 OA
ENDBRANCH  25  27
ENDBRANCH  23  24
ENDBRANCH  22  23
TORSDOF 5
ENDMDL
MODEL 5
REMARK VINA RESULT:      -9.9      2.601      3.838
REMARK  Name = 
REMARK  5 active torsions:
REMARK  status: ('A' for Active; 'I' for Inactive)
REMARK    1  A    between atoms: C_4  and  C_15
REMARK    2  A    between atoms: C_6  and  C_8
REMARK    3  A    between atoms: C_22  and  C_23
REMARK    4  A    between atoms: C_23  and  N_24
REMARK    5  A    between atoms: C_25  and  C_27
REMARK                            x       y       z     vdW  Elec       q    Type
REMARK                         _______ _______ _______ _____ _____    ______ ____
ROOT
ATOM     15  C   UNL     1      -0.760   0.230  24.905  0.00  0.00    +0.056 C 
ATOM     16  C   UNL     1      -0.948   0.679  25.512  0.00  0.00    +0.078 C 
ATOM     17  N   UNL     1      -0.534   0.918  24.839  0.00  0.00    -0.272 NA
ATOM     18  C   UNL     1      -0.446   0.080  24.215  0.00  0.00    +0.072 C 
ATOM     19  C   UNL     1      -0.238  -0.197  23.662  0.00  0.00    +0.018 C 
ATOM     20  C   UNL     1      -0.353   0.472  24.247  0.00  0.00    +0.010 C 
ATOM     21  C   UNL     1      -0.017   1.249  24.017  0.00  0.00    +0.018 C 
ATOM     22  C   UNL     1      -0.182   1.723  24.592  0.00  0.00    +0.079 C 
ENDROOT
BRANCH  15   4
ATOM      1  C   UNL     1      -0.141  -2.521  25.374  0.00  0.00    +0.074 C 
ATOM      2  C   UNL     1      -0.685  -1.936  25.167  0.00  0.00    +0.139 A 
ATOM      3  N   UNL     1      -0.451  -1.146  25.139  0.00  0.00    -0.235 NA
ATOM      4  C   UNL     1      -0.995  -0.561  24.933  0.00  0.00    +0.063 A 
ATOM      5  C   UNL     1      -1.773  -0.766  24.754  0.00  0.00    +0.034 A 
ATOM      6  C   UNL     1      -2.008  -1.556  24.782  0.00  0.00    +0.084 A 
ATOM      7  N   UNL     1      -1.464  -2.141  24.989  0.00  0.00    -0.231 NA
BRANCH   6   8
ATOM      8  C   UNL     1      -2.787  -1.763  24.604  0.00  0.00    +0.024 A 
ATOM      9  C   UNL     1      -3.372  -1.701  25.183  0.00  0.00    +0.036 A 
ATOM     10 BR   UNL     1      -3.178  -1.434  25.938  0.00  0.00    -0.049 Br
ATOM     11  C   UNL     1      -4.151  -1.907  25.005  0.00  0.00    +0.007 A 
ATOM     12  C   UNL     1      -4.345  -2.175  24.248  0.00  0.00    +0.001 A 
ATOM     13  C   UNL     1      -3.760  -2.236  23.671  0.00  0.00    +0.000 A 
ATOM     14  C   UNL     1      -2.980  -2.030  23.848  0.00  0.00    +0.002 A 
ENDBRANCH   6   8
ENDBRANCH  15   4
BRANCH  22  23
ATOM     23  C   UNL     1      -0.094   2.504  24.843  0.00  0.00    +0.131 C 
BRANCH  23  24
ATOM     24  N   UNL     1      -0.752   2.999  24.889  0.00  0.00    -0.198 NA
ATOM     25  C   UNL     1      -0.665   3.775  25.155  0.00  0.00    +0.300 C 
ATOM     26  O   UNL     1       0.080   4.056  25.373  0.00  0.00    -0.265 OA
BRANCH  25  27
ATOM     27  C   UNL     1      -1.322   4.271  25.202  0.00  0.00    +0.200 A 
ATOM     28  C   UNL     1      -1.343   5.070  24.999  0.00  0.00    +0.046 A 
ATOM     29  C   UNL     1      -2.108   5.348  25.131  0.00  0.00    +0.044 A 
ATOM     30  C   UNL     1      -2.561   4.720  25.417  0.00  0.00    +0.180 A 
ATOM     31  O   UNL     1      -2.075   4.055  25.460  0.00  0.00    -0.446 OA
ENDBRANCH  25  27
ENDBRANCH  23  24
ENDBRANCH  22  23
TORSDOF 5
ENDMDL
MODEL 6
REMARK VINA RESULT:      -9.6      1.455      2.076
REMARK  Name = 
REMARK  5 active torsions:
REMARK  status: ('A' for Active; 'I' for Inactive)
REMARK    1  A    between atoms: C_4  and  C_15
REMARK    2  A    between atoms: C_6  and  C_8
REMARK    3  A    between atoms: C_22  and  C_23
REMARK    4  A    between atoms: C_23  and  N_24
REMARK    5  A    between atoms: C_25  and  C_27
REMARK                            x       y       z     vdW  Elec       q    Type
REMARK                         _______ _______ _______ _____ _____    ______ ____
ROOT
ATOM     15  C   UNL     1      -2.007   0.765  24.400  0.00  0.00    +0.056 C 
ATOM     16  C   UNL     1      -1.421   0.535  24.857  0.00  0.00    +0.078 C 
ATOM     17  N   UNL     1      -1.366   1.059  24.222  0.00  0.00    -0.272 NA
ATOM     18  C   UNL     1      -2.329   1.158  23.818  0.00  0.00    +0.072 C 
ATOM     19  C   UNL     1      -2.736   1.416  23.378  0.00  0.00    +0.018 C 
ATOM     20  C   UNL     1      -1.945   1.280  23.778  0.00  0.00    +0.010 C 
ATOM     21  C   UNL     1      -1.262   1.714  23.439  0.00  0.00    +0.018 C 
ATOM     22  C   UNL     1      -0.660   1.514  23.864  0.00  0.00    +0.079 C 
ENDROOT
BRANCH  15   4
ATOM      1  C   UNL     1      -4.685   1.134  25.328  0.00  0.00    +0.074 C 
ATOM      2  C   UNL     1      -4.095   0.643  25.027  0.00  0.00    +0.139 A 
ATOM      3  N   UNL     1      -3.347   0.950  24.864  0.00  0.00    -0.235 NA
ATOM      4  C   UNL     1      -2.756   0.458  24.563  0.00  0.00    +0.063 A 
ATOM      5  C   UNL     1      -2.914  -0.339  24.423  0.00  0.00    +0.034 A 
ATOM      6  C   UNL     1      -3.662  -0.645  24.586  0.00  0.00    +0.084 A 
ATOM      7  N   UNL     1      -4.253  -0.155  24.887  0.00  0.00    -0.231 NA
BRANCH   6   8
ATOM      8  C   UNL     1      -3.821  -1.443  24.447  0.00  0.00    +0.024 A 
ATOM      9  C   UNL     1      -3.620  -2.008  25.014  0.00  0.00    +0.036 A 
ATOM     10 BR   UNL     1      -3.262  -1.775  25.719  0.00  0.00    -0.049 Br
ATOM     11  C   UNL     1      -3.779  -2.806  24.875  0.00  0.00    +0.007 A 
ATOM     12  C   UNL     1      -4.138  -3.038  24.169  0.00  0.00    +0.001 A 
ATOM     13  C   UNL     1      -4.338  -2.474  23.603  0.00  0.00    +0.000 A 
ATOM     14  C   UNL     1      -4.179  -1.676  23.741  0.00  0.00    +0.002 A 
ENDBRANCH   6   8
ENDBRANCH  15   4
BRANCH  22  23
ATOM     23  C   UNL     1       0.151   1.636  23.950  0.00  0.00    +0.131 C 
BRANCH  23  24
ATOM     24  N   UNL     1       0.685   1.164  23.534  0.00  0.00    -0.198 NA
ATOM     25  C   UNL     1       1.490   1.343  23.550  0.00  0.00    +0.300 C 
ATOM     26  O   UNL     1       1.761   1.993  23.979  0.00  0.00    -0.265 OA
BRANCH  25  27
ATOM     27  C   UNL     1       2.025   0.872  23.135  0.00  0.00    +0.200 A 
ATOM     28  C   UNL     1       2.843   0.977  23.103  0.00  0.00    +0.046 A 
ATOM     29  C   UNL     1       3.159   0.383  22.627  0.00  0.00    +0.044 A 
ATOM     30  C   UNL     1       2.537  -0.091  22.364  0.00  0.00    +0.180 A 
ATOM     31  O   UNL     1       1.836   0.211  22.678  0.00  0.00    -0.446 OA
ENDBRANCH  25  27
ENDBRANCH  23  24
ENDBRANCH  22  23
TORSDOF 5
ENDMDL
MODEL 7
REMARK VINA RESULT:      -9.4      3.904      5.805
REMARK  Name = 
REMARK  5 active torsions:
REMARK  status: ('A' for Active; 'I' for Inactive)
REMARK    1  A    between atoms: C_4  and  C_15
REMARK    2  A    between atoms: C_6  and  C_8
REMARK    3  A    between atoms: C_22  and  C_23
REMARK    4  A    between atoms: C_23  and  N_24
REMARK    5  A    between atoms: C_25  and  C_27
REMARK                            x       y       z     vdW  Elec       q    Type
REMARK                         _______ _______ _______ _____ _____    ______ ____
ROOT
ATOM     15  C   UNL     1      -4.053   1.558  24.972  0.00  0.00    +0.056 C 
ATOM     16  C   UNL     1      -3.835   1.111  25.571  0.00  0.00    +0.078 C 
ATOM     17  N   UNL     1      -4.035   0.848  24.814  0.00  0.00    -0.272 NA
ATOM     18  C   UNL     1      -4.281   1.695  24.247  0.00  0.00    +0.072 C 
ATOM     19  C   UNL     1      -4.472   1.965  23.684  0.00  0.00    +0.018 C 
ATOM     20  C   UNL     1      -4.248   1.292  24.232  0.00  0.00    +0.010 C 
ATOM     21  C   UNL     1      -4.278   0.486  23.885  0.00  0.00    +0.018 C 
ATOM     22  C   UNL     1      -4.068   0.013  24.447  0.00  0.00    +0.079 C 
ENDROOT
BRANCH  15   4
ATOM      1  C   UNL     1      -5.571   3.904  25.575  0.00  0.00    +0.074 C 
ATOM      2  C   UNL     1      -4.848   3.545  25.403  0.00  0.00    +0.139 A 
ATOM      3  N   UNL     1      -4.812   2.731  25.273  0.00  0.00    -0.235 NA
ATOM      4  C   UNL     1      -4.089   2.373  25.101  0.00  0.00    +0.063 A 
ATOM      5  C   UNL     1      -3.403   2.827  25.058  0.00  0.00    +0.034 A 
ATOM      6  C   UNL     1      -3.439   3.641  25.188  0.00  0.00    +0.084 A 
ATOM      7  N   UNL     1      -4.161   4.000  25.360  0.00  0.00    -0.231 NA
BRANCH   6   8
ATOM      8  C   UNL     1      -2.752   4.097  25.145  0.00  0.00    +0.024 A 
ATOM      9  C   UNL     1      -2.328   4.267  25.832  0.00  0.00    +0.036 A 
ATOM     10 BR   UNL     1      -2.589   3.982  26.560  0.00  0.00    -0.049 Br
ATOM     11  C   UNL     1      -1.641   4.723  25.790  0.00  0.00    +0.007 A 
ATOM     12  C   UNL     1      -1.379   5.008  25.061  0.00  0.00    +0.001 A 
ATOM     13  C   UNL     1      -1.804   4.838  24.375  0.00  0.00    +0.000 A 
ATOM     14  C   UNL     1      -2.491   4.382  24.417  0.00  0.00    +0.002 A 
ENDBRANCH   6   8
ENDBRANCH  15   4
BRANCH  22  23
ATOM     23  C   UNL     1      -3.944  -0.783  24.620  0.00  0.00    +0.131 C 
BRANCH  23  24
ATOM     24  N   UNL     1      -3.200  -1.119  24.507  0.00  0.00    -0.198 NA
ATOM     25  C   UNL     1      -3.058  -1.896  24.745  0.00  0.00    +0.300 C 
ATOM     26  O   UNL     1      -3.661  -2.337  25.095  0.00  0.00    -0.265 OA
BRANCH  25  27
ATOM     27  C   UNL     1      -2.313  -2.233  24.632  0.00  0.00    +0.200 A 
ATOM     28  C   UNL     1      -1.630  -2.052  25.056  0.00  0.00    +0.046 A 
ATOM     29  C   UNL     1      -1.015  -2.517  24.761  0.00  0.00    +0.044 A 
ATOM     30  C   UNL     1      -1.319  -2.985  24.153  0.00  0.00    +0.180 A 
ATOM     31  O   UNL     1      -2.121  -2.809  24.073  0.00  0.00    -0.446 OA
ENDBRANCH  25  27
ENDBRANCH  23  24
ENDBRANCH  22  23
TORSDOF 5
ENDMDL
