REMARK  Name = 
REMARK  6 active torsions:
REMARK  status: ('A' for Active; 'I' for Inactive)
REMARK    1  A    between atoms: O_2  and  C_3
REMARK    2  A    between atoms: C_5  and  N_6
REMARK    3  A    between atoms: N_9  and  C_10
REMARK    4  A    between atoms: C_10  and  C_11
REMARK    5  A    between atoms: C_13  and  C_14
REMARK    6  A    between atoms: C_14  and  C_15
REMARK                            x       y       z     vdW  Elec       q    Type
REMARK                         _______ _______ _______ _____ _____    ______ ____
ROOT
ATOM     11  C   UNL     1      -0.963  -4.186   0.000  0.00  0.00    +0.170 C 
ATOM     12  O   UNL     1      -0.963  -3.361   0.000  0.00  0.00    -0.351 OA
ATOM     13  C   UNL     1      -0.178  -3.106   0.000  0.00  0.00    +0.157 C 
ATOM     26  C   UNL     1       0.307  -3.774   0.000  0.00  0.00    +0.212 C 
ATOM     27  O   UNL     1       1.132  -3.774   0.000  0.00  0.00    -0.218 OA
ATOM     28  C   UNL     1      -0.178  -4.441   0.000  0.00  0.00    +0.213 C 
ATOM     29  O   UNL     1       0.077  -5.226   0.000  0.00  0.00    -0.218 OA
ENDROOT
BRANCH  11  10
ATOM     10  C   UNL     1      -1.630  -4.671   0.000  0.00  0.00    +0.149 C 
BRANCH  10   9
ATOM      6  N   UNL     1      -2.125  -6.797   0.000  0.00  0.00    -0.161 NA
ATOM      7  C   UNL     1      -2.211  -5.976   0.000  0.00  0.00    +0.344 C 
ATOM      8  O   UNL     1      -2.965  -5.641   0.000  0.00  0.00    -0.249 OA
ATOM      9  N   UNL     1      -1.544  -5.492   0.000  0.00  0.00    -0.184 NA
BRANCH   6   5
ATOM      3  C   UNL     1      -4.214  -7.431   0.000  0.00  0.00    +0.140 A 
ATOM      4  C   UNL     1      -3.546  -6.946   0.000  0.00  0.00    +0.054 A 
ATOM      5  C   UNL     1      -2.793  -7.282   0.000  0.00  0.00    +0.078 A 
ATOM     30  C   UNL     1      -2.706  -8.102   0.000  0.00  0.00    +0.017 A 
ATOM     31  C   UNL     1      -3.374  -8.587   0.000  0.00  0.00    +0.004 A 
ATOM     32  C   UNL     1      -4.128  -8.252   0.000  0.00  0.00    +0.037 A 
BRANCH   3   2
ATOM      1  C   UNL     1      -5.635  -7.581   0.000  0.00  0.00    +0.252 C 
ATOM      2  O   UNL     1      -4.967  -7.096   0.000  0.00  0.00    -0.471 OA
ENDBRANCH   3   2
ENDBRANCH   6   5
ENDBRANCH  10   9
ENDBRANCH  11  10
BRANCH  13  14
ATOM     14  C   UNL     1       0.077  -2.321   0.000  0.00  0.00    +0.118 C 
BRANCH  14  15
ATOM     15  C   UNL     1       0.884  -2.150   0.000  0.00  0.00    +0.232 C 
ATOM     16  O   UNL     1       1.436  -2.763   0.000  0.00  0.00    -0.274 OA
ATOM     17  N   UNL     1       1.139  -1.365   0.000  0.00  0.00    -0.259 N 
ATOM     18  C   UNL     1       0.654  -0.698   0.000  0.00  0.00    +0.103 C 
ATOM     19  C   UNL     1       1.139  -0.030   0.000  0.00  0.00    +0.049 C 
ATOM     20  C   UNL     1       1.923  -0.285   0.000  0.00  0.00    -0.007 A 
ATOM     21  C   UNL     1       2.638   0.127   0.000  0.00  0.00    -0.003 A 
ATOM     22  C   UNL     1       3.352  -0.285   0.000  0.00  0.00    -0.000 A 
ATOM     23  C   UNL     1       3.352  -1.110   0.000  0.00  0.00    +0.001 A 
ATOM     24  C   UNL     1       2.638  -1.523   0.000  0.00  0.00    +0.015 A 
ATOM     25  C   UNL     1       1.923  -1.110   0.000  0.00  0.00    +0.050 A 
ENDBRANCH  14  15
ENDBRANCH  13  14
TORSDOF 6
