MODEL 1
REMARK VINA RESULT:     -11.0      0.000      0.000
REMARK  Name = 
REMARK  9 active torsions:
REMARK  status: ('A' for Active; 'I' for Inactive)
REMARK    1  A    between atoms: C_7  and  C_8
REMARK    2  A    between atoms: C_13  and  N_29
REMARK    3  A    between atoms: C_15  and  C_16
REMARK    4  A    between atoms: N_18  and  C_19
REMARK    5  A    between atoms: C_19  and  C_20
REMARK    6  A    between atoms: C_19  and  C_26
REMARK    7  A    between atoms: C_20  and  C_21
REMARK    8  A    between atoms: N_29  and  S_30
REMARK    9  A    between atoms: S_30  and  C_33
REMARK                            x       y       z     vdW  Elec       q    Type
REMARK                         _______ _______ _______ _____ _____    ______ ____
ROOT
ATOM      8  C   UNL     1      -0.962   1.538  24.254  0.00  0.00    +0.267 C 
ATOM      9  O   UNL     1      -1.325   2.257  24.072  0.00  0.00    -0.268 OA
ATOM     10  N   UNL     1      -1.400   0.932  24.603  0.00  0.00    -0.268 N 
ATOM     11  C   UNL     1      -1.037   0.214  24.784  0.00  0.00    +0.096 C 
ATOM     12  C   UNL     1      -1.475  -0.393  25.133  0.00  0.00    +0.041 C 
ATOM     13  C   UNL     1      -2.274  -0.281  25.300  0.00  0.00    +0.102 C 
ATOM     14  C   UNL     1      -2.638   0.437  25.118  0.00  0.00    +0.049 C 
ATOM     15  C   UNL     1      -2.200   1.044  24.770  0.00  0.00    +0.155 C 
ENDROOT
BRANCH   8   7
ATOM      1  C   UNL     1       0.404   2.446  24.982  0.00  0.00    +0.154 C 
ATOM      2  N   UNL     1       0.466   1.844  24.422  0.00  0.00    -0.245 N 
ATOM      3  N   UNL     1       1.167   1.553  24.097  0.00  0.00    -0.173 NA
ATOM      4  C   UNL     1       0.972   0.955  23.562  0.00  0.00    +0.081 A 
ATOM      5  C   UNL     1       1.504   0.514  23.113  0.00  0.00    +0.054 C 
ATOM      6  C   UNL     1       0.151   0.877  23.556  0.00  0.00    +0.040 A 
ATOM      7  C   UNL     1      -0.162   1.426  24.087  0.00  0.00    +0.133 A 
ENDBRANCH   8   7
BRANCH  15  16
ATOM     16  C   UNL     1      -2.563   1.762  24.588  0.00  0.00    +0.260 C 
ATOM     17  O   UNL     1      -2.474   2.089  23.835  0.00  0.00    -0.272 OA
ATOM     18  N   UNL     1      -3.013   2.154  25.158  0.00  0.00    -0.196 NA
BRANCH  18  19
ATOM     19  C   UNL     1      -3.375   2.872  24.975  0.00  0.00    +0.179 C 
BRANCH  19  26
ATOM     26  C   UNL     1      -3.039   3.580  25.232  0.00  0.00    +0.281 C 
ATOM     27  N   UNL     1      -2.953   4.210  24.706  0.00  0.00    -0.086 NA
ATOM     28  O   UNL     1      -2.790   3.660  26.014  0.00  0.00    -0.270 OA
ENDBRANCH  19  26
BRANCH  19  20
ATOM     20  C   UNL     1      -4.073   2.881  24.535  0.00  0.00    +0.064 C 
BRANCH  20  21
ATOM     21  C   UNL     1      -4.795   2.727  24.905  0.00  0.00    +0.010 A 
ATOM     22  C   UNL     1      -5.292   2.088  24.748  0.00  0.00    +0.003 A 
ATOM     23  C   UNL     1      -5.950   2.152  25.243  0.00  0.00    +0.007 A 
ATOM     24  C   UNL     1      -5.858   2.830  25.704  0.00  0.00    +0.035 A 
ATOM     25  S   UNL     1      -5.144   3.185  25.495  0.00  0.00    -0.091 S 
ENDBRANCH  20  21
ENDBRANCH  19  20
ENDBRANCH  18  19
ENDBRANCH  15  16
BRANCH  13  29
ATOM     29  N   UNL     1      -2.712  -0.887  25.648  0.00  0.00    -0.079 NA
BRANCH  29  30
ATOM     30  S   UNL     1      -3.113  -1.432  25.176  0.00  0.00    +0.082 S 
ATOM     31  O   UNL     1      -2.400  -1.814  25.010  0.00  0.00    -0.151 OA
ATOM     32  O   UNL     1      -3.825  -1.050  25.341  0.00  0.00    -0.151 OA
BRANCH  30  33
ATOM     33  C   UNL     1      -3.515  -1.976  24.703  0.00  0.00    +0.153 A 
ATOM     34  C   UNL     1      -4.101  -1.799  24.151  0.00  0.00    +0.027 A 
ATOM     35  C   UNL     1      -4.349  -2.506  23.807  0.00  0.00    +0.009 A 
ATOM     36  C   UNL     1      -3.916  -3.121  24.146  0.00  0.00    +0.037 A 
ATOM     37  S   UNL     1      -3.400  -2.793  24.700  0.00  0.00    -0.067 S 
ENDBRANCH  30  33
ENDBRANCH  29  30
ENDBRANCH  13  29
TORSDOF 9
ENDMDL
MODEL 2
REMARK VINA RESULT:     -10.6      1.847      3.836
REMARK  Name = 
REMARK  9 active torsions:
REMARK  status: ('A' for Active; 'I' for Inactive)
REMARK    1  A    between atoms: C_7  and  C_8
REMARK    2  A    between atoms: C_13  and  N_29
REMARK    3  A    between atoms: C_15  and  C_16
REMARK    4  A    between atoms: N_18  and  C_19
REMARK    5  A    between atoms: C_19  and  C_20
REMARK    6  A    between atoms: C_19  and  C_26
REMARK    7  A    between atoms: C_20  and  C_21
REMARK    8  A    between atoms: N_29  and  S_30
REMARK    9  A    between atoms: S_30  and  C_33
REMARK                            x       y       z     vdW  Elec       q    Type
REMARK                         _______ _______ _______ _____ _____    ______ ____
ROOT
ATOM      8  C   UNL     1      -1.634  -0.133  24.830  0.00  0.00    +0.267 C 
ATOM      9  O   UNL     1      -0.982   0.246  25.166  0.00  0.00    -0.268 OA
ATOM     10  N   UNL     1      -2.294   0.306  24.602  0.00  0.00    -0.268 N 
ATOM     11  C   UNL     1      -2.945  -0.073  24.267  0.00  0.00    +0.096 C 
ATOM     12  C   UNL     1      -3.606   0.366  24.039  0.00  0.00    +0.041 C 
ATOM     13  C   UNL     1      -3.615   1.184  24.147  0.00  0.00    +0.102 C 
ATOM     14  C   UNL     1      -2.963   1.563  24.482  0.00  0.00    +0.049 C 
ATOM     15  C   UNL     1      -2.303   1.125  24.710  0.00  0.00    +0.155 C 
ENDROOT
BRANCH   8   7
ATOM      1  C   UNL     1      -0.365  -1.070  23.974  0.00  0.00    +0.154 C 
ATOM      2  N   UNL     1      -1.042  -1.381  24.330  0.00  0.00    -0.245 N 
ATOM      3  N   UNL     1      -1.254  -2.179  24.353  0.00  0.00    -0.173 NA
ATOM      4  C   UNL     1      -1.968  -2.240  24.762  0.00  0.00    +0.081 A 
ATOM      5  C   UNL     1      -2.381  -2.938  24.915  0.00  0.00    +0.054 C 
ATOM      6  C   UNL     1      -2.198  -1.481  24.990  0.00  0.00    +0.040 A 
ATOM      7  C   UNL     1      -1.625  -0.951  24.723  0.00  0.00    +0.133 A 
ENDBRANCH   8   7
BRANCH  15  16
ATOM     16  C   UNL     1      -1.651   1.503  25.045  0.00  0.00    +0.260 C 
ATOM     17  O   UNL     1      -1.335   1.227  25.756  0.00  0.00    -0.272 OA
ATOM     18  N   UNL     1      -1.316   2.157  24.671  0.00  0.00    -0.196 NA
BRANCH  18  19
ATOM     19  C   UNL     1      -0.664   2.536  25.008  0.00  0.00    +0.179 C 
BRANCH  19  26
ATOM     26  C   UNL     1       0.098   2.343  24.760  0.00  0.00    +0.281 C 
ATOM     27  N   UNL     1       0.683   2.177  25.317  0.00  0.00    -0.086 NA
ATOM     28  O   UNL     1       0.276   2.316  23.954  0.00  0.00    -0.270 OA
ENDBRANCH  19  26
BRANCH  19  20
ATOM     20  C   UNL     1      -0.776   3.107  25.593  0.00  0.00    +0.064 C 
BRANCH  20  21
ATOM     21  C   UNL     1      -0.993   3.875  25.382  0.00  0.00    +0.010 A 
ATOM     22  C   UNL     1      -0.552   4.392  24.914  0.00  0.00    +0.003 A 
ATOM     23  C   UNL     1      -0.975   5.097  24.846  0.00  0.00    +0.007 A 
ATOM     24  C   UNL     1      -1.677   5.015  25.272  0.00  0.00    +0.035 A 
ATOM     25  S   UNL     1      -1.688   4.261  25.603  0.00  0.00    -0.091 S 
ENDBRANCH  20  21
ENDBRANCH  19  20
ENDBRANCH  18  19
ENDBRANCH  15  16
BRANCH  13  29
ATOM     29  N   UNL     1      -4.275   1.622  23.919  0.00  0.00    -0.079 NA
BRANCH  29  30
ATOM     30  S   UNL     1      -4.788   1.923  24.490  0.00  0.00    +0.082 S 
ATOM     31  O   UNL     1      -5.069   1.162  24.640  0.00  0.00    -0.151 OA
ATOM     32  O   UNL     1      -4.508   2.685  24.341  0.00  0.00    -0.151 OA
BRANCH  30  33
ATOM     33  C   UNL     1      -5.301   2.225  25.061  0.00  0.00    +0.153 A 
ATOM     34  C   UNL     1      -5.890   1.804  25.456  0.00  0.00    +0.027 A 
ATOM     35  C   UNL     1      -6.268   2.320  25.977  0.00  0.00    +0.009 A 
ATOM     36  C   UNL     1      -5.912   3.061  25.904  0.00  0.00    +0.037 A 
ATOM     37  S   UNL     1      -5.315   3.002  25.338  0.00  0.00    -0.067 S 
ENDBRANCH  30  33
ENDBRANCH  29  30
ENDBRANCH  13  29
TORSDOF 9
ENDMDL
MODEL 3
REMARK VINA RESULT:     -10.5      1.820      3.925
REMARK  Name = 
REMARK  9 active torsions:
REMARK  status: ('A' for Active; 'I' for Inactive)
REMARK    1  A    between atoms: C_7  and  C_8
REMARK    2  A    between atoms: C_13  and  N_29
REMARK    3  A    between atoms: C_15  and  C_16
REMARK    4  A    between atoms: N_18  and  C_19
REMARK    5  A    between atoms: C_19  and  C_20
REMARK    6  A    between atoms: C_19  and  C_26
REMARK    7  A    between atoms: C_20  and  C_21
REMARK    8  A    between atoms: N_29  and  S_30
REMARK    9  A    between atoms: S_30  and  C_33
REMARK                            x       y       z     vdW  Elec       q    Type
REMARK                         _______ _______ _______ _____ _____    ______ ____
ROOT
ATOM      8  C   UNL     1      -1.117   0.268  24.104  0.00  0.00    +0.267 C 
ATOM      9  O   UNL     1      -1.828  -0.065  23.850  0.00  0.00    -0.268 OA
ATOM     10  N   UNL     1      -1.123   0.934  24.591  0.00  0.00    -0.268 N 
ATOM     11  C   UNL     1      -0.412   1.266  24.844  0.00  0.00    +0.096 C 
ATOM     12  C   UNL     1      -0.418   1.933  25.331  0.00  0.00    +0.041 C 
ATOM     13  C   UNL     1      -1.136   2.266  25.564  0.00  0.00    +0.102 C 
ATOM     14  C   UNL     1      -1.847   1.934  25.311  0.00  0.00    +0.049 C 
ATOM     15  C   UNL     1      -1.841   1.268  24.824  0.00  0.00    +0.155 C 
ENDROOT
BRANCH   8   7
ATOM      1  C   UNL     1      -0.462  -1.312  24.649  0.00  0.00    +0.154 C 
ATOM      2  N   UNL     1      -0.099  -0.792  24.122  0.00  0.00    -0.245 N 
ATOM      3  N   UNL     1       0.630  -0.907  23.752  0.00  0.00    -0.173 NA
ATOM      4  C   UNL     1       0.780  -0.252  23.272  0.00  0.00    +0.081 A 
ATOM      5  C   UNL     1       1.448  -0.138  22.803  0.00  0.00    +0.054 C 
ATOM      6  C   UNL     1       0.143   0.268  23.346  0.00  0.00    +0.040 A 
ATOM      7  C   UNL     1      -0.399  -0.066  23.871  0.00  0.00    +0.133 A 
ENDBRANCH   8   7
BRANCH  15  16
ATOM     16  C   UNL     1      -2.552   0.936  24.570  0.00  0.00    +0.260 C 
ATOM     17  O   UNL     1      -2.650   0.729  23.777  0.00  0.00    -0.272 OA
ATOM     18  N   UNL     1      -3.164   0.810  25.108  0.00  0.00    -0.196 NA
BRANCH  18  19
ATOM     19  C   UNL     1      -3.875   0.477  24.854  0.00  0.00    +0.179 C 
BRANCH  19  26
ATOM     26  C   UNL     1      -4.040  -0.315  25.011  0.00  0.00    +0.281 C 
ATOM     27  N   UNL     1      -4.342  -0.800  24.415  0.00  0.00    -0.086 NA
ATOM     28  O   UNL     1      -3.903  -0.624  25.764  0.00  0.00    -0.270 OA
ENDBRANCH  19  26
BRANCH  19  20
ATOM     20  C   UNL     1      -4.421   0.939  24.441  0.00  0.00    +0.064 C 
BRANCH  20  21
ATOM     21  C   UNL     1      -4.926   1.446  24.852  0.00  0.00    +0.010 A 
ATOM     22  C   UNL     1      -5.399   1.242  25.497  0.00  0.00    +0.003 A 
ATOM     23  C   UNL     1      -5.811   1.917  25.733  0.00  0.00    +0.007 A 
ATOM     24  C   UNL     1      -5.592   2.537  25.235  0.00  0.00    +0.035 A 
ATOM     25  S   UNL     1      -5.045   2.246  24.691  0.00  0.00    -0.091 S 
ENDBRANCH  20  21
ENDBRANCH  19  20
ENDBRANCH  18  19
ENDBRANCH  15  16
BRANCH  13  29
ATOM     29  N   UNL     1      -1.142   2.932  26.051  0.00  0.00    -0.079 NA
BRANCH  29  30
ATOM     30  S   UNL     1      -1.256   3.681  25.724  0.00  0.00    +0.082 S 
ATOM     31  O   UNL     1      -0.492   3.662  25.412  0.00  0.00    -0.151 OA
ATOM     32  O   UNL     1      -2.019   3.701  26.036  0.00  0.00    -0.151 OA
BRANCH  30  33
ATOM     33  C   UNL     1      -1.371   4.430  25.398  0.00  0.00    +0.153 A 
ATOM     34  C   UNL     1      -0.805   4.879  24.999  0.00  0.00    +0.027 A 
ATOM     35  C   UNL     1      -1.157   5.588  24.768  0.00  0.00    +0.009 A 
ATOM     36  C   UNL     1      -1.941   5.578  25.024  0.00  0.00    +0.037 A 
ATOM     37  S   UNL     1      -2.073   4.863  25.413  0.00  0.00    -0.067 S 
ENDBRANCH  30  33
ENDBRANCH  29  30
ENDBRANCH  13  29
TORSDOF 9
ENDMDL
MODEL 4
REMARK VINA RESULT:     -10.1      1.232      4.117
REMARK  Name = 
REMARK  9 active torsions:
REMARK  status: ('A' for Active; 'I' for Inactive)
REMARK    1  A    between atoms: C_7  and  C_8
REMARK    2  A    between atoms: C_13  and  N_29
REMARK    3  A    between atoms: C_15  and  C_16
REMARK    4  A    between atoms: N_18  and  C_19
REMARK    5  A    between atoms: C_19  and  C_20
REMARK    6  A    between atoms: C_19  and  C_26
REMARK    7  A    between atoms: C_20  and  C_21
REMARK    8  A    between atoms: N_29  and  S_30
REMARK    9  A    between atoms: S_30  and  C_33
REMARK                            x       y       z     vdW  Elec       q    Type
REMARK                         _______ _______ _______ _____ _____    ______ ____
ROOT
ATOM      8  C   UNL     1      -1.057   1.076  25.380  0.00  0.00    +0.267 C 
ATOM      9  O   UNL     1      -0.928   0.280  25.553  0.00  0.00    -0.268 OA
ATOM     10  N   UNL     1      -1.774   1.317  25.051  0.00  0.00    -0.268 N 
ATOM     11  C   UNL     1      -1.902   2.113  24.878  0.00  0.00    +0.096 C 
ATOM     12  C   UNL     1      -2.620   2.353  24.548  0.00  0.00    +0.041 C 
ATOM     13  C   UNL     1      -3.208   1.797  24.391  0.00  0.00    +0.102 C 
ATOM     14  C   UNL     1      -3.080   1.000  24.563  0.00  0.00    +0.049 C 
ATOM     15  C   UNL     1      -2.363   0.760  24.893  0.00  0.00    +0.155 C 
ENDROOT
BRANCH   8   7
ATOM      1  C   UNL     1       0.399   1.384  24.377  0.00  0.00    +0.154 C 
ATOM      2  N   UNL     1       0.200   1.774  25.077  0.00  0.00    -0.245 N 
ATOM      3  N   UNL     1       0.637   2.374  25.438  0.00  0.00    -0.173 NA
ATOM      4  C   UNL     1       0.237   2.604  26.123  0.00  0.00    +0.081 A 
ATOM      5  C   UNL     1       0.478   3.188  26.652  0.00  0.00    +0.054 C 
ATOM      6  C   UNL     1      -0.446   2.146  26.184  0.00  0.00    +0.040 A 
ATOM      7  C   UNL     1      -0.469   1.633  25.538  0.00  0.00    +0.133 A 
ENDBRANCH   8   7
BRANCH  15  16
ATOM     16  C   UNL     1      -2.234  -0.036  25.066  0.00  0.00    +0.260 C 
ATOM     17  O   UNL     1      -2.021  -0.263  25.830  0.00  0.00    -0.272 OA
ATOM     18  N   UNL     1      -2.318  -0.606  24.475  0.00  0.00    -0.196 NA
BRANCH  18  19
ATOM     19  C   UNL     1      -2.189  -1.402  24.648  0.00  0.00    +0.179 C 
BRANCH  19  26
ATOM     26  C   UNL     1      -1.475  -1.759  24.443  0.00  0.00    +0.281 C 
ATOM     27  N   UNL     1      -1.061  -2.203  25.000  0.00  0.00    -0.086 NA
ATOM     28  O   UNL     1      -1.174  -1.671  23.679  0.00  0.00    -0.270 OA
ENDBRANCH  19  26
BRANCH  19  20
ATOM     20  C   UNL     1      -2.776  -1.841  25.028  0.00  0.00    +0.064 C 
BRANCH  20  21
ATOM     21  C   UNL     1      -3.362  -2.216  24.584  0.00  0.00    +0.010 A 
ATOM     22  C   UNL     1      -3.947  -1.842  24.139  0.00  0.00    +0.003 A 
ATOM     23  C   UNL     1      -4.411  -2.427  23.787  0.00  0.00    +0.007 A 
ATOM     24  C   UNL     1      -4.113  -3.161  24.015  0.00  0.00    +0.035 A 
ATOM     25  S   UNL     1      -3.465  -3.031  24.508  0.00  0.00    -0.091 S 
ENDBRANCH  20  21
ENDBRANCH  19  20
ENDBRANCH  18  19
ENDBRANCH  15  16
BRANCH  13  29
ATOM     29  N   UNL     1      -3.925   2.037  24.061  0.00  0.00    -0.079 NA
BRANCH  29  30
ATOM     30  S   UNL     1      -4.563   2.224  24.550  0.00  0.00    +0.082 S 
ATOM     31  O   UNL     1      -4.267   2.988  24.646  0.00  0.00    -0.151 OA
ATOM     32  O   UNL     1      -4.859   1.460  24.455  0.00  0.00    -0.151 OA
BRANCH  30  33
ATOM     33  C   UNL     1      -5.201   2.409  25.039  0.00  0.00    +0.153 A 
ATOM     34  C   UNL     1      -5.825   1.907  25.235  0.00  0.00    +0.027 A 
ATOM     35  C   UNL     1      -6.336   2.317  25.735  0.00  0.00    +0.009 A 
ATOM     36  C   UNL     1      -6.029   3.074  25.849  0.00  0.00    +0.037 A 
ATOM     37  S   UNL     1      -5.327   3.131  25.419  0.00  0.00    -0.067 S 
ENDBRANCH  30  33
ENDBRANCH  29  30
ENDBRANCH  13  29
TORSDOF 9
ENDMDL
MODEL 5
REMARK VINA RESULT:      -9.5      1.393      4.018
REMARK  Name = 
REMARK  9 active torsions:
REMARK  status: ('A' for Active; 'I' for Inactive)
REMARK    1  A    between atoms: C_7  and  C_8
REMARK    2  A    between atoms: C_13  and  N_29
REMARK    3  A    between atoms: C_15  and  C_16
REMARK    4  A    between atoms: N_18  and  C_19
REMARK    5  A    between atoms: C_19  and  C_20
REMARK    6  A    between atoms: C_19  and  C_26
REMARK    7  A    between atoms: C_20  and  C_21
REMARK    8  A    between atoms: N_29  and  S_30
REMARK    9  A    between atoms: S_30  and  C_33
REMARK                            x       y       z     vdW  Elec       q    Type
REMARK                         _______ _______ _______ _____ _____    ______ ____
ROOT
ATOM      8  C   UNL     1      -3.343   2.707  25.005  0.00  0.00    +0.267 C 
ATOM      9  O   UNL     1      -2.554   2.939  24.938  0.00  0.00    -0.268 OA
ATOM     10  N   UNL     1      -3.576   1.959  24.748  0.00  0.00    -0.268 N 
ATOM     11  C   UNL     1      -4.365   1.727  24.816  0.00  0.00    +0.096 C 
ATOM     12  C   UNL     1      -4.598   0.978  24.558  0.00  0.00    +0.041 C 
ATOM     13  C   UNL     1      -4.043   0.463  24.233  0.00  0.00    +0.102 C 
ATOM     14  C   UNL     1      -3.254   0.694  24.166  0.00  0.00    +0.049 C 
ATOM     15  C   UNL     1      -3.021   1.442  24.423  0.00  0.00    +0.155 C 
ENDROOT
BRANCH   8   7
ATOM      1  C   UNL     1      -3.138   3.668  26.508  0.00  0.00    +0.154 C 
ATOM      2  N   UNL     1      -3.804   3.665  26.021  0.00  0.00    -0.245 N 
ATOM      3  N   UNL     1      -4.494   4.104  26.139  0.00  0.00    -0.173 NA
ATOM      4  C   UNL     1      -5.014   3.933  25.521  0.00  0.00    +0.081 A 
ATOM      5  C   UNL     1      -5.768   4.250  25.421  0.00  0.00    +0.054 C 
ATOM      6  C   UNL     1      -4.646   3.389  25.022  0.00  0.00    +0.040 A 
ATOM      7  C   UNL     1      -3.899   3.224  25.330  0.00  0.00    +0.133 A 
ENDBRANCH   8   7
BRANCH  15  16
ATOM     16  C   UNL     1      -2.232   1.675  24.356  0.00  0.00    +0.260 C 
ATOM     17  O   UNL     1      -2.039   2.362  23.943  0.00  0.00    -0.272 OA
ATOM     18  N   UNL     1      -1.637   1.220  24.701  0.00  0.00    -0.196 NA
BRANCH  18  19
ATOM     19  C   UNL     1      -0.848   1.453  24.634  0.00  0.00    +0.179 C 
BRANCH  19  26
ATOM     26  C   UNL     1      -0.458   1.784  25.281  0.00  0.00    +0.281 C 
ATOM     27  N   UNL     1      -0.003   2.464  25.183  0.00  0.00    -0.086 NA
ATOM     28  O   UNL     1      -0.524   1.434  26.025  0.00  0.00    -0.270 OA
ENDBRANCH  19  26
BRANCH  19  20
ATOM     20  C   UNL     1      -0.450   1.355  23.917  0.00  0.00    +0.064 C 
BRANCH  20  21
ATOM     21  C   UNL     1      -0.076   0.639  23.749  0.00  0.00    +0.010 A 
ATOM     22  C   UNL     1      -0.238  -0.088  24.105  0.00  0.00    +0.003 A 
ATOM     23  C   UNL     1       0.263  -0.652  23.770  0.00  0.00    +0.007 A 
ATOM     24  C   UNL     1       0.734  -0.273  23.208  0.00  0.00    +0.035 A 
ATOM     25  S   UNL     1       0.524   0.524  23.195  0.00  0.00    -0.091 S 
ENDBRANCH  20  21
ENDBRANCH  19  20
ENDBRANCH  18  19
ENDBRANCH  15  16
BRANCH  13  29
ATOM     29  N   UNL     1      -4.277  -0.286  23.976  0.00  0.00    -0.079 NA
BRANCH  29  30
ATOM     30  S   UNL     1      -3.984  -0.961  24.349  0.00  0.00    +0.082 S 
ATOM     31  O   UNL     1      -4.413  -0.772  25.028  0.00  0.00    -0.151 OA
ATOM     32  O   UNL     1      -3.555  -1.150  23.670  0.00  0.00    -0.151 OA
BRANCH  30  33
ATOM     33  C   UNL     1      -3.691  -1.636  24.721  0.00  0.00    +0.153 A 
ATOM     34  C   UNL     1      -3.517  -1.711  25.524  0.00  0.00    +0.027 A 
ATOM     35  C   UNL     1      -3.239  -2.476  25.655  0.00  0.00    +0.009 A 
ATOM     36  C   UNL     1      -3.240  -2.875  24.932  0.00  0.00    +0.037 A 
ATOM     37  S   UNL     1      -3.519  -2.355  24.356  0.00  0.00    -0.067 S 
ENDBRANCH  30  33
ENDBRANCH  29  30
ENDBRANCH  13  29
TORSDOF 9
ENDMDL
MODEL 6
REMARK VINA RESULT:      -9.3      1.623      4.853
REMARK  Name = 
REMARK  9 active torsions:
REMARK  status: ('A' for Active; 'I' for Inactive)
REMARK    1  A    between atoms: C_7  and  C_8
REMARK    2  A    between atoms: C_13  and  N_29
REMARK    3  A    between atoms: C_15  and  C_16
REMARK    4  A    between atoms: N_18  and  C_19
REMARK    5  A    between atoms: C_19  and  C_20
REMARK    6  A    between atoms: C_19  and  C_26
REMARK    7  A    between atoms: C_20  and  C_21
REMARK    8  A    between atoms: N_29  and  S_30
REMARK    9  A    between atoms: S_30  and  C_33
REMARK                            x       y       z     vdW  Elec       q    Type
REMARK                         _______ _______ _______ _____ _____    ______ ____
ROOT
ATOM      8  C   UNL     1      -2.438  -0.683  24.831  0.00  0.00    +0.267 C 
ATOM      9  O   UNL     1      -1.637  -0.649  25.028  0.00  0.00    -0.268 OA
ATOM     10  N   UNL     1      -2.829  -0.004  24.573  0.00  0.00    -0.268 N 
ATOM     11  C   UNL     1      -3.629  -0.038  24.376  0.00  0.00    +0.096 C 
ATOM     12  C   UNL     1      -4.020   0.641  24.117  0.00  0.00    +0.041 C 
ATOM     13  C   UNL     1      -3.610   1.354  24.056  0.00  0.00    +0.102 C 
ATOM     14  C   UNL     1      -2.810   1.389  24.252  0.00  0.00    +0.049 C 
ATOM     15  C   UNL     1      -2.419   0.710  24.511  0.00  0.00    +0.155 C 
ENDROOT
BRANCH   8   7
ATOM      1  C   UNL     1      -2.960  -1.470  26.357  0.00  0.00    +0.154 C 
ATOM      2  N   UNL     1      -3.088  -1.758  25.594  0.00  0.00    -0.245 N 
ATOM      3  N   UNL     1      -3.478  -2.459  25.399  0.00  0.00    -0.173 NA
ATOM      4  C   UNL     1      -3.479  -2.530  24.577  0.00  0.00    +0.081 A 
ATOM      5  C   UNL     1      -3.810  -3.148  24.144  0.00  0.00    +0.054 C 
ATOM      6  C   UNL     1      -3.089  -1.873  24.264  0.00  0.00    +0.040 A 
ATOM      7  C   UNL     1      -2.848  -1.396  24.893  0.00  0.00    +0.133 A 
ENDBRANCH   8   7
BRANCH  15  16
ATOM     16  C   UNL     1      -1.618   0.744  24.707  0.00  0.00    +0.260 C 
ATOM     17  O   UNL     1      -1.374   0.561  25.474  0.00  0.00    -0.272 OA
ATOM     18  N   UNL     1      -1.062   0.960  24.138  0.00  0.00    -0.196 NA
BRANCH  18  19
ATOM     19  C   UNL     1      -0.262   0.994  24.336  0.00  0.00    +0.179 C 
BRANCH  19  26
ATOM     26  C   UNL     1       0.067   1.699  24.608  0.00  0.00    +0.281 C 
ATOM     27  N   UNL     1      -0.047   2.398  24.184  0.00  0.00    -0.086 NA
ATOM     28  O   UNL     1       0.511   1.707  25.303  0.00  0.00    -0.270 OA
ENDBRANCH  19  26
BRANCH  19  20
ATOM     20  C   UNL     1       0.210   0.320  24.261  0.00  0.00    +0.064 C 
BRANCH  20  21
ATOM     21  C   UNL     1       0.626   0.185  23.561  0.00  0.00    +0.010 A 
ATOM     22  C   UNL     1       0.333  -0.192  22.888  0.00  0.00    +0.003 A 
ATOM     23  C   UNL     1       0.936  -0.207  22.323  0.00  0.00    +0.007 A 
ATOM     24  C   UNL     1       1.599   0.160  22.648  0.00  0.00    +0.035 A 
ATOM     25  S   UNL     1       1.408   0.402  23.413  0.00  0.00    -0.091 S 
ENDBRANCH  20  21
ENDBRANCH  19  20
ENDBRANCH  18  19
ENDBRANCH  15  16
BRANCH  13  29
ATOM     29  N   UNL     1      -4.001   2.033  23.797  0.00  0.00    -0.079 NA
BRANCH  29  30
ATOM     30  S   UNL     1      -4.385   2.520  24.341  0.00  0.00    +0.082 S 
ATOM     31  O   UNL     1      -5.018   1.992  24.368  0.00  0.00    -0.151 OA
ATOM     32  O   UNL     1      -3.753   3.049  24.314  0.00  0.00    -0.151 OA
BRANCH  30  33
ATOM     33  C   UNL     1      -4.769   3.008  24.884  0.00  0.00    +0.153 A 
ATOM     34  C   UNL     1      -5.510   2.873  25.220  0.00  0.00    +0.027 A 
ATOM     35  C   UNL     1      -5.678   3.498  25.730  0.00  0.00    +0.009 A 
ATOM     36  C   UNL     1      -5.040   4.022  25.710  0.00  0.00    +0.037 A 
ATOM     37  S   UNL     1      -4.479   3.719  25.187  0.00  0.00    -0.067 S 
ENDBRANCH  30  33
ENDBRANCH  29  30
ENDBRANCH  13  29
TORSDOF 9
ENDMDL
MODEL 7
REMARK VINA RESULT:      -9.2      1.748      3.867
REMARK  Name = 
REMARK  9 active torsions:
REMARK  status: ('A' for Active; 'I' for Inactive)
REMARK    1  A    between atoms: C_7  and  C_8
REMARK    2  A    between atoms: C_13  and  N_29
REMARK    3  A    between atoms: C_15  and  C_16
REMARK    4  A    between atoms: N_18  and  C_19
REMARK    5  A    between atoms: C_19  and  C_20
REMARK    6  A    between atoms: C_19  and  C_26
REMARK    7  A    between atoms: C_20  and  C_21
REMARK    8  A    between atoms: N_29  and  S_30
REMARK    9  A    between atoms: S_30  and  C_33
REMARK                            x       y       z     vdW  Elec       q    Type
REMARK                         _______ _______ _______ _____ _____    ______ ____
ROOT
ATOM      8  C   UNL     1      -2.510   2.810  24.956  0.00  0.00    +0.267 C 
ATOM      9  O   UNL     1      -3.284   2.608  24.755  0.00  0.00    -0.268 OA
ATOM     10  N   UNL     1      -1.919   2.235  24.951  0.00  0.00    -0.268 N 
ATOM     11  C   UNL     1      -1.145   2.438  25.153  0.00  0.00    +0.096 C 
ATOM     12  C   UNL     1      -0.553   1.862  25.148  0.00  0.00    +0.041 C 
ATOM     13  C   UNL     1      -0.736   1.085  24.941  0.00  0.00    +0.102 C 
ATOM     14  C   UNL     1      -1.510   0.882  24.740  0.00  0.00    +0.049 C 
ATOM     15  C   UNL     1      -2.101   1.457  24.745  0.00  0.00    +0.155 C 
ENDROOT
BRANCH   8   7
ATOM      1  C   UNL     1      -3.257   3.750  26.291  0.00  0.00    +0.154 C 
ATOM      2  N   UNL     1      -2.671   4.020  25.776  0.00  0.00    -0.245 N 
ATOM      3  N   UNL     1      -2.326   4.769  25.785  0.00  0.00    -0.173 NA
ATOM      4  C   UNL     1      -1.769   4.800  25.177  0.00  0.00    +0.081 A 
ATOM      5  C   UNL     1      -1.294   5.447  24.987  0.00  0.00    +0.054 C 
ATOM      6  C   UNL     1      -1.770   4.070  24.792  0.00  0.00    +0.040 A 
ATOM      7  C   UNL     1      -2.328   3.588  25.163  0.00  0.00    +0.133 A 
ENDBRANCH   8   7
BRANCH  15  16
ATOM     16  C   UNL     1      -2.875   1.255  24.543  0.00  0.00    +0.260 C 
ATOM     17  O   UNL     1      -3.269   1.672  23.949  0.00  0.00    -0.272 OA
ATOM     18  N   UNL     1      -3.256   0.637  24.935  0.00  0.00    -0.196 NA
BRANCH  18  19
ATOM     19  C   UNL     1      -4.030   0.436  24.733  0.00  0.00    +0.179 C 
BRANCH  19  26
ATOM     26  C   UNL     1      -4.664   0.758  25.152  0.00  0.00    +0.281 C 
ATOM     27  N   UNL     1      -5.269   1.146  24.749  0.00  0.00    -0.086 NA
ATOM     28  O   UNL     1      -4.691   0.692  25.974  0.00  0.00    -0.270 OA
ENDBRANCH  19  26
BRANCH  19  20
ATOM     20  C   UNL     1      -4.171  -0.089  24.111  0.00  0.00    +0.064 C 
BRANCH  20  21
ATOM     21  C   UNL     1      -4.065  -0.899  24.224  0.00  0.00    +0.010 A 
ATOM     22  C   UNL     1      -3.894  -1.270  24.941  0.00  0.00    +0.003 A 
ATOM     23  C   UNL     1      -3.836  -2.082  24.799  0.00  0.00    +0.007 A 
ATOM     24  C   UNL     1      -3.971  -2.210  23.995  0.00  0.00    +0.035 A 
ATOM     25  S   UNL     1      -4.112  -1.480  23.640  0.00  0.00    -0.091 S 
ENDBRANCH  20  21
ENDBRANCH  19  20
ENDBRANCH  18  19
ENDBRANCH  15  16
BRANCH  13  29
ATOM     29  N   UNL     1      -0.145   0.510  24.936  0.00  0.00    -0.079 NA
BRANCH  29  30
ATOM     30  S   UNL     1       0.240   0.319  24.232  0.00  0.00    +0.082 S 
ATOM     31  O   UNL     1      -0.153  -0.407  24.213  0.00  0.00    -0.151 OA
ATOM     32  O   UNL     1       0.632   1.044  24.249  0.00  0.00    -0.151 OA
BRANCH  30  33
ATOM     33  C   UNL     1       0.624   0.129  23.527  0.00  0.00    +0.153 A 
ATOM     34  C   UNL     1       0.317  -0.330  22.915  0.00  0.00    +0.027 A 
ATOM     35  C   UNL     1       0.887  -0.378  22.321  0.00  0.00    +0.009 A 
ATOM     36  C   UNL     1       1.547   0.051  22.565  0.00  0.00    +0.037 A 
ATOM     37  S   UNL     1       1.385   0.364  23.311  0.00  0.00    -0.067 S 
ENDBRANCH  30  33
ENDBRANCH  29  30
ENDBRANCH  13  29
TORSDOF 9
ENDMDL
MODEL 8
REMARK VINA RESULT:      -9.2      1.745      3.836
REMARK  Name = 
REMARK  9 active torsions:
REMARK  status: ('A' for Active; 'I' for Inactive)
REMARK    1  A    between atoms: C_7  and  C_8
REMARK    2  A    between atoms: C_13  and  N_29
REMARK    3  A    between atoms: C_15  and  C_16
REMARK    4  A    between atoms: N_18  and  C_19
REMARK    5  A    between atoms: C_19  and  C_20
REMARK    6  A    between atoms: C_19  and  C_26
REMARK    7  A    between atoms: C_20  and  C_21
REMARK    8  A    between atoms: N_29  and  S_30
REMARK    9  A    between atoms: S_30  and  C_33
REMARK                            x       y       z     vdW  Elec       q    Type
REMARK                         _______ _______ _______ _____ _____    ______ ____
ROOT
ATOM      8  C   UNL     1      -3.055  -0.494  24.435  0.00  0.00    +0.267 C 
ATOM      9  O   UNL     1      -3.643   0.031  24.190  0.00  0.00    -0.268 OA
ATOM     10  N   UNL     1      -2.264  -0.261  24.428  0.00  0.00    -0.268 N 
ATOM     11  C   UNL     1      -1.678  -0.787  24.673  0.00  0.00    +0.096 C 
ATOM     12  C   UNL     1      -0.886  -0.554  24.667  0.00  0.00    +0.041 C 
ATOM     13  C   UNL     1      -0.682   0.204  24.415  0.00  0.00    +0.102 C 
ATOM     14  C   UNL     1      -1.268   0.730  24.170  0.00  0.00    +0.049 C 
ATOM     15  C   UNL     1      -2.059   0.498  24.177  0.00  0.00    +0.155 C 
ENDROOT
BRANCH   8   7
ATOM      1  C   UNL     1      -3.796  -0.918  26.014  0.00  0.00    +0.154 C 
ATOM      2  N   UNL     1      -3.600  -1.448  25.412  0.00  0.00    -0.245 N 
ATOM      3  N   UNL     1      -3.711  -2.266  25.431  0.00  0.00    -0.173 NA
ATOM      4  C   UNL     1      -3.439  -2.576  24.716  0.00  0.00    +0.081 A 
ATOM      5  C   UNL     1      -3.445  -3.372  24.500  0.00  0.00    +0.054 C 
ATOM      6  C   UNL     1      -3.160  -1.950  24.256  0.00  0.00    +0.040 A 
ATOM      7  C   UNL     1      -3.260  -1.253  24.687  0.00  0.00    +0.133 A 
ENDBRANCH   8   7
BRANCH  15  16
ATOM     16  C   UNL     1      -2.647   1.023  23.932  0.00  0.00    +0.260 C 
ATOM     17  O   UNL     1      -3.203   0.786  23.370  0.00  0.00    -0.272 OA
ATOM     18  N   UNL     1      -2.678   1.784  24.248  0.00  0.00    -0.196 NA
BRANCH  18  19
ATOM     19  C   UNL     1      -3.265   2.309  24.003  0.00  0.00    +0.179 C 
BRANCH  19  26
ATOM     26  C   UNL     1      -3.174   2.732  23.301  0.00  0.00    +0.281 C 
ATOM     27  N   UNL     1      -3.810   2.810  22.781  0.00  0.00    -0.086 NA
ATOM     28  O   UNL     1      -2.447   3.077  23.119  0.00  0.00    -0.270 OA
ENDBRANCH  19  26
BRANCH  19  20
ATOM     20  C   UNL     1      -3.945   2.409  24.461  0.00  0.00    +0.064 C 
BRANCH  20  21
ATOM     21  C   UNL     1      -3.950   2.960  25.075  0.00  0.00    +0.010 A 
ATOM     22  C   UNL     1      -3.285   3.304  25.422  0.00  0.00    +0.003 A 
ATOM     23  C   UNL     1      -3.546   3.821  26.012  0.00  0.00    +0.007 A 
ATOM     24  C   UNL     1      -4.370   3.794  26.028  0.00  0.00    +0.035 A 
ATOM     25  S   UNL     1      -4.620   3.263  25.449  0.00  0.00    -0.091 S 
ENDBRANCH  20  21
ENDBRANCH  19  20
ENDBRANCH  18  19
ENDBRANCH  15  16
BRANCH  13  29
ATOM     29  N   UNL     1       0.110   0.437  24.409  0.00  0.00    -0.079 NA
BRANCH  29  30
ATOM     30  S   UNL     1       0.587   0.261  23.759  0.00  0.00    +0.082 S 
ATOM     31  O   UNL     1       0.594   1.059  23.547  0.00  0.00    -0.151 OA
ATOM     32  O   UNL     1       0.580  -0.536  23.970  0.00  0.00    -0.151 OA
BRANCH  30  33
ATOM     33  C   UNL     1       1.064   0.084  23.110  0.00  0.00    +0.153 A 
ATOM     34  C   UNL     1       0.820  -0.287  22.415  0.00  0.00    +0.027 A 
ATOM     35  C   UNL     1       1.474  -0.353  21.917  0.00  0.00    +0.009 A 
ATOM     36  C   UNL     1       2.123  -0.022  22.304  0.00  0.00    +0.037 A 
ATOM     37  S   UNL     1       1.869   0.248  23.041  0.00  0.00    -0.067 S 
ENDBRANCH  30  33
ENDBRANCH  29  30
ENDBRANCH  13  29
TORSDOF 9
ENDMDL
