MODEL 1
REMARK VINA RESULT:     -11.8      0.000      0.000
REMARK  Name = 
REMARK  5 active torsions:
REMARK  status: ('A' for Active; 'I' for Inactive)
REMARK    1  A    between atoms: C_2  and  C_4
REMARK    2  A    between atoms: C_4  and  O_5
REMARK    3  A    between atoms: O_5  and  C_6
REMARK    4  A    between atoms: C_10  and  N_14
REMARK    5  A    between atoms: N_17  and  C_18
REMARK                            x       y       z     vdW  Elec       q    Type
REMARK                         _______ _______ _______ _____ _____    ______ ____
ROOT
ATOM     14  N   UNL     1      -3.972   1.145  24.359  0.00  0.00    -0.184 NA
ATOM     15  C   UNL     1      -3.642   0.450  24.653  0.00  0.00    +0.344 C 
ATOM     16  O   UNL     1      -2.834   0.415  24.821  0.00  0.00    -0.249 OA
ATOM     17  N   UNL     1      -4.118  -0.212  24.779  0.00  0.00    -0.161 NA
ENDROOT
BRANCH  17  18
ATOM     18  C   UNL     1      -3.787  -0.909  25.073  0.00  0.00    +0.075 A 
ATOM     19  C   UNL     1      -3.374  -0.899  25.786  0.00  0.00    +0.017 A 
ATOM     20  C   UNL     1      -3.043  -1.596  26.080  0.00  0.00    +0.001 A 
ATOM     21  C   UNL     1      -3.126  -2.301  25.661  0.00  0.00    +0.000 A 
ATOM     22  C   UNL     1      -3.540  -2.311  24.948  0.00  0.00    +0.001 A 
ATOM     23  C   UNL     1      -3.624  -3.016  24.528  0.00  0.00    +0.000 A 
ATOM     24  C   UNL     1      -4.037  -3.025  23.815  0.00  0.00    +0.000 A 
ATOM     25  C   UNL     1      -4.368  -2.328  23.521  0.00  0.00    +0.000 A 
ATOM     26  C   UNL     1      -4.285  -1.623  23.940  0.00  0.00    +0.001 A 
ATOM     27  C   UNL     1      -3.871  -1.613  24.654  0.00  0.00    +0.015 A 
ENDBRANCH  17  18
BRANCH  14  10
ATOM      6  C   UNL     1      -2.943   3.706  24.809  0.00  0.00    +0.175 C 
ATOM      7  C   UNL     1      -3.507   3.621  25.404  0.00  0.00    +0.174 C 
ATOM      8  O   UNL     1      -3.852   2.876  25.325  0.00  0.00    -0.349 OA
ATOM      9  C   UNL     1      -3.500   2.501  24.681  0.00  0.00    +0.167 C 
ATOM     10  C   UNL     1      -3.496   1.807  24.233  0.00  0.00    +0.156 C 
ATOM     11  C   UNL     1      -2.931   1.892  23.636  0.00  0.00    +0.166 C 
ATOM     12  O   UNL     1      -2.587   2.638  23.716  0.00  0.00    -0.349 OA
ATOM     13  C   UNL     1      -2.939   3.014  24.362  0.00  0.00    +0.173 C 
BRANCH   6   5
ATOM      5  O   UNL     1      -2.467   4.369  24.683  0.00  0.00    -0.342 OA
BRANCH   5   4
ATOM      4  C   UNL     1      -1.944   4.618  25.269  0.00  0.00    +0.230 C 
BRANCH   4   2
ATOM      1  N   UNL     1      -0.605   4.990  24.934  0.00  0.00    -0.086 NA
ATOM      2  C   UNL     1      -1.384   5.201  25.103  0.00  0.00    +0.291 C 
ATOM      3  O   UNL     1      -1.605   5.996  25.105  0.00  0.00    -0.269 OA
ENDBRANCH   4   2
ENDBRANCH   5   4
ENDBRANCH   6   5
ENDBRANCH  14  10
TORSDOF 5
ENDMDL
MODEL 2
REMARK VINA RESULT:     -10.7      3.245      4.788
REMARK  Name = 
REMARK  5 active torsions:
REMARK  status: ('A' for Active; 'I' for Inactive)
REMARK    1  A    between atoms: C_2  and  C_4
REMARK    2  A    between atoms: C_4  and  O_5
REMARK    3  A    between atoms: O_5  and  C_6
REMARK    4  A    between atoms: C_10  and  N_14
REMARK    5  A    between atoms: N_17  and  C_18
REMARK                            x       y       z     vdW  Elec       q    Type
REMARK                         _______ _______ _______ _____ _____    ______ ____
ROOT
ATOM     14  N   UNL     1      -1.520   1.152  24.738  0.00  0.00    -0.184 NA
ATOM     15  C   UNL     1      -2.054   1.779  24.738  0.00  0.00    +0.344 C 
ATOM     16  O   UNL     1      -1.819   2.522  24.465  0.00  0.00    -0.249 OA
ATOM     17  N   UNL     1      -2.825   1.666  25.010  0.00  0.00    -0.161 NA
ENDROOT
BRANCH  17  18
ATOM     18  C   UNL     1      -3.360   2.294  25.010  0.00  0.00    +0.075 A 
ATOM     19  C   UNL     1      -3.083   3.070  25.000  0.00  0.00    +0.017 A 
ATOM     20  C   UNL     1      -3.619   3.699  25.000  0.00  0.00    +0.001 A 
ATOM     21  C   UNL     1      -4.429   3.550  25.010  0.00  0.00    +0.000 A 
ATOM     22  C   UNL     1      -4.706   2.773  25.020  0.00  0.00    +0.001 A 
ATOM     23  C   UNL     1      -5.517   2.623  25.030  0.00  0.00    +0.000 A 
ATOM     24  C   UNL     1      -5.794   1.847  25.040  0.00  0.00    +0.000 A 
ATOM     25  C   UNL     1      -5.258   1.218  25.040  0.00  0.00    +0.000 A 
ATOM     26  C   UNL     1      -4.447   1.367  25.030  0.00  0.00    +0.001 A 
ATOM     27  C   UNL     1      -4.170   2.145  25.020  0.00  0.00    +0.015 A 
ENDBRANCH  17  18
BRANCH  14  10
ATOM      6  C   UNL     1       0.879   0.521  23.447  0.00  0.00    +0.175 C 
ATOM      7  C   UNL     1       0.421  -0.155  23.336  0.00  0.00    +0.174 C 
ATOM      8  O   UNL     1      -0.309  -0.031  23.699  0.00  0.00    -0.349 OA
ATOM      9  C   UNL     1      -0.302   0.723  24.033  0.00  0.00    +0.167 C 
ATOM     10  C   UNL     1      -0.749   1.266  24.465  0.00  0.00    +0.156 C 
ATOM     11  C   UNL     1      -0.291   1.943  24.576  0.00  0.00    +0.166 C 
ATOM     12  O   UNL     1       0.440   1.818  24.213  0.00  0.00    -0.349 OA
ATOM     13  C   UNL     1       0.433   1.064  23.877  0.00  0.00    +0.173 C 
BRANCH   6   5
ATOM      5  O   UNL     1       1.650   0.635  23.173  0.00  0.00    -0.342 OA
BRANCH   5   4
ATOM      4  C   UNL     1       2.039   0.029  22.773  0.00  0.00    +0.230 C 
BRANCH   4   2
ATOM      1  N   UNL     1       3.421   0.389  22.826  0.00  0.00    -0.086 NA
ATOM      2  C   UNL     1       2.754   0.179  22.389  0.00  0.00    +0.291 C 
ATOM      3  O   UNL     1       2.801   0.120  21.568  0.00  0.00    -0.269 OA
ENDBRANCH   4   2
ENDBRANCH   5   4
ENDBRANCH   6   5
ENDBRANCH  14  10
TORSDOF 5
ENDMDL
MODEL 3
REMARK VINA RESULT:     -10.4      1.689      5.969
REMARK  Name = 
REMARK  5 active torsions:
REMARK  status: ('A' for Active; 'I' for Inactive)
REMARK    1  A    between atoms: C_2  and  C_4
REMARK    2  A    between atoms: C_4  and  O_5
REMARK    3  A    between atoms: O_5  and  C_6
REMARK    4  A    between atoms: C_10  and  N_14
REMARK    5  A    between atoms: N_17  and  C_18
REMARK                            x       y       z     vdW  Elec       q    Type
REMARK                         _______ _______ _______ _____ _____    ______ ____
ROOT
ATOM     14  N   UNL     1      -1.321   1.374  25.182  0.00  0.00    -0.184 NA
ATOM     15  C   UNL     1      -1.736   2.085  25.226  0.00  0.00    +0.344 C 
ATOM     16  O   UNL     1      -2.487   2.146  24.888  0.00  0.00    -0.249 OA
ATOM     17  N   UNL     1      -1.401   2.735  25.607  0.00  0.00    -0.161 NA
ENDROOT
BRANCH  17  18
ATOM     18  C   UNL     1      -1.816   3.447  25.650  0.00  0.00    +0.075 A 
ATOM     19  C   UNL     1      -2.564   3.468  25.997  0.00  0.00    +0.017 A 
ATOM     20  C   UNL     1      -2.979   4.180  26.041  0.00  0.00    +0.001 A 
ATOM     21  C   UNL     1      -2.646   4.871  25.737  0.00  0.00    +0.000 A 
ATOM     22  C   UNL     1      -1.899   4.850  25.390  0.00  0.00    +0.001 A 
ATOM     23  C   UNL     1      -1.565   5.541  25.086  0.00  0.00    +0.000 A 
ATOM     24  C   UNL     1      -0.818   5.520  24.739  0.00  0.00    +0.000 A 
ATOM     25  C   UNL     1      -0.402   4.808  24.696  0.00  0.00    +0.000 A 
ATOM     26  C   UNL     1      -0.735   4.118  24.999  0.00  0.00    +0.001 A 
ATOM     27  C   UNL     1      -1.483   4.138  25.347  0.00  0.00    +0.015 A 
ENDBRANCH  17  18
BRANCH  14  10
ATOM      6  C   UNL     1      -2.306  -1.229  24.908  0.00  0.00    +0.175 C 
ATOM      7  C   UNL     1      -2.069  -1.199  25.697  0.00  0.00    +0.174 C 
ATOM      8  O   UNL     1      -1.765  -0.446  25.843  0.00  0.00    -0.349 OA
ATOM      9  C   UNL     1      -1.814  -0.011  25.144  0.00  0.00    +0.167 C 
ATOM     10  C   UNL     1      -1.657   0.723  24.801  0.00  0.00    +0.156 C 
ATOM     11  C   UNL     1      -1.894   0.692  24.011  0.00  0.00    +0.166 C 
ATOM     12  O   UNL     1      -2.197  -0.061  23.866  0.00  0.00    -0.349 OA
ATOM     13  C   UNL     1      -2.148  -0.496  24.566  0.00  0.00    +0.173 C 
BRANCH   6   5
ATOM      5  O   UNL     1      -2.641  -1.880  24.527  0.00  0.00    -0.342 OA
BRANCH   5   4
ATOM      4  C   UNL     1      -3.315  -2.238  24.839  0.00  0.00    +0.230 C 
BRANCH   4   2
ATOM      1  N   UNL     1      -4.346  -2.560  23.902  0.00  0.00    -0.086 NA
ATOM      2  C   UNL     1      -3.729  -2.797  24.395  0.00  0.00    +0.291 C 
ATOM      3  O   UNL     1      -3.525  -3.595  24.444  0.00  0.00    -0.269 OA
ENDBRANCH   4   2
ENDBRANCH   5   4
ENDBRANCH   6   5
ENDBRANCH  14  10
TORSDOF 5
ENDMDL
MODEL 4
REMARK VINA RESULT:      -8.3     17.873     19.605
REMARK  Name = 
REMARK  5 active torsions:
REMARK  status: ('A' for Active; 'I' for Inactive)
REMARK    1  A    between atoms: C_2  and  C_4
REMARK    2  A    between atoms: C_4  and  O_5
REMARK    3  A    between atoms: O_5  and  C_6
REMARK    4  A    between atoms: C_10  and  N_14
REMARK    5  A    between atoms: N_17  and  C_18
REMARK                            x       y       z     vdW  Elec       q    Type
REMARK                         _______ _______ _______ _____ _____    ______ ____
ROOT
ATOM     14  N   UNL     1      13.422   7.797  20.118  0.00  0.00    -0.184 NA
ATOM     15  C   UNL     1      14.179   7.481  20.189  0.00  0.00    +0.344 C 
ATOM     16  O   UNL     1      14.486   7.004  19.588  0.00  0.00    -0.249 OA
ATOM     17  N   UNL     1      14.632   7.640  20.860  0.00  0.00    -0.161 NA
ENDROOT
BRANCH  17  18
ATOM     18  C   UNL     1      15.391   7.323  20.930  0.00  0.00    +0.075 A 
ATOM     19  C   UNL     1      15.523   6.528  20.760  0.00  0.00    +0.017 A 
ATOM     20  C   UNL     1      16.282   6.211  20.831  0.00  0.00    +0.001 A 
ATOM     21  C   UNL     1      16.908   6.690  21.072  0.00  0.00    +0.000 A 
ATOM     22  C   UNL     1      16.776   7.486  21.242  0.00  0.00    +0.001 A 
ATOM     23  C   UNL     1      17.402   7.966  21.484  0.00  0.00    +0.000 A 
ATOM     24  C   UNL     1      17.270   8.762  21.654  0.00  0.00    +0.000 A 
ATOM     25  C   UNL     1      16.511   9.079  21.583  0.00  0.00    +0.000 A 
ATOM     26  C   UNL     1      15.885   8.599  21.342  0.00  0.00    +0.001 A 
ATOM     27  C   UNL     1      16.017   7.803  21.171  0.00  0.00    +0.015 A 
ENDBRANCH  17  18
BRANCH  14  10
ATOM      6  C   UNL     1      12.045   8.342  17.746  0.00  0.00    +0.175 C 
ATOM      7  C   UNL     1      12.335   9.080  17.971  0.00  0.00    +0.174 C 
ATOM      8  O   UNL     1      12.756   8.986  18.674  0.00  0.00    -0.349 OA
ATOM      9  C   UNL     1      12.726   8.189  18.883  0.00  0.00    +0.167 C 
ATOM     10  C   UNL     1      12.969   7.637  19.447  0.00  0.00    +0.156 C 
ATOM     11  C   UNL     1      12.678   6.898  19.222  0.00  0.00    +0.166 C 
ATOM     12  O   UNL     1      12.257   6.993  18.519  0.00  0.00    -0.349 OA
ATOM     13  C   UNL     1      12.287   7.791  18.309  0.00  0.00    +0.173 C 
BRANCH   6   5
ATOM      5  O   UNL     1      11.592   8.183  17.075  0.00  0.00    -0.342 OA
BRANCH   5   4
ATOM      4  C   UNL     1      10.911   8.623  16.922  0.00  0.00    +0.230 C 
BRANCH   4   2
ATOM      1  N   UNL     1      10.814   8.895  15.523  0.00  0.00    -0.086 NA
ATOM      2  C   UNL     1      10.516   8.536  16.203  0.00  0.00    +0.291 C 
ATOM      3  O   UNL     1       9.822   8.091  16.165  0.00  0.00    -0.269 OA
ENDBRANCH   4   2
ENDBRANCH   5   4
ENDBRANCH   6   5
ENDBRANCH  14  10
TORSDOF 5
ENDMDL
MODEL 5
REMARK VINA RESULT:      -8.0     15.928     18.486
REMARK  Name = 
REMARK  5 active torsions:
REMARK  status: ('A' for Active; 'I' for Inactive)
REMARK    1  A    between atoms: C_2  and  C_4
REMARK    2  A    between atoms: C_4  and  O_5
REMARK    3  A    between atoms: O_5  and  C_6
REMARK    4  A    between atoms: C_10  and  N_14
REMARK    5  A    between atoms: N_17  and  C_18
REMARK                            x       y       z     vdW  Elec       q    Type
REMARK                         _______ _______ _______ _____ _____    ______ ____
ROOT
ATOM     14  N   UNL     1      13.424   7.593  19.971  0.00  0.00    -0.184 NA
ATOM     15  C   UNL     1      12.691   7.413  20.301  0.00  0.00    +0.344 C 
ATOM     16  O   UNL     1      12.060   7.197  19.813  0.00  0.00    -0.249 OA
ATOM     17  N   UNL     1      12.586   7.448  21.118  0.00  0.00    -0.161 NA
ENDROOT
BRANCH  17  18
ATOM     18  C   UNL     1      11.852   7.268  21.448  0.00  0.00    +0.075 A 
ATOM     19  C   UNL     1      11.497   6.540  21.292  0.00  0.00    +0.017 A 
ATOM     20  C   UNL     1      10.762   6.360  21.623  0.00  0.00    +0.001 A 
ATOM     21  C   UNL     1      10.384   6.907  22.109  0.00  0.00    +0.000 A 
ATOM     22  C   UNL     1      10.739   7.635  22.266  0.00  0.00    +0.001 A 
ATOM     23  C   UNL     1      10.360   8.183  22.752  0.00  0.00    +0.000 A 
ATOM     24  C   UNL     1      10.715   8.911  22.908  0.00  0.00    +0.000 A 
ATOM     25  C   UNL     1      11.450   9.091  22.577  0.00  0.00    +0.000 A 
ATOM     26  C   UNL     1      11.828   8.544  22.091  0.00  0.00    +0.001 A 
ATOM     27  C   UNL     1      11.474   7.815  21.935  0.00  0.00    +0.015 A 
ENDBRANCH  17  18
BRANCH  14  10
ATOM      6  C   UNL     1      14.198   8.466  17.429  0.00  0.00    +0.175 C 
ATOM      7  C   UNL     1      14.414   9.093  17.918  0.00  0.00    +0.174 C 
ATOM      8  O   UNL     1      14.209   8.895  18.693  0.00  0.00    -0.349 OA
ATOM      9  C   UNL     1      13.867   8.145  18.681  0.00  0.00    +0.167 C 
ATOM     10  C   UNL     1      13.529   7.558  19.152  0.00  0.00    +0.156 C 
ATOM     11  C   UNL     1      13.313   6.929  18.662  0.00  0.00    +0.166 C 
ATOM     12  O   UNL     1      13.518   7.128  17.888  0.00  0.00    -0.349 OA
ATOM     13  C   UNL     1      13.861   7.880  17.900  0.00  0.00    +0.173 C 
BRANCH   6   5
ATOM      5  O   UNL     1      14.303   8.431  16.611  0.00  0.00    -0.342 OA
BRANCH   5   4
ATOM      4  C   UNL     1      14.062   9.061  16.137  0.00  0.00    +0.230 C 
BRANCH   4   2
ATOM      1  N   UNL     1      13.310   9.091  14.922  0.00  0.00    -0.086 NA
ATOM      2  C   UNL     1      14.023   8.971  15.318  0.00  0.00    +0.291 C 
ATOM      3  O   UNL     1      14.699   8.760  14.894  0.00  0.00    -0.269 OA
ENDBRANCH   4   2
ENDBRANCH   5   4
ENDBRANCH   6   5
ENDBRANCH  14  10
TORSDOF 5
ENDMDL
