MODEL 1
REMARK VINA RESULT:      -9.2      0.000      0.000
REMARK  Name = 
REMARK  7 active torsions:
REMARK  status: ('A' for Active; 'I' for Inactive)
REMARK    1  A    between atoms: C_3  and  N_18
REMARK    2  A    between atoms: C_6  and  C_7
REMARK    3  A    between atoms: C_7  and  N_8
REMARK    4  A    between atoms: N_8  and  S_9
REMARK    5  A    between atoms: S_9  and  C_12
REMARK    6  A    between atoms: N_18  and  C_19
REMARK    7  A    between atoms: C_19  and  C_20
REMARK                            x       y       z     vdW  Elec       q    Type
REMARK                         _______ _______ _______ _____ _____    ______ ____
ROOT
ATOM      1  O   UNL     1      -2.499   1.866  23.752  0.00  0.00    -0.219 OA
ATOM      2  C   UNL     1      -3.074   2.042  24.317  0.00  0.00    +0.199 C 
ATOM      3  C   UNL     1      -3.165   2.762  24.709  0.00  0.00    +0.136 C 
ATOM      4  C   UNL     1      -3.806   2.694  25.223  0.00  0.00    +0.162 C 
ATOM      5  O   UNL     1      -4.112   1.931  25.149  0.00  0.00    -0.350 OA
ATOM      6  C   UNL     1      -3.660   1.528  24.589  0.00  0.00    +0.166 C 
ENDROOT
BRANCH   6   7
ATOM      7  C   UNL     1      -3.772   0.749  24.345  0.00  0.00    +0.148 C 
BRANCH   7   8
ATOM      8  N   UNL     1      -4.112   0.201  24.859  0.00  0.00    -0.075 NA
BRANCH   8   9
ATOM      9  S   UNL     1      -4.010  -0.608  24.726  0.00  0.00    +0.077 S 
ATOM     10  O   UNL     1      -3.738  -0.701  25.500  0.00  0.00    -0.152 OA
ATOM     11  O   UNL     1      -4.283  -0.515  23.953  0.00  0.00    -0.152 OA
BRANCH   9  12
ATOM     12  C   UNL     1      -3.909  -1.415  24.594  0.00  0.00    +0.124 A 
ATOM     13  C   UNL     1      -3.452  -1.865  25.113  0.00  0.00    +0.020 A 
ATOM     14  C   UNL     1      -3.351  -2.672  24.980  0.00  0.00    +0.001 A 
ATOM     15  C   UNL     1      -3.706  -3.032  24.328  0.00  0.00    +0.000 A 
ATOM     16  C   UNL     1      -4.163  -2.582  23.809  0.00  0.00    +0.001 A 
ATOM     17  C   UNL     1      -4.264  -1.774  23.941  0.00  0.00    +0.020 A 
ENDBRANCH   9  12
ENDBRANCH   8   9
ENDBRANCH   7   8
ENDBRANCH   6   7
BRANCH   3  18
ATOM     18  N   UNL     1      -2.696   3.434  24.604  0.00  0.00    -0.206 NA
BRANCH  18  19
ATOM     19  C   UNL     1      -2.354   3.804  25.257  0.00  0.00    +0.154 C 
BRANCH  19  20
ATOM     20  C   UNL     1      -1.789   4.394  25.148  0.00  0.00    +0.157 A 
ATOM     21  N   UNL     1      -0.977   4.277  25.053  0.00  0.00    -0.226 NA
ATOM     22  C   UNL     1      -0.622   5.016  24.961  0.00  0.00    +0.121 A 
ATOM     23  C   UNL     1      -1.214   5.590  24.999  0.00  0.00    +0.121 A 
ATOM     24  N   UNL     1      -1.935   5.206  25.115  0.00  0.00    -0.226 NA
ENDBRANCH  19  20
ENDBRANCH  18  19
ENDBRANCH   3  18
TORSDOF 7
ENDMDL
MODEL 2
REMARK VINA RESULT:      -9.1      1.438      5.675
REMARK  Name = 
REMARK  7 active torsions:
REMARK  status: ('A' for Active; 'I' for Inactive)
REMARK    1  A    between atoms: C_3  and  N_18
REMARK    2  A    between atoms: C_6  and  C_7
REMARK    3  A    between atoms: C_7  and  N_8
REMARK    4  A    between atoms: N_8  and  S_9
REMARK    5  A    between atoms: S_9  and  C_12
REMARK    6  A    between atoms: N_18  and  C_19
REMARK    7  A    between atoms: C_19  and  C_20
REMARK                            x       y       z     vdW  Elec       q    Type
REMARK                         _______ _______ _______ _____ _____    ______ ____
ROOT
ATOM      1  O   UNL     1      -2.790   0.859  23.648  0.00  0.00    -0.219 OA
ATOM      2  C   UNL     1      -3.391   0.967  24.203  0.00  0.00    +0.199 C 
ATOM      3  C   UNL     1      -3.929   0.394  24.452  0.00  0.00    +0.136 C 
ATOM      4  C   UNL     1      -4.430   0.739  25.009  0.00  0.00    +0.162 C 
ATOM      5  O   UNL     1      -4.201   1.526  25.104  0.00  0.00    -0.350 OA
ATOM      6  C   UNL     1      -3.559   1.667  24.607  0.00  0.00    +0.166 C 
ENDROOT
BRANCH   6   7
ATOM      7  C   UNL     1      -3.156   2.381  24.526  0.00  0.00    +0.148 C 
BRANCH   7   8
ATOM      8  N   UNL     1      -2.986   2.837  25.192  0.00  0.00    -0.075 NA
BRANCH   8   9
ATOM      9  S   UNL     1      -2.454   3.466  25.138  0.00  0.00    +0.077 S 
ATOM     10  O   UNL     1      -1.945   3.080  25.660  0.00  0.00    -0.152 OA
ATOM     11  O   UNL     1      -2.963   3.852  24.616  0.00  0.00    -0.152 OA
BRANCH   9  12
ATOM     12  C   UNL     1      -1.923   4.094  25.084  0.00  0.00    +0.124 A 
ATOM     13  C   UNL     1      -1.131   3.951  24.899  0.00  0.00    +0.020 A 
ATOM     14  C   UNL     1      -0.600   4.579  24.845  0.00  0.00    +0.001 A 
ATOM     15  C   UNL     1      -0.859   5.351  24.975  0.00  0.00    +0.000 A 
ATOM     16  C   UNL     1      -1.650   5.495  25.160  0.00  0.00    +0.001 A 
ATOM     17  C   UNL     1      -2.182   4.866  25.214  0.00  0.00    +0.020 A 
ENDBRANCH   9  12
ENDBRANCH   8   9
ENDBRANCH   7   8
ENDBRANCH   6   7
BRANCH   3  18
ATOM     18  N   UNL     1      -3.961  -0.388  24.190  0.00  0.00    -0.206 NA
BRANCH  18  19
ATOM     19  C   UNL     1      -4.107  -0.998  24.727  0.00  0.00    +0.154 C 
BRANCH  19  20
ATOM     20  C   UNL     1      -3.959  -1.780  24.513  0.00  0.00    +0.157 A 
ATOM     21  N   UNL     1      -4.272  -2.172  23.857  0.00  0.00    -0.226 NA
ATOM     22  C   UNL     1      -3.979  -2.943  23.856  0.00  0.00    +0.121 A 
ATOM     23  C   UNL     1      -3.484  -3.028  24.511  0.00  0.00    +0.121 A 
ATOM     24  N   UNL     1      -3.472  -2.310  24.917  0.00  0.00    -0.226 NA
ENDBRANCH  19  20
ENDBRANCH  18  19
ENDBRANCH   3  18
TORSDOF 7
ENDMDL
MODEL 3
REMARK VINA RESULT:      -8.1      3.510      4.451
REMARK  Name = 
REMARK  7 active torsions:
REMARK  status: ('A' for Active; 'I' for Inactive)
REMARK    1  A    between atoms: C_3  and  N_18
REMARK    2  A    between atoms: C_6  and  C_7
REMARK    3  A    between atoms: C_7  and  N_8
REMARK    4  A    between atoms: N_8  and  S_9
REMARK    5  A    between atoms: S_9  and  C_12
REMARK    6  A    between atoms: N_18  and  C_19
REMARK    7  A    between atoms: C_19  and  C_20
REMARK                            x       y       z     vdW  Elec       q    Type
REMARK                         _______ _______ _______ _____ _____    ______ ____
ROOT
ATOM      1  O   UNL     1      -0.492   1.839  23.846  0.00  0.00    -0.219 OA
ATOM      2  C   UNL     1      -0.595   1.026  23.939  0.00  0.00    +0.199 C 
ATOM      3  C   UNL     1      -0.032   0.444  23.782  0.00  0.00    +0.136 C 
ATOM      4  C   UNL     1      -0.369  -0.289  23.950  0.00  0.00    +0.162 C 
ATOM      5  O   UNL     1      -1.141  -0.161  24.212  0.00  0.00    -0.350 OA
ATOM      6  C   UNL     1      -1.281   0.651  24.205  0.00  0.00    +0.166 C 
ENDROOT
BRANCH   6   7
ATOM      7  C   UNL     1      -1.983   1.024  24.425  0.00  0.00    +0.148 C 
BRANCH   7   8
ATOM      8  N   UNL     1      -2.702   0.626  24.353  0.00  0.00    -0.075 NA
BRANCH   8   9
ATOM      9  S   UNL     1      -3.409   1.020  24.510  0.00  0.00    +0.077 S 
ATOM     10  O   UNL     1      -3.607   0.984  23.710  0.00  0.00    -0.152 OA
ATOM     11  O   UNL     1      -3.212   1.057  25.311  0.00  0.00    -0.152 OA
BRANCH   9  12
ATOM     12  C   UNL     1      -4.116   1.414  24.668  0.00  0.00    +0.124 A 
ATOM     13  C   UNL     1      -4.764   0.997  24.966  0.00  0.00    +0.020 A 
ATOM     14  C   UNL     1      -5.471   1.391  25.123  0.00  0.00    +0.001 A 
ATOM     15  C   UNL     1      -5.532   2.202  24.983  0.00  0.00    +0.000 A 
ATOM     16  C   UNL     1      -4.886   2.619  24.684  0.00  0.00    +0.001 A 
ATOM     17  C   UNL     1      -4.178   2.225  24.527  0.00  0.00    +0.020 A 
ENDBRANCH   9  12
ENDBRANCH   8   9
ENDBRANCH   7   8
ENDBRANCH   6   7
BRANCH   3  18
ATOM     18  N   UNL     1       0.734   0.573  23.504  0.00  0.00    -0.206 NA
BRANCH  18  19
ATOM     19  C   UNL     1       1.143  -0.033  23.121  0.00  0.00    +0.154 C 
BRANCH  19  20
ATOM     20  C   UNL     1       1.885   0.113  22.794  0.00  0.00    +0.157 A 
ATOM     21  N   UNL     1       2.509   0.507  23.162  0.00  0.00    -0.226 NA
ATOM     22  C   UNL     1       3.144   0.527  22.636  0.00  0.00    +0.121 A 
ATOM     23  C   UNL     1       2.912   0.146  21.942  0.00  0.00    +0.121 A 
ATOM     24  N   UNL     1       2.135  -0.111  22.039  0.00  0.00    -0.226 NA
ENDBRANCH  19  20
ENDBRANCH  18  19
ENDBRANCH   3  18
TORSDOF 7
ENDMDL
MODEL 4
REMARK VINA RESULT:      -7.0     18.097     19.369
REMARK  Name = 
REMARK  7 active torsions:
REMARK  status: ('A' for Active; 'I' for Inactive)
REMARK    1  A    between atoms: C_3  and  N_18
REMARK    2  A    between atoms: C_6  and  C_7
REMARK    3  A    between atoms: C_7  and  N_8
REMARK    4  A    between atoms: N_8  and  S_9
REMARK    5  A    between atoms: S_9  and  C_12
REMARK    6  A    between atoms: N_18  and  C_19
REMARK    7  A    between atoms: C_19  and  C_20
REMARK                            x       y       z     vdW  Elec       q    Type
REMARK                         _______ _______ _______ _____ _____    ______ ____
ROOT
ATOM      1  O   UNL     1      13.170   6.774  17.929  0.00  0.00    -0.219 OA
ATOM      2  C   UNL     1      12.973   7.384  18.448  0.00  0.00    +0.199 C 
ATOM      3  C   UNL     1      12.349   7.916  18.357  0.00  0.00    +0.136 C 
ATOM      4  C   UNL     1      12.356   8.430  19.002  0.00  0.00    +0.162 C 
ATOM      5  O   UNL     1      12.983   8.216  19.492  0.00  0.00    -0.350 OA
ATOM      6  C   UNL     1      13.365   7.569  19.150  0.00  0.00    +0.166 C 
ENDROOT
BRANCH   6   7
ATOM      7  C   UNL     1      14.023   7.177  19.456  0.00  0.00    +0.148 C 
BRANCH   7   8
ATOM      8  N   UNL     1      14.547   7.577  19.952  0.00  0.00    -0.075 NA
BRANCH   8   9
ATOM      9  S   UNL     1      15.261   7.224  20.168  0.00  0.00    +0.077 S 
ATOM     10  O   UNL     1      15.675   7.840  19.808  0.00  0.00    -0.152 OA
ATOM     11  O   UNL     1      14.847   6.607  20.529  0.00  0.00    -0.152 OA
BRANCH   9  12
ATOM     12  C   UNL     1      15.974   6.871  20.384  0.00  0.00    +0.124 A 
ATOM     13  C   UNL     1      16.479   6.571  19.803  0.00  0.00    +0.020 A 
ATOM     14  C   UNL     1      17.192   6.218  20.019  0.00  0.00    +0.001 A 
ATOM     15  C   UNL     1      17.402   6.164  20.815  0.00  0.00    +0.000 A 
ATOM     16  C   UNL     1      16.898   6.463  21.395  0.00  0.00    +0.001 A 
ATOM     17  C   UNL     1      16.184   6.816  21.180  0.00  0.00    +0.020 A 
ENDBRANCH   9  12
ENDBRANCH   8   9
ENDBRANCH   7   8
ENDBRANCH   6   7
BRANCH   3  18
ATOM     18  N   UNL     1      11.813   7.931  17.730  0.00  0.00    -0.206 NA
BRANCH  18  19
ATOM     19  C   UNL     1      11.456   8.642  17.508  0.00  0.00    +0.154 C 
BRANCH  19  20
ATOM     20  C   UNL     1      11.120   8.719  16.760  0.00  0.00    +0.157 A 
ATOM     21  N   UNL     1      10.380   8.436  16.528  0.00  0.00    -0.226 NA
ATOM     22  C   UNL     1      10.267   8.635  15.736  0.00  0.00    +0.121 A 
ATOM     23  C   UNL     1      10.937   9.042  15.477  0.00  0.00    +0.121 A 
ATOM     24  N   UNL     1      11.464   9.094  16.109  0.00  0.00    -0.226 NA
ENDBRANCH  19  20
ENDBRANCH  18  19
ENDBRANCH   3  18
TORSDOF 7
ENDMDL
MODEL 5
REMARK VINA RESULT:      -6.2     17.640     18.505
REMARK  Name = 
REMARK  7 active torsions:
REMARK  status: ('A' for Active; 'I' for Inactive)
REMARK    1  A    between atoms: C_3  and  N_18
REMARK    2  A    between atoms: C_6  and  C_7
REMARK    3  A    between atoms: C_7  and  N_8
REMARK    4  A    between atoms: N_8  and  S_9
REMARK    5  A    between atoms: S_9  and  C_12
REMARK    6  A    between atoms: N_18  and  C_19
REMARK    7  A    between atoms: C_19  and  C_20
REMARK                            x       y       z     vdW  Elec       q    Type
REMARK                         _______ _______ _______ _____ _____    ______ ____
ROOT
ATOM      1  O   UNL     1      -6.063  -8.159  10.632  0.00  0.00    -0.219 OA
ATOM      2  C   UNL     1      -5.920  -8.516   9.902  0.00  0.00    +0.199 C 
ATOM      3  C   UNL     1      -6.410  -8.479   9.239  0.00  0.00    +0.136 C 
ATOM      4  C   UNL     1      -6.054  -8.913   8.635  0.00  0.00    +0.162 C 
ATOM      5  O   UNL     1      -5.344  -9.219   8.924  0.00  0.00    -0.350 OA
ATOM      6  C   UNL     1      -5.261  -8.974   9.707  0.00  0.00    +0.166 C 
ENDROOT
BRANCH   6   7
ATOM      7  C   UNL     1      -4.631  -9.154  10.206  0.00  0.00    +0.148 C 
BRANCH   7   8
ATOM      8  N   UNL     1      -3.948  -9.502   9.901  0.00  0.00    -0.075 NA
BRANCH   8   9
ATOM      9  S   UNL     1      -3.298  -9.636  10.391  0.00  0.00    +0.077 S 
ATOM     10  O   UNL     1      -3.672 -10.301  10.705  0.00  0.00    -0.152 OA
ATOM     11  O   UNL     1      -2.924  -8.971  10.076  0.00  0.00    -0.152 OA
BRANCH   9  12
ATOM     12  C   UNL     1      -2.648  -9.769  10.880  0.00  0.00    +0.124 A 
ATOM     13  C   UNL     1      -2.655 -10.399  11.414  0.00  0.00    +0.020 A 
ATOM     14  C   UNL     1      -2.006 -10.532  11.904  0.00  0.00    +0.001 A 
ATOM     15  C   UNL     1      -1.347 -10.037  11.861  0.00  0.00    +0.000 A 
ATOM     16  C   UNL     1      -1.339  -9.407  11.327  0.00  0.00    +0.001 A 
ATOM     17  C   UNL     1      -1.990  -9.274  10.837  0.00  0.00    +0.020 A 
ENDBRANCH   9  12
ENDBRANCH   8   9
ENDBRANCH   7   8
ENDBRANCH   6   7
BRANCH   3  18
ATOM     18  N   UNL     1      -7.129  -8.078   9.190  0.00  0.00    -0.206 NA
BRANCH  18  19
ATOM     19  C   UNL     1      -7.435  -7.867   8.453  0.00  0.00    +0.154 C 
BRANCH  19  20
ATOM     20  C   UNL     1      -8.086  -7.364   8.405  0.00  0.00    +0.157 A 
ATOM     21  N   UNL     1      -8.081  -6.588   8.124  0.00  0.00    -0.226 NA
ATOM     22  C   UNL     1      -8.850  -6.293   8.175  0.00  0.00    +0.121 A 
ATOM     23  C   UNL     1      -9.330  -6.887   8.489  0.00  0.00    +0.121 A 
ATOM     24  N   UNL     1      -8.859  -7.548   8.631  0.00  0.00    -0.226 NA
ENDBRANCH  19  20
ENDBRANCH  18  19
ENDBRANCH   3  18
TORSDOF 7
ENDMDL
MODEL 6
REMARK VINA RESULT:      -6.1     15.388     17.630
REMARK  Name = 
REMARK  7 active torsions:
REMARK  status: ('A' for Active; 'I' for Inactive)
REMARK    1  A    between atoms: C_3  and  N_18
REMARK    2  A    between atoms: C_6  and  C_7
REMARK    3  A    between atoms: C_7  and  N_8
REMARK    4  A    between atoms: N_8  and  S_9
REMARK    5  A    between atoms: S_9  and  C_12
REMARK    6  A    between atoms: N_18  and  C_19
REMARK    7  A    between atoms: C_19  and  C_20
REMARK                            x       y       z     vdW  Elec       q    Type
REMARK                         _______ _______ _______ _____ _____    ______ ____
ROOT
ATOM      1  O   UNL     1      -3.970 -10.340  12.990  0.00  0.00    -0.219 OA
ATOM      2  C   UNL     1      -3.214 -10.423  12.671  0.00  0.00    +0.199 C 
ATOM      3  C   UNL     1      -2.517 -10.533  13.098  0.00  0.00    +0.136 C 
ATOM      4  C   UNL     1      -1.895 -10.589  12.560  0.00  0.00    +0.162 C 
ATOM      5  O   UNL     1      -2.207 -10.514  11.800  0.00  0.00    -0.350 OA
ATOM      6  C   UNL     1      -3.022 -10.412  11.868  0.00  0.00    +0.166 C 
ENDROOT
BRANCH   6   7
ATOM      7  C   UNL     1      -3.553 -10.314  11.245  0.00  0.00    +0.148 C 
BRANCH   7   8
ATOM      8  N   UNL     1      -3.297  -9.983  10.534  0.00  0.00    -0.075 NA
BRANCH   8   9
ATOM      9  S   UNL     1      -3.840  -9.830   9.931  0.00  0.00    +0.077 S 
ATOM     10  O   UNL     1      -3.770 -10.610   9.671  0.00  0.00    -0.152 OA
ATOM     11  O   UNL     1      -3.909  -9.050  10.192  0.00  0.00    -0.152 OA
BRANCH   9  12
ATOM     12  C   UNL     1      -4.381  -9.677   9.329  0.00  0.00    +0.124 A 
ATOM     13  C   UNL     1      -4.648  -8.907   9.199  0.00  0.00    +0.020 A 
ATOM     14  C   UNL     1      -5.190  -8.754   8.597  0.00  0.00    +0.001 A 
ATOM     15  C   UNL     1      -5.467  -9.371   8.124  0.00  0.00    +0.000 A 
ATOM     16  C   UNL     1      -5.200 -10.141   8.253  0.00  0.00    +0.001 A 
ATOM     17  C   UNL     1      -4.658 -10.294   8.856  0.00  0.00    +0.020 A 
ENDBRANCH   9  12
ENDBRANCH   8   9
ENDBRANCH   7   8
ENDBRANCH   6   7
BRANCH   3  18
ATOM     18  N   UNL     1      -2.454 -10.579  13.920  0.00  0.00    -0.206 NA
BRANCH  18  19
ATOM     19  C   UNL     1      -1.711 -10.556  14.279  0.00  0.00    +0.154 C 
BRANCH  19  20
ATOM     20  C   UNL     1      -1.649 -10.568  15.101  0.00  0.00    +0.157 A 
ATOM     21  N   UNL     1      -0.979 -10.370  15.540  0.00  0.00    -0.226 NA
ATOM     22  C   UNL     1      -1.163 -10.460  16.339  0.00  0.00    +0.121 A 
ATOM     23  C   UNL     1      -1.946 -10.714  16.394  0.00  0.00    +0.121 A 
ATOM     24  N   UNL     1      -2.247 -10.781  15.629  0.00  0.00    -0.226 NA
ENDBRANCH  19  20
ENDBRANCH  18  19
ENDBRANCH   3  18
TORSDOF 7
ENDMDL
MODEL 7
REMARK VINA RESULT:      -6.1     14.230     16.036
REMARK  Name = 
REMARK  7 active torsions:
REMARK  status: ('A' for Active; 'I' for Inactive)
REMARK    1  A    between atoms: C_3  and  N_18
REMARK    2  A    between atoms: C_6  and  C_7
REMARK    3  A    between atoms: C_7  and  N_8
REMARK    4  A    between atoms: N_8  and  S_9
REMARK    5  A    between atoms: S_9  and  C_12
REMARK    6  A    between atoms: N_18  and  C_19
REMARK    7  A    between atoms: C_19  and  C_20
REMARK                            x       y       z     vdW  Elec       q    Type
REMARK                         _______ _______ _______ _____ _____    ______ ____
ROOT
ATOM      1  O   UNL     1      -4.534 -10.363  13.437  0.00  0.00    -0.219 OA
ATOM      2  C   UNL     1      -5.300 -10.062  13.374  0.00  0.00    +0.199 C 
ATOM      3  C   UNL     1      -5.651  -9.771  12.687  0.00  0.00    +0.136 C 
ATOM      4  C   UNL     1      -6.416  -9.529  12.875  0.00  0.00    +0.162 C 
ATOM      5  O   UNL     1      -6.538  -9.669  13.679  0.00  0.00    -0.350 OA
ATOM      6  C   UNL     1      -5.848  -9.999  13.987  0.00  0.00    +0.166 C 
ENDROOT
BRANCH   6   7
ATOM      7  C   UNL     1      -5.727 -10.226  14.771  0.00  0.00    +0.148 C 
BRANCH   7   8
ATOM      8  N   UNL     1      -6.183  -9.892  15.372  0.00  0.00    -0.075 NA
BRANCH   8   9
ATOM      9  S   UNL     1      -6.031 -10.083  16.160  0.00  0.00    +0.077 S 
ATOM     10  O   UNL     1      -6.468 -10.778  16.076  0.00  0.00    -0.152 OA
ATOM     11  O   UNL     1      -5.594  -9.388  16.244  0.00  0.00    -0.152 OA
BRANCH   9  12
ATOM     12  C   UNL     1      -5.879 -10.273  16.947  0.00  0.00    +0.124 A 
ATOM     13  C   UNL     1      -5.131 -10.545  17.170  0.00  0.00    +0.020 A 
ATOM     14  C   UNL     1      -4.979 -10.736  17.957  0.00  0.00    +0.001 A 
ATOM     15  C   UNL     1      -5.573 -10.655  18.524  0.00  0.00    +0.000 A 
ATOM     16  C   UNL     1      -6.320 -10.384  18.303  0.00  0.00    +0.001 A 
ATOM     17  C   UNL     1      -6.473 -10.193  17.514  0.00  0.00    +0.020 A 
ENDBRANCH   9  12
ENDBRANCH   8   9
ENDBRANCH   7   8
ENDBRANCH   6   7
BRANCH   3  18
ATOM     18  N   UNL     1      -5.299  -9.731  11.942  0.00  0.00    -0.206 NA
BRANCH  18  19
ATOM     19  C   UNL     1      -5.583  -9.199  11.379  0.00  0.00    +0.154 C 
BRANCH  19  20
ATOM     20  C   UNL     1      -5.192  -9.111  10.658  0.00  0.00    +0.157 A 
ATOM     21  N   UNL     1      -4.768  -8.446  10.414  0.00  0.00    -0.226 NA
ATOM     22  C   UNL     1      -4.469  -8.596   9.660  0.00  0.00    +0.121 A 
ATOM     23  C   UNL     1      -4.708  -9.355   9.438  0.00  0.00    +0.121 A 
ATOM     24  N   UNL     1      -5.154  -9.673  10.055  0.00  0.00    -0.226 NA
ENDBRANCH  19  20
ENDBRANCH  18  19
ENDBRANCH   3  18
TORSDOF 7
ENDMDL
MODEL 8
REMARK VINA RESULT:      -5.9     14.631     16.646
REMARK  Name = 
REMARK  7 active torsions:
REMARK  status: ('A' for Active; 'I' for Inactive)
REMARK    1  A    between atoms: C_3  and  N_18
REMARK    2  A    between atoms: C_6  and  C_7
REMARK    3  A    between atoms: C_7  and  N_8
REMARK    4  A    between atoms: N_8  and  S_9
REMARK    5  A    between atoms: S_9  and  C_12
REMARK    6  A    between atoms: N_18  and  C_19
REMARK    7  A    between atoms: C_19  and  C_20
REMARK                            x       y       z     vdW  Elec       q    Type
REMARK                         _______ _______ _______ _____ _____    ______ ____
ROOT
ATOM      1  O   UNL     1      -4.231 -10.630  14.081  0.00  0.00    -0.219 OA
ATOM      2  C   UNL     1      -5.002 -10.338  14.040  0.00  0.00    +0.199 C 
ATOM      3  C   UNL     1      -5.527 -10.266  14.672  0.00  0.00    +0.136 C 
ATOM      4  C   UNL     1      -6.232  -9.951  14.382  0.00  0.00    +0.162 C 
ATOM      5  O   UNL     1      -6.143  -9.830  13.571  0.00  0.00    -0.350 OA
ATOM      6  C   UNL     1      -5.383 -10.069  13.359  0.00  0.00    +0.166 C 
ENDROOT
BRANCH   6   7
ATOM      7  C   UNL     1      -5.060 -10.043  12.601  0.00  0.00    +0.148 C 
BRANCH   7   8
ATOM      8  N   UNL     1      -5.466  -9.661  11.993  0.00  0.00    -0.075 NA
BRANCH   8   9
ATOM      9  S   UNL     1      -5.085  -9.505  11.277  0.00  0.00    +0.077 S 
ATOM     10  O   UNL     1      -5.034 -10.315  11.128  0.00  0.00    -0.152 OA
ATOM     11  O   UNL     1      -5.137  -8.695  11.427  0.00  0.00    -0.152 OA
BRANCH   9  12
ATOM     12  C   UNL     1      -4.705  -9.349  10.563  0.00  0.00    +0.124 A 
ATOM     13  C   UNL     1      -5.148  -9.167   9.890  0.00  0.00    +0.020 A 
ATOM     14  C   UNL     1      -4.768  -9.011   9.175  0.00  0.00    +0.001 A 
ATOM     15  C   UNL     1      -3.945  -9.037   9.131  0.00  0.00    +0.000 A 
ATOM     16  C   UNL     1      -3.502  -9.218   9.803  0.00  0.00    +0.001 A 
ATOM     17  C   UNL     1      -3.882  -9.374  10.518  0.00  0.00    +0.020 A 
ENDBRANCH   9  12
ENDBRANCH   8   9
ENDBRANCH   7   8
ENDBRANCH   6   7
BRANCH   3  18
ATOM     18  N   UNL     1      -5.373 -10.471  15.456  0.00  0.00    -0.206 NA
BRANCH  18  19
ATOM     19  C   UNL     1      -5.783 -10.099  16.068  0.00  0.00    +0.154 C 
BRANCH  19  20
ATOM     20  C   UNL     1      -5.659 -10.333  16.849  0.00  0.00    +0.157 A 
ATOM     21  N   UNL     1      -4.937 -10.327  17.249  0.00  0.00    -0.226 NA
ATOM     22  C   UNL     1      -5.067 -10.603  18.015  0.00  0.00    +0.121 A 
ATOM     23  C   UNL     1      -5.869 -10.780  18.090  0.00  0.00    +0.121 A 
ATOM     24  N   UNL     1      -6.235 -10.613  17.370  0.00  0.00    -0.226 NA
ENDBRANCH  19  20
ENDBRANCH  18  19
ENDBRANCH   3  18
TORSDOF 7
ENDMDL
MODEL 9
REMARK VINA RESULT:      -5.9     14.246     14.874
REMARK  Name = 
REMARK  7 active torsions:
REMARK  status: ('A' for Active; 'I' for Inactive)
REMARK    1  A    between atoms: C_3  and  N_18
REMARK    2  A    between atoms: C_6  and  C_7
REMARK    3  A    between atoms: C_7  and  N_8
REMARK    4  A    between atoms: N_8  and  S_9
REMARK    5  A    between atoms: S_9  and  C_12
REMARK    6  A    between atoms: N_18  and  C_19
REMARK    7  A    between atoms: C_19  and  C_20
REMARK                            x       y       z     vdW  Elec       q    Type
REMARK                         _______ _______ _______ _____ _____    ______ ____
ROOT
ATOM      1  O   UNL     1      -5.196 -10.546  15.098  0.00  0.00    -0.219 OA
ATOM      2  C   UNL     1      -5.039 -10.459  15.903  0.00  0.00    +0.199 C 
ATOM      3  C   UNL     1      -4.305 -10.553  16.267  0.00  0.00    +0.136 C 
ATOM      4  C   UNL     1      -4.401 -10.415  17.074  0.00  0.00    +0.162 C 
ATOM      5  O   UNL     1      -5.195 -10.236  17.209  0.00  0.00    -0.350 OA
ATOM      6  C   UNL     1      -5.590 -10.263  16.486  0.00  0.00    +0.166 C 
ENDROOT
BRANCH   6   7
ATOM      7  C   UNL     1      -6.393 -10.120  16.366  0.00  0.00    +0.148 C 
BRANCH   7   8
ATOM      8  N   UNL     1      -6.880  -9.939  17.007  0.00  0.00    -0.075 NA
BRANCH   8   9
ATOM      9  S   UNL     1      -7.668  -9.731  16.880  0.00  0.00    +0.077 S 
ATOM     10  O   UNL     1      -7.449  -8.938  16.820  0.00  0.00    -0.152 OA
ATOM     11  O   UNL     1      -7.887 -10.525  16.940  0.00  0.00    -0.152 OA
BRANCH   9  12
ATOM     12  C   UNL     1      -8.456  -9.524  16.754  0.00  0.00    +0.124 A 
ATOM     13  C   UNL     1      -8.930  -9.294  17.390  0.00  0.00    +0.020 A 
ATOM     14  C   UNL     1      -9.718  -9.087  17.263  0.00  0.00    +0.001 A 
ATOM     15  C   UNL     1     -10.033  -9.108  16.501  0.00  0.00    +0.000 A 
ATOM     16  C   UNL     1      -9.560  -9.337  15.865  0.00  0.00    +0.001 A 
ATOM     17  C   UNL     1      -8.772  -9.545  15.992  0.00  0.00    +0.020 A 
ENDBRANCH   9  12
ENDBRANCH   8   9
ENDBRANCH   7   8
ENDBRANCH   6   7
BRANCH   3  18
ATOM     18  N   UNL     1      -3.598 -10.750  15.889  0.00  0.00    -0.206 NA
BRANCH  18  19
ATOM     19  C   UNL     1      -2.889 -10.743  16.310  0.00  0.00    +0.154 C 
BRANCH  19  20
ATOM     20  C   UNL     1      -2.170 -10.725  15.908  0.00  0.00    +0.157 A 
ATOM     21  N   UNL     1      -1.423 -10.649  16.251  0.00  0.00    -0.226 NA
ATOM     22  C   UNL     1      -0.862 -10.657  15.646  0.00  0.00    +0.121 A 
ATOM     23  C   UNL     1      -1.262 -10.739  14.929  0.00  0.00    +0.121 A 
ATOM     24  N   UNL     1      -2.070 -10.781  15.090  0.00  0.00    -0.226 NA
ENDBRANCH  19  20
ENDBRANCH  18  19
ENDBRANCH   3  18
TORSDOF 7
ENDMDL
MODEL 10
REMARK VINA RESULT:      -5.9     16.157     18.799
REMARK  Name = 
REMARK  7 active torsions:
REMARK  status: ('A' for Active; 'I' for Inactive)
REMARK    1  A    between atoms: C_3  and  N_18
REMARK    2  A    between atoms: C_6  and  C_7
REMARK    3  A    between atoms: C_7  and  N_8
REMARK    4  A    between atoms: N_8  and  S_9
REMARK    5  A    between atoms: S_9  and  C_12
REMARK    6  A    between atoms: N_18  and  C_19
REMARK    7  A    between atoms: C_19  and  C_20
REMARK                            x       y       z     vdW  Elec       q    Type
REMARK                         _______ _______ _______ _____ _____    ______ ____
ROOT
ATOM      1  O   UNL     1      12.557   6.542  20.193  0.00  0.00    -0.219 OA
ATOM      2  C   UNL     1      12.601   7.262  19.793  0.00  0.00    +0.199 C 
ATOM      3  C   UNL     1      12.044   7.869  19.824  0.00  0.00    +0.136 C 
ATOM      4  C   UNL     1      12.309   8.484  19.342  0.00  0.00    +0.162 C 
ATOM      5  O   UNL     1      13.030   8.256  19.013  0.00  0.00    -0.350 OA
ATOM      6  C   UNL     1      13.211   7.502  19.291  0.00  0.00    +0.166 C 
ENDROOT
BRANCH   6   7
ATOM      7  C   UNL     1      13.883   7.063  19.102  0.00  0.00    +0.148 C 
BRANCH   7   8
ATOM      8  N   UNL     1      14.608   7.444  19.000  0.00  0.00    -0.075 NA
BRANCH   8   9
ATOM      9  S   UNL     1      15.308   7.005  19.000  0.00  0.00    +0.077 S 
ATOM     10  O   UNL     1      15.235   6.889  18.186  0.00  0.00    -0.152 OA
ATOM     11  O   UNL     1      15.380   7.122  19.814  0.00  0.00    -0.152 OA
BRANCH   9  12
ATOM     12  C   UNL     1      16.006   6.568  19.001  0.00  0.00    +0.124 A 
ATOM     13  C   UNL     1      16.481   6.549  19.676  0.00  0.00    +0.020 A 
ATOM     14  C   UNL     1      17.180   6.112  19.677  0.00  0.00    +0.001 A 
ATOM     15  C   UNL     1      17.405   5.692  19.004  0.00  0.00    +0.000 A 
ATOM     16  C   UNL     1      16.931   5.710  18.329  0.00  0.00    +0.001 A 
ATOM     17  C   UNL     1      16.232   6.148  18.328  0.00  0.00    +0.020 A 
ENDBRANCH   9  12
ENDBRANCH   8   9
ENDBRANCH   7   8
ENDBRANCH   6   7
BRANCH   3  18
ATOM     18  N   UNL     1      11.343   7.863  20.261  0.00  0.00    -0.206 NA
BRANCH  18  19
ATOM     19  C   UNL     1      11.112   8.535  20.680  0.00  0.00    +0.154 C 
BRANCH  19  20
ATOM     20  C   UNL     1      10.732   8.457  21.407  0.00  0.00    +0.157 A 
ATOM     21  N   UNL     1      10.734   9.013  22.018  0.00  0.00    -0.226 NA
ATOM     22  C   UNL     1      10.287   8.709  22.641  0.00  0.00    +0.121 A 
ATOM     23  C   UNL     1      10.008   7.965  22.415  0.00  0.00    +0.121 A 
ATOM     24  N   UNL     1      10.283   7.810  21.654  0.00  0.00    -0.226 NA
ENDBRANCH  19  20
ENDBRANCH  18  19
ENDBRANCH   3  18
TORSDOF 7
ENDMDL
