REMARK  Name = 
REMARK  6 active torsions:
REMARK  status: ('A' for Active; 'I' for Inactive)
REMARK    1  A    between atoms: C_5  and  N_8
REMARK    2  A    between atoms: N_8  and  C_9
REMARK    3  A    between atoms: C_9  and  C_10
REMARK    4  A    between atoms: C_12  and  C_13
REMARK    5  A    between atoms: C_13  and  C_14
REMARK    6  A    between atoms: C_17  and  C_19
REMARK                            x       y       z     vdW  Elec       q    Type
REMARK                         _______ _______ _______ _____ _____    ______ ____
ROOT
ATOM     10  C   UNL     1       2.858   0.000   0.000  0.00  0.00    +0.163 C 
ATOM     11  O   UNL     1       2.143  -0.412   0.000  0.00  0.00    -0.354 OA
ATOM     12  C   UNL     1       1.429   0.000   0.000  0.00  0.00    +0.121 C 
ATOM     26  C   UNL     1       1.429   0.825   0.000  0.00  0.00    +0.033 C 
ATOM     27  C   UNL     1       2.143   1.238   0.000  0.00  0.00    +0.038 C 
ATOM     28  C   UNL     1       2.858   0.825   0.000  0.00  0.00    +0.180 C 
ATOM     29  O   UNL     1       3.572   1.238   0.000  0.00  0.00    -0.220 OA
ENDROOT
BRANCH  10   9
ATOM      9  C   UNL     1       3.572  -0.412   0.000  0.00  0.00    +0.121 C 
BRANCH   9   8
ATOM      8  N   UNL     1       4.287   0.000   0.000  0.00  0.00    -0.217 NA
BRANCH   8   5
ATOM      1  C   UNL     1       7.145  -1.650   0.000  0.00  0.00    +0.090 C 
ATOM      2  N   UNL     1       6.430  -1.238   0.000  0.00  0.00    -0.271 NA
ATOM      3  C   UNL     1       5.716  -1.650   0.000  0.00  0.00    +0.074 C 
ATOM      4  C   UNL     1       5.001  -1.238   0.000  0.00  0.00    +0.035 C 
ATOM      5  C   UNL     1       5.001  -0.412   0.000  0.00  0.00    +0.076 C 
ATOM      6  C   UNL     1       5.716   0.000   0.000  0.00  0.00    +0.035 C 
ATOM      7  C   UNL     1       6.430  -0.412   0.000  0.00  0.00    +0.074 C 
ENDBRANCH   8   5
ENDBRANCH   9   8
ENDBRANCH  10   9
BRANCH  12  13
ATOM     13  C   UNL     1       0.715  -0.412   0.000  0.00  0.00    +0.079 C 
BRANCH  13  14
ATOM     14  C   UNL     1       0.715  -1.238   0.000  0.00  0.00    +0.103 A 
ATOM     15  N   UNL     1       1.382  -1.722   0.000  0.00  0.00    -0.081 NA
ATOM     16  O   UNL     1       1.127  -2.507   0.000  0.00  0.00    -0.354 OA
ATOM     17  C   UNL     1       0.302  -2.507   0.000  0.00  0.00    +0.177 A 
ATOM     18  C   UNL     1       0.047  -1.722   0.000  0.00  0.00    +0.058 A 
BRANCH  17  19
ATOM     19  C   UNL     1      -0.183  -3.175   0.000  0.00  0.00    +0.037 A 
ATOM     20  C   UNL     1       0.153  -3.928   0.000  0.00  0.00    +0.005 A 
ATOM     21  C   UNL     1      -0.332  -4.596   0.000  0.00  0.00    +0.030 A 
ATOM     22  C   UNL     1      -1.153  -4.509   0.000  0.00  0.00    +0.140 A 
ATOM     23  F   UNL     1      -1.638  -5.177   0.000  0.00  0.00    -0.204 F 
ATOM     24  C   UNL     1      -1.488  -3.756   0.000  0.00  0.00    +0.030 A 
ATOM     25  C   UNL     1      -1.003  -3.088   0.000  0.00  0.00    +0.005 A 
ENDBRANCH  17  19
ENDBRANCH  13  14
ENDBRANCH  12  13
TORSDOF 6
