MODEL 1
REMARK VINA RESULT:     -14.8      0.000      0.000
REMARK  Name = 
REMARK  3 active torsions:
REMARK  status: ('A' for Active; 'I' for Inactive)
REMARK    1  A    between atoms: C_6  and  C_9
REMARK    2  A    between atoms: C_18  and  N_26
REMARK    3  A    between atoms: N_26  and  S_27
REMARK                            x       y       z     vdW  Elec       q    Type
REMARK                         _______ _______ _______ _____ _____    ______ ____
ROOT
ATOM      9  C   UNL     1      -4.051  -0.125  24.693  0.00  0.00    -0.000 A 
ATOM     10  C   UNL     1      -4.803   0.177  24.847  0.00  0.00    +0.001 A 
ATOM     11  C   UNL     1      -4.896   0.975  25.034  0.00  0.00    +0.017 A 
ATOM     12  C   UNL     1      -4.238   1.471  25.068  0.00  0.00    +0.078 A 
ATOM     13  N   UNL     1      -4.453   2.243  25.264  0.00  0.00    -0.178 NA
ATOM     14  C   UNL     1      -3.968   2.904  25.354  0.00  0.00    +0.264 C 
ATOM     15  O   UNL     1      -4.352   3.606  25.554  0.00  0.00    -0.271 OA
ATOM     16  C   UNL     1      -3.148   2.957  25.271  0.00  0.00    +0.155 C 
ATOM     17  C   UNL     1      -2.879   3.724  25.409  0.00  0.00    +0.049 C 
ATOM     18  C   UNL     1      -2.074   3.896  25.354  0.00  0.00    +0.101 C 
ATOM     19  C   UNL     1      -1.538   3.299  25.160  0.00  0.00    +0.041 C 
ATOM     20  C   UNL     1      -1.807   2.532  25.021  0.00  0.00    +0.096 C 
ATOM     21  N   UNL     1      -2.612   2.360  25.077  0.00  0.00    -0.269 N 
ATOM     22  C   UNL     1      -2.762   1.565  24.918  0.00  0.00    +0.251 C 
ATOM     23  O   UNL     1      -2.102   1.105  24.739  0.00  0.00    -0.270 OA
ATOM     24  C   UNL     1      -3.487   1.169  24.914  0.00  0.00    +0.069 A 
ATOM     25  C   UNL     1      -3.393   0.371  24.727  0.00  0.00    +0.006 A 
ENDROOT
BRANCH   9   6
ATOM      1  C   UNL     1      -3.338  -2.782  25.466  0.00  0.00    +0.031 C 
ATOM      2  C   UNL     1      -3.601  -2.252  24.892  0.00  0.00    -0.026 A 
ATOM      3  C   UNL     1      -3.769  -2.519  24.130  0.00  0.00    -0.005 A 
ATOM      4  C   UNL     1      -4.031  -1.988  23.555  0.00  0.00    -0.000 A 
ATOM      5  C   UNL     1      -4.125  -1.190  23.743  0.00  0.00    -0.000 A 
ATOM      6  C   UNL     1      -3.957  -0.922  24.506  0.00  0.00    -0.004 A 
ATOM      7  C   UNL     1      -3.695  -1.454  25.080  0.00  0.00    -0.026 A 
ATOM      8  C   UNL     1      -3.526  -1.187  25.843  0.00  0.00    +0.031 C 
ENDBRANCH   9   6
BRANCH  18  26
ATOM     26  N   UNL     1      -1.805   4.663  25.493  0.00  0.00    -0.083 NA
BRANCH  26  27
ATOM     27  S   UNL     1      -1.236   4.997  24.996  0.00  0.00    +0.059 S 
ATOM     28  C   UNL     1      -0.669   5.331  24.501  0.00  0.00    +0.197 C 
ATOM     29  O   UNL     1      -0.646   4.578  25.391  0.00  0.00    -0.156 OA
ATOM     30  O   UNL     1      -1.828   5.416  24.602  0.00  0.00    -0.156 OA
ENDBRANCH  26  27
ENDBRANCH  18  26
TORSDOF 3
ENDMDL
MODEL 2
REMARK VINA RESULT:     -13.6      2.413      5.665
REMARK  Name = 
REMARK  3 active torsions:
REMARK  status: ('A' for Active; 'I' for Inactive)
REMARK    1  A    between atoms: C_6  and  C_9
REMARK    2  A    between atoms: C_18  and  N_26
REMARK    3  A    between atoms: N_26  and  S_27
REMARK                            x       y       z     vdW  Elec       q    Type
REMARK                         _______ _______ _______ _____ _____    ______ ____
ROOT
ATOM      9  C   UNL     1      -1.375   2.761  25.511  0.00  0.00    -0.000 A 
ATOM     10  C   UNL     1      -0.657   2.525  25.840  0.00  0.00    +0.001 A 
ATOM     11  C   UNL     1      -0.461   1.724  25.871  0.00  0.00    +0.017 A 
ATOM     12  C   UNL     1      -0.983   1.160  25.572  0.00  0.00    +0.078 A 
ATOM     13  N   UNL     1      -0.682   0.396  25.657  0.00  0.00    -0.178 NA
ATOM     14  C   UNL     1      -1.025  -0.319  25.432  0.00  0.00    +0.264 C 
ATOM     15  O   UNL     1      -0.581  -0.995  25.593  0.00  0.00    -0.271 OA
ATOM     16  C   UNL     1      -1.754  -0.449  25.068  0.00  0.00    +0.155 C 
ATOM     17  C   UNL     1      -1.888  -1.252  24.939  0.00  0.00    +0.049 C 
ATOM     18  C   UNL     1      -2.588  -1.501  24.579  0.00  0.00    +0.101 C 
ATOM     19  C   UNL     1      -3.153  -0.946  24.350  0.00  0.00    +0.041 C 
ATOM     20  C   UNL     1      -3.019  -0.143  24.479  0.00  0.00    +0.096 C 
ATOM     21  N   UNL     1      -2.320   0.106  24.839  0.00  0.00    -0.269 N 
ATOM     22  C   UNL     1      -2.296   0.927  24.916  0.00  0.00    +0.251 C 
ATOM     23  O   UNL     1      -2.955   1.333  24.629  0.00  0.00    -0.270 OA
ATOM     24  C   UNL     1      -1.701   1.396  25.243  0.00  0.00    +0.069 A 
ATOM     25  C   UNL     1      -1.897   2.196  25.212  0.00  0.00    +0.006 A 
ENDROOT
BRANCH   9   6
ATOM      1  C   UNL     1      -0.827   5.411  24.591  0.00  0.00    +0.031 C 
ATOM      2  C   UNL     1      -1.298   4.887  25.020  0.00  0.00    -0.026 A 
ATOM      3  C   UNL     1      -1.965   5.163  25.419  0.00  0.00    -0.005 A 
ATOM      4  C   UNL     1      -2.436   4.639  25.848  0.00  0.00    -0.000 A 
ATOM      5  C   UNL     1      -2.239   3.838  25.879  0.00  0.00    -0.000 A 
ATOM      6  C   UNL     1      -1.571   3.561  25.480  0.00  0.00    -0.004 A 
ATOM      7  C   UNL     1      -1.101   4.087  25.050  0.00  0.00    -0.026 A 
ATOM      8  C   UNL     1      -0.433   3.810  24.652  0.00  0.00    +0.031 C 
ENDBRANCH   9   6
BRANCH  18  26
ATOM     26  N   UNL     1      -2.722  -2.305  24.449  0.00  0.00    -0.083 NA
BRANCH  26  27
ATOM     27  S   UNL     1      -3.494  -2.586  24.363  0.00  0.00    +0.059 S 
ATOM     28  C   UNL     1      -4.264  -2.867  24.277  0.00  0.00    +0.197 C 
ATOM     29  O   UNL     1      -3.449  -2.458  23.549  0.00  0.00    -0.156 OA
ATOM     30  O   UNL     1      -3.537  -2.713  25.178  0.00  0.00    -0.156 OA
ENDBRANCH  26  27
ENDBRANCH  18  26
TORSDOF 3
ENDMDL
MODEL 3
REMARK VINA RESULT:     -13.0      1.259      2.058
REMARK  Name = 
REMARK  3 active torsions:
REMARK  status: ('A' for Active; 'I' for Inactive)
REMARK    1  A    between atoms: C_6  and  C_9
REMARK    2  A    between atoms: C_18  and  N_26
REMARK    3  A    between atoms: N_26  and  S_27
REMARK                            x       y       z     vdW  Elec       q    Type
REMARK                         _______ _______ _______ _____ _____    ______ ____
ROOT
ATOM      9  C   UNL     1      -2.413  -0.726  24.467  0.00  0.00    -0.000 A 
ATOM     10  C   UNL     1      -1.624  -0.961  24.418  0.00  0.00    +0.001 A 
ATOM     11  C   UNL     1      -1.022  -0.411  24.544  0.00  0.00    +0.017 A 
ATOM     12  C   UNL     1      -1.209   0.373  24.718  0.00  0.00    +0.078 A 
ATOM     13  N   UNL     1      -0.529   0.828  24.823  0.00  0.00    -0.178 NA
ATOM     14  C   UNL     1      -0.471   1.631  25.003  0.00  0.00    +0.264 C 
ATOM     15  O   UNL     1       0.296   1.928  25.073  0.00  0.00    -0.271 OA
ATOM     16  C   UNL     1      -1.078   2.178  25.122  0.00  0.00    +0.155 C 
ATOM     17  C   UNL     1      -0.780   2.928  25.291  0.00  0.00    +0.049 C 
ATOM     18  C   UNL     1      -1.297   3.556  25.429  0.00  0.00    +0.101 C 
ATOM     19  C   UNL     1      -2.112   3.433  25.397  0.00  0.00    +0.041 C 
ATOM     20  C   UNL     1      -2.410   2.683  25.228  0.00  0.00    +0.096 C 
ATOM     21  N   UNL     1      -1.893   2.055  25.091  0.00  0.00    -0.269 N 
ATOM     22  C   UNL     1      -2.302   1.357  24.933  0.00  0.00    +0.251 C 
ATOM     23  O   UNL     1      -3.125   1.414  24.942  0.00  0.00    -0.270 OA
ATOM     24  C   UNL     1      -1.998   0.607  24.767  0.00  0.00    +0.069 A 
ATOM     25  C   UNL     1      -2.600   0.059  24.641  0.00  0.00    +0.006 A 
ENDROOT
BRANCH   9   6
ATOM      1  C   UNL     1      -3.559  -3.299  24.952  0.00  0.00    +0.031 C 
ATOM      2  C   UNL     1      -3.589  -2.562  24.584  0.00  0.00    -0.026 A 
ATOM      3  C   UNL     1      -4.222  -2.374  24.090  0.00  0.00    -0.005 A 
ATOM      4  C   UNL     1      -4.252  -1.635  23.721  0.00  0.00    -0.000 A 
ATOM      5  C   UNL     1      -3.649  -1.087  23.847  0.00  0.00    -0.000 A 
ATOM      6  C   UNL     1      -3.016  -1.275  24.341  0.00  0.00    -0.004 A 
ATOM      7  C   UNL     1      -2.986  -2.013  24.710  0.00  0.00    -0.026 A 
ATOM      8  C   UNL     1      -2.353  -2.202  25.204  0.00  0.00    +0.031 C 
ENDBRANCH   9   6
BRANCH  18  26
ATOM     26  N   UNL     1      -0.999   4.306  25.598  0.00  0.00    -0.083 NA
BRANCH  26  27
ATOM     27  S   UNL     1      -1.246   4.958  25.155  0.00  0.00    +0.059 S 
ATOM     28  C   UNL     1      -1.492   5.609  24.713  0.00  0.00    +0.197 C 
ATOM     29  O   UNL     1      -1.919   5.023  25.628  0.00  0.00    -0.156 OA
ATOM     30  O   UNL     1      -0.572   4.892  24.683  0.00  0.00    -0.156 OA
ENDBRANCH  26  27
ENDBRANCH  18  26
TORSDOF 3
ENDMDL
MODEL 4
REMARK VINA RESULT:     -12.5      2.240      5.323
REMARK  Name = 
REMARK  3 active torsions:
REMARK  status: ('A' for Active; 'I' for Inactive)
REMARK    1  A    between atoms: C_6  and  C_9
REMARK    2  A    between atoms: C_18  and  N_26
REMARK    3  A    between atoms: N_26  and  S_27
REMARK                            x       y       z     vdW  Elec       q    Type
REMARK                         _______ _______ _______ _____ _____    ______ ____
ROOT
ATOM      9  C   UNL     1      -2.422   3.072  24.648  0.00  0.00    -0.000 A 
ATOM     10  C   UNL     1      -3.191   3.286  24.444  0.00  0.00    +0.001 A 
ATOM     11  C   UNL     1      -3.783   2.712  24.406  0.00  0.00    +0.017 A 
ATOM     12  C   UNL     1      -3.605   1.924  24.572  0.00  0.00    +0.078 A 
ATOM     13  N   UNL     1      -4.271   1.444  24.502  0.00  0.00    -0.178 NA
ATOM     14  C   UNL     1      -4.333   0.629  24.620  0.00  0.00    +0.264 C 
ATOM     15  O   UNL     1      -5.083   0.307  24.506  0.00  0.00    -0.271 OA
ATOM     16  C   UNL     1      -3.743   0.094  24.835  0.00  0.00    +0.155 C 
ATOM     17  C   UNL     1      -4.038  -0.674  24.894  0.00  0.00    +0.049 C 
ATOM     18  C   UNL     1      -3.536  -1.294  25.104  0.00  0.00    +0.101 C 
ATOM     19  C   UNL     1      -2.739  -1.146  25.256  0.00  0.00    +0.041 C 
ATOM     20  C   UNL     1      -2.444  -0.378  25.197  0.00  0.00    +0.096 C 
ATOM     21  N   UNL     1      -2.946   0.242  24.987  0.00  0.00    -0.269 N 
ATOM     22  C   UNL     1      -2.542   0.961  24.961  0.00  0.00    +0.251 C 
ATOM     23  O   UNL     1      -1.738   0.927  25.144  0.00  0.00    -0.270 OA
ATOM     24  C   UNL     1      -2.835   1.710  24.776  0.00  0.00    +0.069 A 
ATOM     25  C   UNL     1      -2.244   2.283  24.814  0.00  0.00    +0.006 A 
ENDROOT
BRANCH   9   6
ATOM      1  C   UNL     1      -1.558   5.693  25.392  0.00  0.00    +0.031 C 
ATOM      2  C   UNL     1      -1.398   4.956  25.058  0.00  0.00    -0.026 A 
ATOM      3  C   UNL     1      -0.645   4.792  24.763  0.00  0.00    -0.005 A 
ATOM      4  C   UNL     1      -0.485   4.054  24.429  0.00  0.00    -0.000 A 
ATOM      5  C   UNL     1      -1.077   3.481  24.391  0.00  0.00    -0.000 A 
ATOM      6  C   UNL     1      -1.830   3.645  24.687  0.00  0.00    -0.004 A 
ATOM      7  C   UNL     1      -1.990   4.383  25.020  0.00  0.00    -0.026 A 
ATOM      8  C   UNL     1      -2.743   4.547  25.315  0.00  0.00    +0.031 C 
ENDBRANCH   9   6
BRANCH  18  26
ATOM     26  N   UNL     1      -3.832  -2.062  25.162  0.00  0.00    -0.083 NA
BRANCH  26  27
ATOM     27  S   UNL     1      -3.459  -2.679  24.760  0.00  0.00    +0.059 S 
ATOM     28  C   UNL     1      -3.087  -3.296  24.358  0.00  0.00    +0.197 C 
ATOM     29  O   UNL     1      -3.918  -2.521  24.093  0.00  0.00    -0.156 OA
ATOM     30  O   UNL     1      -3.001  -2.837  25.428  0.00  0.00    -0.156 OA
ENDBRANCH  26  27
ENDBRANCH  18  26
TORSDOF 3
ENDMDL
MODEL 5
REMARK VINA RESULT:     -11.2      2.724      4.248
REMARK  Name = 
REMARK  3 active torsions:
REMARK  status: ('A' for Active; 'I' for Inactive)
REMARK    1  A    between atoms: C_6  and  C_9
REMARK    2  A    between atoms: C_18  and  N_26
REMARK    3  A    between atoms: N_26  and  S_27
REMARK                            x       y       z     vdW  Elec       q    Type
REMARK                         _______ _______ _______ _____ _____    ______ ____
ROOT
ATOM      9  C   UNL     1      -3.786   1.025  25.082  0.00  0.00    -0.000 A 
ATOM     10  C   UNL     1      -3.930   0.273  25.388  0.00  0.00    +0.001 A 
ATOM     11  C   UNL     1      -3.353  -0.314  25.329  0.00  0.00    +0.017 A 
ATOM     12  C   UNL     1      -2.632  -0.149  24.964  0.00  0.00    +0.078 A 
ATOM     13  N   UNL     1      -2.137  -0.808  24.964  0.00  0.00    -0.178 NA
ATOM     14  C   UNL     1      -1.374  -0.878  24.657  0.00  0.00    +0.264 C 
ATOM     15  O   UNL     1      -1.020  -1.618  24.744  0.00  0.00    -0.271 OA
ATOM     16  C   UNL     1      -0.919  -0.306  24.275  0.00  0.00    +0.155 C 
ATOM     17  C   UNL     1      -0.183  -0.605  24.053  0.00  0.00    +0.049 C 
ATOM     18  C   UNL     1       0.359  -0.121  23.662  0.00  0.00    +0.101 C 
ATOM     19  C   UNL     1       0.164   0.663  23.493  0.00  0.00    +0.041 C 
ATOM     20  C   UNL     1      -0.572   0.961  23.714  0.00  0.00    +0.096 C 
ATOM     21  N   UNL     1      -1.114   0.477  24.105  0.00  0.00    -0.269 N 
ATOM     22  C   UNL     1      -1.812   0.882  24.276  0.00  0.00    +0.251 C 
ATOM     23  O   UNL     1      -1.838   1.670  24.032  0.00  0.00    -0.270 OA
ATOM     24  C   UNL     1      -2.489   0.603  24.658  0.00  0.00    +0.069 A 
ATOM     25  C   UNL     1      -3.065   1.190  24.717  0.00  0.00    +0.006 A 
ENDROOT
BRANCH   9   6
ATOM      1  C   UNL     1      -6.494   1.878  24.753  0.00  0.00    +0.031 C 
ATOM      2  C   UNL     1      -5.716   2.039  24.977  0.00  0.00    -0.026 A 
ATOM      3  C   UNL     1      -5.515   2.787  25.259  0.00  0.00    -0.005 A 
ATOM      4  C   UNL     1      -4.737   2.948  25.483  0.00  0.00    -0.000 A 
ATOM      5  C   UNL     1      -4.161   2.361  25.424  0.00  0.00    -0.000 A 
ATOM      6  C   UNL     1      -4.362   1.612  25.141  0.00  0.00    -0.004 A 
ATOM      7  C   UNL     1      -5.140   1.451  24.918  0.00  0.00    -0.026 A 
ATOM      8  C   UNL     1      -5.342   0.702  24.635  0.00  0.00    +0.031 C 
ENDBRANCH   9   6
BRANCH  18  26
ATOM     26  N   UNL     1       1.095  -0.419  23.441  0.00  0.00    -0.083 NA
BRANCH  26  27
ATOM     27  S   UNL     1       1.467  -0.139  22.759  0.00  0.00    +0.059 S 
ATOM     28  C   UNL     1       1.838   0.142  22.079  0.00  0.00    +0.197 C 
ATOM     29  O   UNL     1       1.000  -0.640  22.299  0.00  0.00    -0.156 OA
ATOM     30  O   UNL     1       1.933   0.362  23.221  0.00  0.00    -0.156 OA
ENDBRANCH  26  27
ENDBRANCH  18  26
TORSDOF 3
ENDMDL
MODEL 6
REMARK VINA RESULT:     -11.0      3.561      4.261
REMARK  Name = 
REMARK  3 active torsions:
REMARK  status: ('A' for Active; 'I' for Inactive)
REMARK    1  A    between atoms: C_6  and  C_9
REMARK    2  A    between atoms: C_18  and  N_26
REMARK    3  A    between atoms: N_26  and  S_27
REMARK                            x       y       z     vdW  Elec       q    Type
REMARK                         _______ _______ _______ _____ _____    ______ ____
ROOT
ATOM      9  C   UNL     1      -1.938  -0.565  24.709  0.00  0.00    -0.000 A 
ATOM     10  C   UNL     1      -2.051   0.126  25.145  0.00  0.00    +0.001 A 
ATOM     11  C   UNL     1      -1.482   0.724  25.125  0.00  0.00    +0.017 A 
ATOM     12  C   UNL     1      -0.801   0.631  24.670  0.00  0.00    +0.078 A 
ATOM     13  N   UNL     1      -0.308   1.290  24.728  0.00  0.00    -0.178 NA
ATOM     14  C   UNL     1       0.420   1.420  24.363  0.00  0.00    +0.264 C 
ATOM     15  O   UNL     1       0.781   2.142  24.533  0.00  0.00    -0.271 OA
ATOM     16  C   UNL     1       0.836   0.924  23.851  0.00  0.00    +0.155 C 
ATOM     17  C   UNL     1       1.547   1.267  23.610  0.00  0.00    +0.049 C 
ATOM     18  C   UNL     1       2.047   0.860  23.095  0.00  0.00    +0.101 C 
ATOM     19  C   UNL     1       1.836   0.111  22.821  0.00  0.00    +0.041 C 
ATOM     20  C   UNL     1       1.125  -0.231  23.062  0.00  0.00    +0.096 C 
ATOM     21  N   UNL     1       0.625   0.176  23.577  0.00  0.00    -0.269 N 
ATOM     22  C   UNL     1      -0.053  -0.262  23.747  0.00  0.00    +0.251 C 
ATOM     23  O   UNL     1      -0.103  -1.001  23.383  0.00  0.00    -0.270 OA
ATOM     24  C   UNL     1      -0.688  -0.060  24.234  0.00  0.00    +0.069 A 
ATOM     25  C   UNL     1      -1.256  -0.657  24.253  0.00  0.00    +0.006 A 
ENDROOT
BRANCH   9   6
ATOM      1  C   UNL     1      -4.523  -1.547  23.990  0.00  0.00    +0.031 C 
ATOM      2  C   UNL     1      -3.799  -1.655  24.369  0.00  0.00    -0.026 A 
ATOM      3  C   UNL     1      -3.641  -2.360  24.766  0.00  0.00    -0.005 A 
ATOM      4  C   UNL     1      -2.915  -2.467  25.145  0.00  0.00    -0.000 A 
ATOM      5  C   UNL     1      -2.348  -1.868  25.126  0.00  0.00    -0.000 A 
ATOM      6  C   UNL     1      -2.505  -1.162  24.728  0.00  0.00    -0.004 A 
ATOM      7  C   UNL     1      -3.231  -1.056  24.349  0.00  0.00    -0.026 A 
ATOM      8  C   UNL     1      -3.388  -0.350  23.951  0.00  0.00    +0.031 C 
ENDBRANCH   9   6
BRANCH  18  26
ATOM     26  N   UNL     1       2.757   1.202  22.854  0.00  0.00    -0.083 NA
BRANCH  26  27
ATOM     27  S   UNL     1       3.440   0.741  22.799  0.00  0.00    +0.059 S 
ATOM     28  C   UNL     1       4.122   0.280  22.744  0.00  0.00    +0.197 C 
ATOM     29  O   UNL     1       3.237   0.534  22.027  0.00  0.00    -0.156 OA
ATOM     30  O   UNL     1       3.642   0.949  23.572  0.00  0.00    -0.156 OA
ENDBRANCH  26  27
ENDBRANCH  18  26
TORSDOF 3
ENDMDL
