MODEL 1
REMARK VINA RESULT:     -11.2      0.000      0.000
REMARK  Name = 
REMARK  7 active torsions:
REMARK  status: ('A' for Active; 'I' for Inactive)
REMARK    1  A    between atoms: C_8  and  N_9
REMARK    2  A    between atoms: C_10  and  C_12
REMARK    3  A    between atoms: C_15  and  O_16
REMARK    4  A    between atoms: O_16  and  C_17
REMARK    5  A    between atoms: C_17  and  C_18
REMARK    6  A    between atoms: N_28  and  C_29
REMARK    7  A    between atoms: C_31  and  C_35
REMARK                            x       y       z     vdW  Elec       q    Type
REMARK                         _______ _______ _______ _____ _____    ______ ____
ROOT
ATOM      1  O   UNL     1      -0.850  -1.719  24.580  0.00  0.00    -0.221 OA
ATOM      2  C   UNL     1      -1.470  -1.175  24.602  0.00  0.00    +0.174 C 
ATOM      3  C   UNL     1      -2.213  -1.485  24.779  0.00  0.00    +0.037 C 
ATOM      4  C   UNL     1      -2.935  -1.089  24.841  0.00  0.00    +0.024 C 
ATOM      5  C   UNL     1      -3.090  -0.285  24.742  0.00  0.00    +0.095 C 
ATOM      6  N   UNL     1      -2.563   0.321  24.556  0.00  0.00    -0.261 N 
ATOM      7  C   UNL     1      -1.751   0.275  24.423  0.00  0.00    +0.119 C 
ATOM      8  C   UNL     1      -1.264  -0.392  24.444  0.00  0.00    +0.146 C 
ATOM     26  C   UNL     1      -2.894   1.076  24.495  0.00  0.00    +0.328 C 
ATOM     27  O   UNL     1      -2.414   1.722  24.311  0.00  0.00    -0.250 OA
ATOM     28  N   UNL     1      -3.702   1.184  24.617  0.00  0.00    -0.162 NA
ENDROOT
BRANCH  28  29
ATOM     29  C   UNL     1      -4.031   1.937  24.556  0.00  0.00    +0.075 A 
ATOM     30  C   UNL     1      -4.537   2.215  25.146  0.00  0.00    +0.021 A 
ATOM     31  C   UNL     1      -4.866   2.970  25.084  0.00  0.00    +0.073 A 
ATOM     32  C   UNL     1      -4.690   3.445  24.434  0.00  0.00    +0.004 A 
ATOM     33  C   UNL     1      -4.184   3.168  23.845  0.00  0.00    +0.001 A 
ATOM     34  C   UNL     1      -3.855   2.413  23.906  0.00  0.00    +0.017 A 
BRANCH  31  35
ATOM     35  C   UNL     1      -5.373   3.247  25.674  0.00  0.00    +0.419 C 
ATOM     36  F   UNL     1      -5.878   3.525  26.263  0.00  0.00    -0.166 F 
ATOM     37  F   UNL     1      -4.730   3.581  26.068  0.00  0.00    -0.166 F 
ATOM     38  F   UNL     1      -6.016   2.913  25.279  0.00  0.00    -0.166 F 
ENDBRANCH  31  35
ENDBRANCH  28  29
BRANCH   8   9
ATOM      9  N   UNL     1      -0.466  -0.257  24.285  0.00  0.00    -0.199 NA
ATOM     10  C   UNL     1      -0.234   0.022  23.544  0.00  0.00    +0.265 C 
ATOM     11  O   UNL     1      -0.801   0.166  22.962  0.00  0.00    -0.268 OA
BRANCH  10  12
ATOM     12  C   UNL     1       0.564   0.157  23.385  0.00  0.00    +0.055 A 
ATOM     13  C   UNL     1       0.956   0.785  23.748  0.00  0.00    +0.008 A 
ATOM     14  C   UNL     1       1.754   0.920  23.589  0.00  0.00    +0.037 A 
ATOM     15  C   UNL     1       2.161   0.427  23.067  0.00  0.00    +0.139 A 
ATOM     24  C   UNL     1       1.768  -0.201  22.704  0.00  0.00    +0.037 A 
ATOM     25  C   UNL     1       0.970  -0.336  22.863  0.00  0.00    +0.008 A 
BRANCH  15  16
ATOM     16  O   UNL     1       2.959   0.562  22.908  0.00  0.00    -0.471 OA
BRANCH  16  17
ATOM     17  C   UNL     1       3.482  -0.073  22.857  0.00  0.00    +0.232 C 
BRANCH  17  18
ATOM     18  C   UNL     1       4.239  -0.010  23.179  0.00  0.00    +0.021 A 
ATOM     19  C   UNL     1       4.674   0.683  23.080  0.00  0.00    -0.001 A 
ATOM     20  C   UNL     1       5.431   0.746  23.402  0.00  0.00    -0.000 A 
ATOM     21  C   UNL     1       5.753   0.114  23.823  0.00  0.00    -0.000 A 
ATOM     22  C   UNL     1       5.319  -0.581  23.922  0.00  0.00    -0.000 A 
ATOM     23  C   UNL     1       4.562  -0.643  23.600  0.00  0.00    -0.001 A 
ENDBRANCH  17  18
ENDBRANCH  16  17
ENDBRANCH  15  16
ENDBRANCH  10  12
ENDBRANCH   8   9
TORSDOF 7
ENDMDL
MODEL 2
REMARK VINA RESULT:     -10.1      2.091      3.220
REMARK  Name = 
REMARK  7 active torsions:
REMARK  status: ('A' for Active; 'I' for Inactive)
REMARK    1  A    between atoms: C_8  and  N_9
REMARK    2  A    between atoms: C_10  and  C_12
REMARK    3  A    between atoms: C_15  and  O_16
REMARK    4  A    between atoms: O_16  and  C_17
REMARK    5  A    between atoms: C_17  and  C_18
REMARK    6  A    between atoms: N_28  and  C_29
REMARK    7  A    between atoms: C_31  and  C_35
REMARK                            x       y       z     vdW  Elec       q    Type
REMARK                         _______ _______ _______ _____ _____    ______ ____
ROOT
ATOM      1  O   UNL     1      -0.224   2.819  24.183  0.00  0.00    -0.221 OA
ATOM      2  C   UNL     1      -0.815   2.266  24.345  0.00  0.00    +0.174 C 
ATOM      3  C   UNL     1      -1.559   2.576  24.520  0.00  0.00    +0.037 C 
ATOM      4  C   UNL     1      -2.255   2.173  24.703  0.00  0.00    +0.024 C 
ATOM      5  C   UNL     1      -2.378   1.360  24.758  0.00  0.00    +0.095 C 
ATOM      6  N   UNL     1      -1.837   0.748  24.642  0.00  0.00    -0.261 N 
ATOM      7  C   UNL     1      -1.038   0.799  24.444  0.00  0.00    +0.119 C 
ATOM      8  C   UNL     1      -0.583   1.475  24.311  0.00  0.00    +0.146 C 
ATOM     26  C   UNL     1      -2.134  -0.016  24.738  0.00  0.00    +0.328 C 
ATOM     27  O   UNL     1      -1.638  -0.667  24.635  0.00  0.00    -0.250 OA
ATOM     28  N   UNL     1      -2.927  -0.128  24.937  0.00  0.00    -0.162 NA
ENDROOT
BRANCH  28  29
ATOM     29  C   UNL     1      -3.223  -0.892  25.032  0.00  0.00    +0.075 A 
ATOM     30  C   UNL     1      -3.617  -1.262  24.408  0.00  0.00    +0.021 A 
ATOM     31  C   UNL     1      -3.913  -2.027  24.504  0.00  0.00    +0.073 A 
ATOM     32  C   UNL     1      -3.817  -2.420  25.222  0.00  0.00    +0.004 A 
ATOM     33  C   UNL     1      -3.423  -2.050  25.846  0.00  0.00    +0.001 A 
ATOM     34  C   UNL     1      -3.127  -1.286  25.750  0.00  0.00    +0.017 A 
BRANCH  31  35
ATOM     35  C   UNL     1      -4.307  -2.397  23.880  0.00  0.00    +0.419 C 
ATOM     36  F   UNL     1      -4.700  -2.767  23.257  0.00  0.00    -0.166 F 
ATOM     37  F   UNL     1      -4.848  -1.775  23.852  0.00  0.00    -0.166 F 
ATOM     38  F   UNL     1      -3.766  -3.020  23.908  0.00  0.00    -0.166 F 
ENDBRANCH  31  35
ENDBRANCH  28  29
BRANCH   8   9
ATOM      9  N   UNL     1       0.208   1.342  24.120  0.00  0.00    -0.199 NA
ATOM     10  C   UNL     1       0.403   0.919  23.439  0.00  0.00    +0.265 C 
ATOM     11  O   UNL     1      -0.195   0.629  22.950  0.00  0.00    -0.268 OA
BRANCH  10  12
ATOM     12  C   UNL     1       1.194   0.785  23.248  0.00  0.00    +0.055 A 
ATOM     13  C   UNL     1       1.761   1.362  23.412  0.00  0.00    +0.008 A 
ATOM     14  C   UNL     1       2.552   1.228  23.220  0.00  0.00    +0.037 A 
ATOM     15  C   UNL     1       2.777   0.519  22.865  0.00  0.00    +0.139 A 
ATOM     24  C   UNL     1       2.210  -0.058  22.702  0.00  0.00    +0.037 A 
ATOM     25  C   UNL     1       1.419   0.076  22.893  0.00  0.00    +0.008 A 
BRANCH  15  16
ATOM     16  O   UNL     1       3.568   0.385  22.674  0.00  0.00    -0.471 OA
BRANCH  16  17
ATOM     17  C   UNL     1       4.163   0.789  23.078  0.00  0.00    +0.232 C 
BRANCH  17  18
ATOM     18  C   UNL     1       4.863   0.399  23.277  0.00  0.00    +0.021 A 
ATOM     19  C   UNL     1       5.134   0.409  24.056  0.00  0.00    -0.001 A 
ATOM     20  C   UNL     1       5.833   0.020  24.256  0.00  0.00    -0.000 A 
ATOM     21  C   UNL     1       6.262  -0.379  23.676  0.00  0.00    -0.000 A 
ATOM     22  C   UNL     1       5.993  -0.389  22.896  0.00  0.00    -0.000 A 
ATOM     23  C   UNL     1       5.293  -0.000  22.697  0.00  0.00    -0.001 A 
ENDBRANCH  17  18
ENDBRANCH  16  17
ENDBRANCH  15  16
ENDBRANCH  10  12
ENDBRANCH   8   9
TORSDOF 7
ENDMDL
MODEL 3
REMARK VINA RESULT:      -9.0      1.810      2.797
REMARK  Name = 
REMARK  7 active torsions:
REMARK  status: ('A' for Active; 'I' for Inactive)
REMARK    1  A    between atoms: C_8  and  N_9
REMARK    2  A    between atoms: C_10  and  C_12
REMARK    3  A    between atoms: C_15  and  O_16
REMARK    4  A    between atoms: O_16  and  C_17
REMARK    5  A    between atoms: C_17  and  C_18
REMARK    6  A    between atoms: N_28  and  C_29
REMARK    7  A    between atoms: C_31  and  C_35
REMARK                            x       y       z     vdW  Elec       q    Type
REMARK                         _______ _______ _______ _____ _____    ______ ____
ROOT
ATOM      1  O   UNL     1      -0.332   4.290  24.780  0.00  0.00    -0.221 OA
ATOM      2  C   UNL     1      -1.129   4.112  24.903  0.00  0.00    +0.174 C 
ATOM      3  C   UNL     1      -1.574   4.698  25.277  0.00  0.00    +0.037 C 
ATOM      4  C   UNL     1      -2.374   4.688  25.476  0.00  0.00    +0.024 C 
ATOM      5  C   UNL     1      -2.928   4.090  25.349  0.00  0.00    +0.095 C 
ATOM      6  N   UNL     1      -2.818   3.354  24.993  0.00  0.00    -0.261 N 
ATOM      7  C   UNL     1      -2.127   3.034  24.675  0.00  0.00    +0.119 C 
ATOM      8  C   UNL     1      -1.375   3.372  24.635  0.00  0.00    +0.146 C 
ATOM     26  C   UNL     1      -3.488   2.874  24.949  0.00  0.00    +0.328 C 
ATOM     27  O   UNL     1      -3.438   2.127  24.603  0.00  0.00    -0.250 OA
ATOM     28  N   UNL     1      -4.207   3.141  25.251  0.00  0.00    -0.162 NA
ENDROOT
BRANCH  28  29
ATOM     29  C   UNL     1      -4.877   2.661  25.206  0.00  0.00    +0.075 A 
ATOM     30  C   UNL     1      -5.263   2.429  25.898  0.00  0.00    +0.021 A 
ATOM     31  C   UNL     1      -5.933   1.948  25.853  0.00  0.00    +0.073 A 
ATOM     32  C   UNL     1      -6.216   1.701  25.119  0.00  0.00    +0.004 A 
ATOM     33  C   UNL     1      -5.829   1.933  24.428  0.00  0.00    +0.001 A 
ATOM     34  C   UNL     1      -5.159   2.414  24.473  0.00  0.00    +0.017 A 
BRANCH  31  35
ATOM     35  C   UNL     1      -6.320   1.715  26.544  0.00  0.00    +0.419 C 
ATOM     36  F   UNL     1      -6.706   1.482  27.235  0.00  0.00    -0.166 F 
ATOM     37  F   UNL     1      -6.017   0.953  26.457  0.00  0.00    -0.166 F 
ATOM     38  F   UNL     1      -6.623   2.478  26.632  0.00  0.00    -0.166 F 
ENDBRANCH  31  35
ENDBRANCH  28  29
BRANCH   8   9
ATOM      9  N   UNL     1      -0.793   2.908  24.281  0.00  0.00    -0.199 NA
ATOM     10  C   UNL     1      -0.540   2.212  24.645  0.00  0.00    +0.265 C 
ATOM     11  O   UNL     1      -0.870   1.982  25.365  0.00  0.00    -0.268 OA
BRANCH  10  12
ATOM     12  C   UNL     1       0.042   1.748  24.290  0.00  0.00    +0.055 A 
ATOM     13  C   UNL     1       0.821   2.016  24.261  0.00  0.00    +0.008 A 
ATOM     14  C   UNL     1       1.404   1.551  23.906  0.00  0.00    +0.037 A 
ATOM     15  C   UNL     1       1.207   0.819  23.581  0.00  0.00    +0.139 A 
ATOM     24  C   UNL     1       0.427   0.552  23.611  0.00  0.00    +0.037 A 
ATOM     25  C   UNL     1      -0.155   1.016  23.966  0.00  0.00    +0.008 A 
BRANCH  15  16
ATOM     16  O   UNL     1       1.789   0.355  23.226  0.00  0.00    -0.471 OA
BRANCH  16  17
ATOM     17  C   UNL     1       2.414   0.713  22.825  0.00  0.00    +0.232 C 
BRANCH  17  18
ATOM     18  C   UNL     1       3.180   0.417  22.907  0.00  0.00    +0.021 A 
ATOM     19  C   UNL     1       3.298  -0.377  23.099  0.00  0.00    -0.001 A 
ATOM     20  C   UNL     1       4.063  -0.673  23.180  0.00  0.00    -0.000 A 
ATOM     21  C   UNL     1       4.711  -0.175  23.070  0.00  0.00    -0.000 A 
ATOM     22  C   UNL     1       4.595   0.619  22.879  0.00  0.00    -0.000 A 
ATOM     23  C   UNL     1       3.829   0.915  22.797  0.00  0.00    -0.001 A 
ENDBRANCH  17  18
ENDBRANCH  16  17
ENDBRANCH  15  16
ENDBRANCH  10  12
ENDBRANCH   8   9
TORSDOF 7
ENDMDL
MODEL 4
REMARK VINA RESULT:      -8.1     17.361     18.930
REMARK  Name = 
REMARK  7 active torsions:
REMARK  status: ('A' for Active; 'I' for Inactive)
REMARK    1  A    between atoms: C_8  and  N_9
REMARK    2  A    between atoms: C_10  and  C_12
REMARK    3  A    between atoms: C_15  and  O_16
REMARK    4  A    between atoms: O_16  and  C_17
REMARK    5  A    between atoms: C_17  and  C_18
REMARK    6  A    between atoms: N_28  and  C_29
REMARK    7  A    between atoms: C_31  and  C_35
REMARK                            x       y       z     vdW  Elec       q    Type
REMARK                         _______ _______ _______ _____ _____    ______ ____
ROOT
ATOM      1  O   UNL     1      16.924  -8.275  26.408  0.00  0.00    -0.221 OA
ATOM      2  C   UNL     1      16.973  -7.590  25.950  0.00  0.00    +0.174 C 
ATOM      3  C   UNL     1      17.286  -7.687  25.193  0.00  0.00    +0.037 C 
ATOM      4  C   UNL     1      17.405  -7.117  24.609  0.00  0.00    +0.024 C 
ATOM      5  C   UNL     1      17.242  -6.309  24.638  0.00  0.00    +0.095 C 
ATOM      6  N   UNL     1      16.919  -5.871  25.258  0.00  0.00    -0.261 N 
ATOM      7  C   UNL     1      16.679  -6.133  26.002  0.00  0.00    +0.119 C 
ATOM      8  C   UNL     1      16.703  -6.899  26.310  0.00  0.00    +0.146 C 
ATOM     26  C   UNL     1      16.823  -5.064  25.115  0.00  0.00    +0.328 C 
ATOM     27  O   UNL     1      16.505  -4.577  25.699  0.00  0.00    -0.250 OA
ATOM     28  N   UNL     1      17.046  -4.745  24.388  0.00  0.00    -0.162 NA
ENDROOT
BRANCH  28  29
ATOM     29  C   UNL     1      16.950  -3.938  24.245  0.00  0.00    +0.075 A 
ATOM     30  C   UNL     1      16.397  -3.681  23.688  0.00  0.00    +0.021 A 
ATOM     31  C   UNL     1      16.301  -2.874  23.546  0.00  0.00    +0.073 A 
ATOM     32  C   UNL     1      16.756  -2.324  23.958  0.00  0.00    +0.004 A 
ATOM     33  C   UNL     1      17.309  -2.582  24.515  0.00  0.00    +0.001 A 
ATOM     34  C   UNL     1      17.405  -3.389  24.658  0.00  0.00    +0.017 A 
BRANCH  31  35
ATOM     35  C   UNL     1      15.748  -2.617  22.989  0.00  0.00    +0.419 C 
ATOM     36  F   UNL     1      15.196  -2.360  22.433  0.00  0.00    -0.166 F 
ATOM     37  F   UNL     1      15.155  -2.658  23.560  0.00  0.00    -0.166 F 
ATOM     38  F   UNL     1      16.343  -2.576  22.418  0.00  0.00    -0.166 F 
ENDBRANCH  31  35
ENDBRANCH  28  29
BRANCH   8   9
ATOM      9  N   UNL     1      16.420  -6.984  27.080  0.00  0.00    -0.199 NA
ATOM     10  C   UNL     1      15.613  -6.909  27.234  0.00  0.00    +0.265 C 
ATOM     11  O   UNL     1      15.090  -6.750  26.617  0.00  0.00    -0.268 OA
BRANCH  10  12
ATOM     12  C   UNL     1      15.330  -6.994  28.004  0.00  0.00    +0.055 A 
ATOM     13  C   UNL     1      15.163  -7.745  28.302  0.00  0.00    +0.008 A 
ATOM     14  C   UNL     1      14.880  -7.829  29.072  0.00  0.00    +0.037 A 
ATOM     15  C   UNL     1      14.763  -7.164  29.545  0.00  0.00    +0.139 A 
ATOM     24  C   UNL     1      14.931  -6.413  29.247  0.00  0.00    +0.037 A 
ATOM     25  C   UNL     1      15.214  -6.328  28.476  0.00  0.00    +0.008 A 
BRANCH  15  16
ATOM     16  O   UNL     1      14.480  -7.249  30.315  0.00  0.00    -0.471 OA
BRANCH  16  17
ATOM     17  C   UNL     1      13.821  -6.818  30.561  0.00  0.00    +0.232 C 
BRANCH  17  18
ATOM     18  C   UNL     1      13.460  -6.994  31.282  0.00  0.00    +0.021 A 
ATOM     19  C   UNL     1      12.657  -6.842  31.389  0.00  0.00    -0.001 A 
ATOM     20  C   UNL     1      12.295  -7.018  32.110  0.00  0.00    -0.000 A 
ATOM     21  C   UNL     1      12.738  -7.346  32.723  0.00  0.00    -0.000 A 
ATOM     22  C   UNL     1      13.542  -7.499  32.617  0.00  0.00    -0.000 A 
ATOM     23  C   UNL     1      13.903  -7.323  31.896  0.00  0.00    -0.001 A 
ENDBRANCH  17  18
ENDBRANCH  16  17
ENDBRANCH  15  16
ENDBRANCH  10  12
ENDBRANCH   8   9
TORSDOF 7
ENDMDL
