MODEL 1
REMARK VINA RESULT:     -12.3      0.000      0.000
REMARK  Name = 
REMARK  5 active torsions:
REMARK  status: ('A' for Active; 'I' for Inactive)
REMARK    1  A    between atoms: C_2  and  C_4
REMARK    2  A    between atoms: N_7  and  C_10
REMARK    3  A    between atoms: C_16  and  N_17
REMARK    4  A    between atoms: N_20  and  C_21
REMARK    5  A    between atoms: C_23  and  C_27
REMARK                            x       y       z     vdW  Elec       q    Type
REMARK                         _______ _______ _______ _____ _____    ______ ____
ROOT
ATOM     10  C   UNL     1      -3.596   2.422  24.942  0.00  0.00    +0.147 C 
ATOM     11  C   UNL     1      -3.870   3.156  24.369  0.00  0.00    +0.253 C 
ATOM     12  O   UNL     1      -3.423   3.905  24.232  0.00  0.00    -0.327 OA
ATOM     13  C   UNL     1      -3.562   3.248  24.508  0.00  0.00    +0.176 C 
ATOM     14  C   UNL     1      -4.062   2.652  24.527  0.00  0.00    +0.170 C 
ATOM     15  O   UNL     1      -4.587   2.856  24.091  0.00  0.00    -0.327 OA
ATOM     16  C   UNL     1      -3.812   1.943  25.073  0.00  0.00    +0.158 C 
ATOM     29  C   UNL     1      -3.093   2.246  25.350  0.00  0.00    +0.194 C 
ATOM     30  O   UNL     1      -2.381   2.292  25.765  0.00  0.00    -0.220 OA
ENDROOT
BRANCH  10   7
ATOM      4  C   UNL     1      -1.894   4.218  25.004  0.00  0.00    +0.083 C 
ATOM      5  C   UNL     1      -2.525   4.230  25.535  0.00  0.00    +0.027 C 
ATOM      6  C   UNL     1      -3.093   3.631  25.514  0.00  0.00    +0.073 C 
ATOM      7  N   UNL     1      -3.029   3.021  24.963  0.00  0.00    -0.268 NA
ATOM      8  C   UNL     1      -2.397   3.009  24.432  0.00  0.00    +0.073 C 
ATOM      9  C   UNL     1      -1.829   3.608  24.453  0.00  0.00    +0.027 C 
BRANCH   4   2
ATOM      1  N   UNL     1      -0.553   4.661  24.788  0.00  0.00    -0.088 NA
ATOM      2  C   UNL     1      -1.327   4.818  25.026  0.00  0.00    +0.260 C 
ATOM      3  O   UNL     1      -1.534   5.573  25.285  0.00  0.00    -0.272 OA
ENDBRANCH   4   2
ENDBRANCH  10   7
BRANCH  16  17
ATOM     17  N   UNL     1      -4.192   1.227  25.232  0.00  0.00    -0.183 NA
ATOM     18  C   UNL     1      -3.928   0.531  24.876  0.00  0.00    +0.344 C 
ATOM     19  O   UNL     1      -3.285   0.551  24.360  0.00  0.00    -0.249 OA
ATOM     20  N   UNL     1      -4.307  -0.183  25.036  0.00  0.00    -0.161 NA
BRANCH  20  21
ATOM     21  C   UNL     1      -4.044  -0.879  24.679  0.00  0.00    +0.076 A 
ATOM     22  C   UNL     1      -3.331  -1.218  24.915  0.00  0.00    +0.027 A 
ATOM     23  C   UNL     1      -3.067  -1.915  24.559  0.00  0.00    +0.070 A 
ATOM     24  C   UNL     1      -3.517  -2.270  23.966  0.00  0.00    +0.010 A 
ATOM     25  C   UNL     1      -4.231  -1.931  23.730  0.00  0.00    +0.002 A 
ATOM     26  C   UNL     1      -4.494  -1.235  24.087  0.00  0.00    +0.017 A 
BRANCH  23  27
ATOM     27  C   UNL     1      -2.353  -2.255  24.795  0.00  0.00    +0.100 C 
ATOM     28  N   UNL     1      -1.639  -2.595  25.030  0.00  0.00    -0.191 NA
ENDBRANCH  23  27
ENDBRANCH  20  21
ENDBRANCH  16  17
TORSDOF 5
ENDMDL
MODEL 2
REMARK VINA RESULT:     -11.8      1.111      5.122
REMARK  Name = 
REMARK  5 active torsions:
REMARK  status: ('A' for Active; 'I' for Inactive)
REMARK    1  A    between atoms: C_2  and  C_4
REMARK    2  A    between atoms: N_7  and  C_10
REMARK    3  A    between atoms: C_16  and  N_17
REMARK    4  A    between atoms: N_20  and  C_21
REMARK    5  A    between atoms: C_23  and  C_27
REMARK                            x       y       z     vdW  Elec       q    Type
REMARK                         _______ _______ _______ _____ _____    ______ ____
ROOT
ATOM     10  C   UNL     1      -3.951   0.554  24.503  0.00  0.00    +0.147 C 
ATOM     11  C   UNL     1      -4.574   0.020  25.023  0.00  0.00    +0.253 C 
ATOM     12  O   UNL     1      -4.524  -0.850  25.161  0.00  0.00    -0.327 OA
ATOM     13  C   UNL     1      -4.329  -0.200  24.903  0.00  0.00    +0.176 C 
ATOM     14  C   UNL     1      -4.506   0.557  24.871  0.00  0.00    +0.170 C 
ATOM     15  O   UNL     1      -5.102   0.609  25.257  0.00  0.00    -0.327 OA
ATOM     16  C   UNL     1      -3.918   1.079  24.377  0.00  0.00    +0.158 C 
ATOM     29  C   UNL     1      -3.389   0.486  24.143  0.00  0.00    +0.194 C 
ATOM     30  O   UNL     1      -2.739   0.126  23.783  0.00  0.00    -0.220 OA
ENDROOT
BRANCH  10   7
ATOM      4  C   UNL     1      -3.236  -1.816  24.496  0.00  0.00    +0.083 C 
ATOM      5  C   UNL     1      -3.743  -1.537  23.909  0.00  0.00    +0.027 C 
ATOM      6  C   UNL     1      -3.981  -0.747  23.911  0.00  0.00    +0.073 C 
ATOM      7  N   UNL     1      -3.713  -0.236  24.501  0.00  0.00    -0.268 NA
ATOM      8  C   UNL     1      -3.205  -0.516  25.088  0.00  0.00    +0.073 C 
ATOM      9  C   UNL     1      -2.967  -1.306  25.086  0.00  0.00    +0.027 C 
BRANCH   4   2
ATOM      1  N   UNL     1      -2.195  -2.794  24.472  0.00  0.00    -0.088 NA
ATOM      2  C   UNL     1      -2.998  -2.606  24.493  0.00  0.00    +0.260 C 
ATOM      3  O   UNL     1      -3.562  -3.208  24.512  0.00  0.00    -0.272 OA
ENDBRANCH   4   2
ENDBRANCH  10   7
BRANCH  16  17
ATOM     17  N   UNL     1      -3.921   1.890  24.219  0.00  0.00    -0.183 NA
ATOM     18  C   UNL     1      -3.480   2.404  24.690  0.00  0.00    +0.344 C 
ATOM     19  O   UNL     1      -3.035   2.109  25.319  0.00  0.00    -0.249 OA
ATOM     20  N   UNL     1      -3.483   3.213  24.532  0.00  0.00    -0.161 NA
BRANCH  20  21
ATOM     21  C   UNL     1      -3.043   3.728  25.002  0.00  0.00    +0.076 A 
ATOM     22  C   UNL     1      -2.311   4.003  24.740  0.00  0.00    +0.027 A 
ATOM     23  C   UNL     1      -1.870   4.518  25.211  0.00  0.00    +0.070 A 
ATOM     24  C   UNL     1      -2.162   4.756  25.945  0.00  0.00    +0.010 A 
ATOM     25  C   UNL     1      -2.893   4.481  26.208  0.00  0.00    +0.002 A 
ATOM     26  C   UNL     1      -3.334   3.966  25.737  0.00  0.00    +0.017 A 
BRANCH  23  27
ATOM     27  C   UNL     1      -1.139   4.794  24.948  0.00  0.00    +0.100 C 
ATOM     28  N   UNL     1      -0.407   5.069  24.685  0.00  0.00    -0.191 NA
ENDBRANCH  23  27
ENDBRANCH  20  21
ENDBRANCH  16  17
TORSDOF 5
ENDMDL
MODEL 3
REMARK VINA RESULT:     -11.6      1.824      2.489
REMARK  Name = 
REMARK  5 active torsions:
REMARK  status: ('A' for Active; 'I' for Inactive)
REMARK    1  A    between atoms: C_2  and  C_4
REMARK    2  A    between atoms: N_7  and  C_10
REMARK    3  A    between atoms: C_16  and  N_17
REMARK    4  A    between atoms: N_20  and  C_21
REMARK    5  A    between atoms: C_23  and  C_27
REMARK                            x       y       z     vdW  Elec       q    Type
REMARK                         _______ _______ _______ _____ _____    ______ ____
ROOT
ATOM     10  C   UNL     1      -0.813   1.900  25.205  0.00  0.00    +0.147 C 
ATOM     11  C   UNL     1      -0.316   2.345  25.911  0.00  0.00    +0.253 C 
ATOM     12  O   UNL     1      -0.297   3.213  26.065  0.00  0.00    -0.327 OA
ATOM     13  C   UNL     1      -0.484   2.596  25.733  0.00  0.00    +0.176 C 
ATOM     14  C   UNL     1      -0.402   1.823  25.723  0.00  0.00    +0.170 C 
ATOM     15  O   UNL     1       0.036   1.690  26.268  0.00  0.00    -0.327 OA
ATOM     16  C   UNL     1      -0.872   1.384  25.052  0.00  0.00    +0.158 C 
ATOM     29  C   UNL     1      -1.225   2.043  24.695  0.00  0.00    +0.194 C 
ATOM     30  O   UNL     1      -1.683   2.487  24.171  0.00  0.00    -0.220 OA
ENDROOT
BRANCH  10   7
ATOM      4  C   UNL     1      -1.187   4.344  25.084  0.00  0.00    +0.083 C 
ATOM      5  C   UNL     1      -1.660   3.878  25.573  0.00  0.00    +0.027 C 
ATOM      6  C   UNL     1      -1.536   3.063  25.614  0.00  0.00    +0.073 C 
ATOM      7  N   UNL     1      -0.938   2.715  25.165  0.00  0.00    -0.268 NA
ATOM      8  C   UNL     1      -0.464   3.181  24.676  0.00  0.00    +0.073 C 
ATOM      9  C   UNL     1      -0.589   3.996  24.635  0.00  0.00    +0.027 C 
BRANCH   4   2
ATOM      1  N   UNL     1      -2.030   5.478  25.299  0.00  0.00    -0.088 NA
ATOM      2  C   UNL     1      -1.313   5.158  25.045  0.00  0.00    +0.260 C 
ATOM      3  O   UNL     1      -0.722   5.654  24.751  0.00  0.00    -0.272 OA
ENDBRANCH   4   2
ENDBRANCH  10   7
BRANCH  16  17
ATOM     17  N   UNL     1      -0.923   0.580  24.868  0.00  0.00    -0.183 NA
ATOM     18  C   UNL     1      -1.604   0.155  25.058  0.00  0.00    +0.344 C 
ATOM     19  O   UNL     1      -2.234   0.533  25.434  0.00  0.00    -0.249 OA
ATOM     20  N   UNL     1      -1.654  -0.647  24.874  0.00  0.00    -0.161 NA
BRANCH  20  21
ATOM     21  C   UNL     1      -2.335  -1.072  25.065  0.00  0.00    +0.076 A 
ATOM     22  C   UNL     1      -2.818  -1.368  24.466  0.00  0.00    +0.027 A 
ATOM     23  C   UNL     1      -3.499  -1.794  24.657  0.00  0.00    +0.070 A 
ATOM     24  C   UNL     1      -3.696  -1.922  25.448  0.00  0.00    +0.010 A 
ATOM     25  C   UNL     1      -3.213  -1.626  26.048  0.00  0.00    +0.002 A 
ATOM     26  C   UNL     1      -2.532  -1.201  25.856  0.00  0.00    +0.017 A 
BRANCH  23  27
ATOM     27  C   UNL     1      -3.982  -2.090  24.058  0.00  0.00    +0.100 C 
ATOM     28  N   UNL     1      -4.465  -2.387  23.459  0.00  0.00    -0.191 NA
ENDBRANCH  23  27
ENDBRANCH  20  21
ENDBRANCH  16  17
TORSDOF 5
ENDMDL
MODEL 4
REMARK VINA RESULT:     -11.6      1.992      5.555
REMARK  Name = 
REMARK  5 active torsions:
REMARK  status: ('A' for Active; 'I' for Inactive)
REMARK    1  A    between atoms: C_2  and  C_4
REMARK    2  A    between atoms: N_7  and  C_10
REMARK    3  A    between atoms: C_16  and  N_17
REMARK    4  A    between atoms: N_20  and  C_21
REMARK    5  A    between atoms: C_23  and  C_27
REMARK                            x       y       z     vdW  Elec       q    Type
REMARK                         _______ _______ _______ _____ _____    ______ ____
ROOT
ATOM     10  C   UNL     1      -1.405  -0.375  25.159  0.00  0.00    +0.147 C 
ATOM     11  C   UNL     1      -1.020  -1.057  24.585  0.00  0.00    +0.253 C 
ATOM     12  O   UNL     1      -1.447  -1.748  24.240  0.00  0.00    -0.327 OA
ATOM     13  C   UNL     1      -1.358  -1.140  24.626  0.00  0.00    +0.176 C 
ATOM     14  C   UNL     1      -0.856  -0.591  24.853  0.00  0.00    +0.170 C 
ATOM     15  O   UNL     1      -0.243  -0.784  24.545  0.00  0.00    -0.327 OA
ATOM     16  C   UNL     1      -1.211   0.068  25.403  0.00  0.00    +0.158 C 
ATOM     29  C   UNL     1      -1.991  -0.208  25.441  0.00  0.00    +0.194 C 
ATOM     30  O   UNL     1      -2.789  -0.245  25.647  0.00  0.00    -0.220 OA
ENDROOT
BRANCH  10   7
ATOM      4  C   UNL     1      -3.140  -2.028  24.539  0.00  0.00    +0.083 C 
ATOM      5  C   UNL     1      -3.014  -1.365  24.065  0.00  0.00    +0.027 C 
ATOM      6  C   UNL     1      -2.436  -0.814  24.271  0.00  0.00    +0.073 C 
ATOM      7  N   UNL     1      -1.983  -0.926  24.952  0.00  0.00    -0.268 NA
ATOM      8  C   UNL     1      -2.110  -1.589  25.426  0.00  0.00    +0.073 C 
ATOM      9  C   UNL     1      -2.688  -2.140  25.220  0.00  0.00    +0.027 C 
BRANCH   4   2
ATOM      1  N   UNL     1      -4.353  -2.350  23.856  0.00  0.00    -0.088 NA
ATOM      2  C   UNL     1      -3.718  -2.579  24.331  0.00  0.00    +0.260 C 
ATOM      3  O   UNL     1      -3.663  -3.357  24.598  0.00  0.00    -0.272 OA
ENDBRANCH   4   2
ENDBRANCH  10   7
BRANCH  16  17
ATOM     17  N   UNL     1      -0.856   0.729  25.749  0.00  0.00    -0.183 NA
ATOM     18  C   UNL     1      -1.080   1.487  25.515  0.00  0.00    +0.344 C 
ATOM     19  O   UNL     1      -1.658   1.586  24.934  0.00  0.00    -0.249 OA
ATOM     20  N   UNL     1      -0.726   2.147  25.860  0.00  0.00    -0.161 NA
BRANCH  20  21
ATOM     21  C   UNL     1      -0.950   2.906  25.626  0.00  0.00    +0.076 A 
ATOM     22  C   UNL     1      -1.656   3.231  25.900  0.00  0.00    +0.027 A 
ATOM     23  C   UNL     1      -1.880   3.990  25.666  0.00  0.00    +0.070 A 
ATOM     24  C   UNL     1      -1.396   4.423  25.157  0.00  0.00    +0.010 A 
ATOM     25  C   UNL     1      -0.689   4.098  24.882  0.00  0.00    +0.002 A 
ATOM     26  C   UNL     1      -0.466   3.339  25.117  0.00  0.00    +0.017 A 
BRANCH  23  27
ATOM     27  C   UNL     1      -2.586   4.315  25.940  0.00  0.00    +0.100 C 
ATOM     28  N   UNL     1      -3.293   4.641  26.214  0.00  0.00    -0.191 NA
ENDBRANCH  23  27
ENDBRANCH  20  21
ENDBRANCH  16  17
TORSDOF 5
ENDMDL
