MODEL 1
REMARK VINA RESULT:     -11.8      0.000      0.000
REMARK  Name = 
REMARK  6 active torsions:
REMARK  status: ('A' for Active; 'I' for Inactive)
REMARK    1  A    between atoms: C_2  and  C_3
REMARK    2  A    between atoms: C_10  and  C_11
REMARK    3  A    between atoms: C_11  and  N_12
REMARK    4  A    between atoms: N_12  and  C_13
REMARK    5  A    between atoms: C_13  and  C_14
REMARK    6  A    between atoms: C_17  and  C_20
REMARK                            x       y       z     vdW  Elec       q    Type
REMARK                         _______ _______ _______ _____ _____    ______ ____
ROOT
ATOM     13  C   UNL     1      -3.899   1.608  24.801  0.00  0.00    +0.115 C 
ENDROOT
BRANCH  13  14
ATOM     14  C   UNL     1      -3.888   0.789  24.703  0.00  0.00    -0.005 A 
ATOM     15  C   UNL     1      -3.651   0.463  23.983  0.00  0.00    -0.003 A 
ATOM     16  C   UNL     1      -3.639  -0.356  23.884  0.00  0.00    -0.000 A 
ATOM     17  C   UNL     1      -3.865  -0.849  24.506  0.00  0.00    -0.000 A 
ATOM     18  C   UNL     1      -4.103  -0.523  25.226  0.00  0.00    -0.000 A 
ATOM     19  C   UNL     1      -4.114   0.295  25.324  0.00  0.00    -0.003 A 
BRANCH  17  20
ATOM     20  C   UNL     1      -3.854  -1.668  24.408  0.00  0.00    -0.000 A 
ATOM     21  C   UNL     1      -3.392  -2.136  24.906  0.00  0.00    -0.000 A 
ATOM     22  C   UNL     1      -3.380  -2.955  24.809  0.00  0.00    +0.000 A 
ATOM     23  C   UNL     1      -3.831  -3.307  24.214  0.00  0.00    +0.000 A 
ATOM     24  C   UNL     1      -4.293  -2.839  23.716  0.00  0.00    +0.000 A 
ATOM     25  C   UNL     1      -4.305  -2.019  23.813  0.00  0.00    -0.000 A 
ENDBRANCH  17  20
ENDBRANCH  13  14
BRANCH  13  12
ATOM     12  N   UNL     1      -3.222   2.001  25.059  0.00  0.00    -0.212 NA
BRANCH  12  11
ATOM     11  C   UNL     1      -3.191   2.826  25.038  0.00  0.00    +0.105 C 
BRANCH  11  10
ATOM      3  C   UNL     1      -1.647   4.623  25.066  0.00  0.00    +0.016 C 
ATOM      4  C   UNL     1      -2.395   4.791  24.936  0.00  0.00    +0.072 C 
ATOM      5  N   UNL     1      -2.080   4.039  25.067  0.00  0.00    -0.273 NA
ATOM      6  C   UNL     1      -1.048   4.157  25.207  0.00  0.00    +0.072 C 
ATOM      7  C   UNL     1      -0.458   3.902  25.324  0.00  0.00    +0.017 C 
ATOM      8  C   UNL     1      -1.345   3.882  25.194  0.00  0.00    +0.004 C 
ATOM      9  C   UNL     1      -1.723   3.091  25.226  0.00  0.00    +0.018 C 
ATOM     10  C   UNL     1      -2.466   3.213  25.102  0.00  0.00    +0.075 C 
BRANCH   3   2
ATOM      1  C   UNL     1      -1.376   6.017  24.904  0.00  0.00    +0.000 C 
ATOM      2  C   UNL     1      -1.114   5.254  25.075  0.00  0.00    +0.001 C 
ENDBRANCH   3   2
ENDBRANCH  11  10
ENDBRANCH  12  11
ENDBRANCH  13  12
TORSDOF 6
ENDMDL
MODEL 2
REMARK VINA RESULT:     -11.6      0.955      6.002
REMARK  Name = 
REMARK  6 active torsions:
REMARK  status: ('A' for Active; 'I' for Inactive)
REMARK    1  A    between atoms: C_2  and  C_3
REMARK    2  A    between atoms: C_10  and  C_11
REMARK    3  A    between atoms: C_11  and  N_12
REMARK    4  A    between atoms: N_12  and  C_13
REMARK    5  A    between atoms: C_13  and  C_14
REMARK    6  A    between atoms: C_17  and  C_20
REMARK                            x       y       z     vdW  Elec       q    Type
REMARK                         _______ _______ _______ _____ _____    ______ ____
ROOT
ATOM     13  C   UNL     1      -4.125   1.715  24.756  0.00  0.00    +0.115 C 
ENDROOT
BRANCH  13  14
ATOM     14  C   UNL     1      -3.571   2.324  24.797  0.00  0.00    -0.005 A 
ATOM     15  C   UNL     1      -3.514   2.786  25.478  0.00  0.00    -0.003 A 
ATOM     16  C   UNL     1      -2.959   3.395  25.519  0.00  0.00    -0.000 A 
ATOM     17  C   UNL     1      -2.462   3.543  24.878  0.00  0.00    -0.000 A 
ATOM     18  C   UNL     1      -2.519   3.082  24.196  0.00  0.00    -0.000 A 
ATOM     19  C   UNL     1      -3.073   2.473  24.155  0.00  0.00    -0.003 A 
BRANCH  17  20
ATOM     20  C   UNL     1      -1.907   4.153  24.917  0.00  0.00    -0.000 A 
ATOM     21  C   UNL     1      -1.106   3.988  24.809  0.00  0.00    -0.000 A 
ATOM     22  C   UNL     1      -0.550   4.597  24.849  0.00  0.00    +0.000 A 
ATOM     23  C   UNL     1      -0.796   5.370  24.996  0.00  0.00    +0.000 A 
ATOM     24  C   UNL     1      -1.597   5.535  25.104  0.00  0.00    +0.000 A 
ATOM     25  C   UNL     1      -2.153   4.926  25.065  0.00  0.00    -0.000 A 
ENDBRANCH  17  20
ENDBRANCH  13  14
BRANCH  13  12
ATOM     12  N   UNL     1      -3.939   0.968  25.054  0.00  0.00    -0.212 NA
BRANCH  12  11
ATOM     11  C   UNL     1      -4.350   0.304  24.788  0.00  0.00    +0.105 C 
BRANCH  11  10
ATOM      3  C   UNL     1      -3.882  -1.995  24.458  0.00  0.00    +0.016 C 
ATOM      4  C   UNL     1      -4.259  -1.617  23.892  0.00  0.00    +0.072 C 
ATOM      5  N   UNL     1      -4.002  -1.293  24.606  0.00  0.00    -0.273 NA
ATOM      6  C   UNL     1      -3.532  -2.061  25.143  0.00  0.00    +0.072 C 
ATOM      7  C   UNL     1      -3.216  -2.272  25.675  0.00  0.00    +0.017 C 
ATOM      8  C   UNL     1      -3.632  -1.670  25.156  0.00  0.00    +0.004 C 
ATOM      9  C   UNL     1      -3.696  -0.858  25.483  0.00  0.00    +0.018 C 
ATOM     10  C   UNL     1      -4.064  -0.451  24.952  0.00  0.00    +0.075 C 
BRANCH   3   2
ATOM      1  C   UNL     1      -3.952  -3.160  23.634  0.00  0.00    +0.000 C 
ATOM      2  C   UNL     1      -3.721  -2.796  24.337  0.00  0.00    +0.001 C 
ENDBRANCH   3   2
ENDBRANCH  11  10
ENDBRANCH  12  11
ENDBRANCH  13  12
TORSDOF 6
ENDMDL
MODEL 3
REMARK VINA RESULT:     -10.9      1.656      6.166
REMARK  Name = 
REMARK  6 active torsions:
REMARK  status: ('A' for Active; 'I' for Inactive)
REMARK    1  A    between atoms: C_2  and  C_3
REMARK    2  A    between atoms: C_10  and  C_11
REMARK    3  A    between atoms: C_11  and  N_12
REMARK    4  A    between atoms: N_12  and  C_13
REMARK    5  A    between atoms: C_13  and  C_14
REMARK    6  A    between atoms: C_17  and  C_20
REMARK                            x       y       z     vdW  Elec       q    Type
REMARK                         _______ _______ _______ _____ _____    ______ ____
ROOT
ATOM     13  C   UNL     1      -0.565   0.792  25.113  0.00  0.00    +0.115 C 
ENDROOT
BRANCH  13  14
ATOM     14  C   UNL     1      -0.706   1.605  25.099  0.00  0.00    -0.005 A 
ATOM     15  C   UNL     1      -0.506   2.070  25.750  0.00  0.00    -0.003 A 
ATOM     16  C   UNL     1      -0.647   2.883  25.735  0.00  0.00    -0.000 A 
ATOM     17  C   UNL     1      -0.989   3.230  25.070  0.00  0.00    -0.000 A 
ATOM     18  C   UNL     1      -1.189   2.765  24.418  0.00  0.00    -0.000 A 
ATOM     19  C   UNL     1      -1.048   1.953  24.433  0.00  0.00    -0.003 A 
BRANCH  17  20
ATOM     20  C   UNL     1      -1.130   4.043  25.054  0.00  0.00    -0.000 A 
ATOM     21  C   UNL     1      -1.844   4.342  25.340  0.00  0.00    -0.000 A 
ATOM     22  C   UNL     1      -1.987   5.155  25.325  0.00  0.00    +0.000 A 
ATOM     23  C   UNL     1      -1.416   5.668  25.024  0.00  0.00    +0.000 A 
ATOM     24  C   UNL     1      -0.702   5.369  24.738  0.00  0.00    +0.000 A 
ATOM     25  C   UNL     1      -0.559   4.556  24.753  0.00  0.00    -0.000 A 
ENDBRANCH  17  20
ENDBRANCH  13  14
BRANCH  13  12
ATOM     12  N   UNL     1      -1.093   0.289  25.497  0.00  0.00    -0.212 NA
BRANCH  12  11
ATOM     11  C   UNL     1      -1.187  -0.488  25.235  0.00  0.00    +0.105 C 
BRANCH  11  10
ATOM      3  C   UNL     1      -2.939  -2.041  24.871  0.00  0.00    +0.016 C 
ATOM      4  C   UNL     1      -2.338  -2.050  24.376  0.00  0.00    +0.072 C 
ATOM      5  N   UNL     1      -2.429  -1.547  25.024  0.00  0.00    -0.273 NA
ATOM      6  C   UNL     1      -3.340  -1.790  25.481  0.00  0.00    +0.072 C 
ATOM      7  C   UNL     1      -3.785  -1.692  25.950  0.00  0.00    +0.017 C 
ATOM      8  C   UNL     1      -3.020  -1.543  25.505  0.00  0.00    +0.004 C 
ATOM      9  C   UNL     1      -2.507  -0.906  25.821  0.00  0.00    +0.018 C 
ATOM     10  C   UNL     1      -1.900  -0.882  25.359  0.00  0.00    +0.075 C 
BRANCH   3   2
ATOM      1  C   UNL     1      -3.583  -2.996  24.025  0.00  0.00    +0.000 C 
ATOM      2  C   UNL     1      -3.547  -2.584  24.738  0.00  0.00    +0.001 C 
ENDBRANCH   3   2
ENDBRANCH  11  10
ENDBRANCH  12  11
ENDBRANCH  13  12
TORSDOF 6
ENDMDL
