REMARK  Name = 
REMARK  2 active torsions:
REMARK  status: ('A' for Active; 'I' for Inactive)
REMARK    1  A    between atoms: O_2  and  C_3
REMARK    2  A    between atoms: C_10  and  C_12
REMARK                            x       y       z     vdW  Elec       q    Type
REMARK                         _______ _______ _______ _____ _____    ______ ____
ROOT
ATOM      3  C   UNL     1       1.099   0.778   0.000  0.00  0.00    +0.164 C 
ATOM      4  C   UNL     1       0.797   1.546   0.000  0.00  0.00    +0.173 C 
ATOM      5  O   UNL     1       1.210   2.260   0.000  0.00  0.00    -0.349 OA
ATOM      6  C   UNL     1       2.025   2.383   0.000  0.00  0.00    +0.164 C 
ATOM      7  C   UNL     1       2.630   1.822   0.000  0.00  0.00    +0.125 C 
ATOM      8  N   UNL     1       2.568   0.999   0.000  0.00  0.00    -0.274 N 
ATOM      9  C   UNL     1       1.887   0.535   0.000  0.00  0.00    +0.126 C 
ATOM     10  C   UNL     1       3.283   0.587   0.000  0.00  0.00    +0.225 C 
ATOM     11  O   UNL     1       3.997   0.999   0.000  0.00  0.00    -0.275 OA
ENDROOT
BRANCH  10  12
ATOM     12  C   UNL     1       3.283  -0.238   0.000  0.00  0.00    +0.077 C 
ATOM     13  C   UNL     1       3.695  -0.953   0.000  0.00  0.00    +0.010 C 
ATOM     14  C   UNL     1       2.870  -0.953   0.000  0.00  0.00    +0.010 C 
ENDBRANCH  10  12
BRANCH   3   2
ATOM      1  C   UNL     1      -0.267   0.357   0.000  0.00  0.00    +0.174 C 
ATOM      2  O   UNL     1       0.537   0.173   0.000  0.00  0.00    -0.349 OA
ENDBRANCH   3   2
TORSDOF 2
