MODEL 1
REMARK VINA RESULT:      -9.6      0.000      0.000
REMARK  Name = 
REMARK  5 active torsions:
REMARK  status: ('A' for Active; 'I' for Inactive)
REMARK    1  A    between atoms: O_2  and  C_3
REMARK    2  A    between atoms: C_3  and  C_4
REMARK    3  A    between atoms: N_6  and  C_7
REMARK    4  A    between atoms: C_7  and  C_8
REMARK    5  A    between atoms: C_15  and  C_16
REMARK                            x       y       z     vdW  Elec       q    Type
REMARK                         _______ _______ _______ _____ _____    ______ ____
ROOT
ATOM      8  C   UNL     1      -3.911   1.716  24.222  0.00  0.00    +0.082 C 
ATOM      9  C   UNL     1      -4.305   1.232  24.687  0.00  0.00    +0.019 C 
ATOM     10  C   UNL     1      -4.231   0.425  24.699  0.00  0.00    +0.013 C 
ATOM     11  C   UNL     1      -4.773   0.050  25.307  0.00  0.00    +0.018 C 
ATOM     12  C   UNL     1      -4.505   0.543  24.973  0.00  0.00    +0.072 C 
ATOM     13  N   UNL     1      -3.841   0.894  24.241  0.00  0.00    -0.272 NA
ATOM     14  C   UNL     1      -3.322   0.314  23.764  0.00  0.00    +0.081 C 
ATOM     15  C   UNL     1      -3.729  -0.126  24.237  0.00  0.00    +0.093 C 
ENDROOT
BRANCH  15  16
ATOM     16  C   UNL     1      -3.701  -0.949  24.300  0.00  0.00    +0.227 C 
ATOM     17  O   UNL     1      -4.398  -1.389  24.250  0.00  0.00    -0.275 OA
ATOM     18  N   UNL     1      -2.979  -1.330  24.412  0.00  0.00    -0.274 N 
ATOM     19  C   UNL     1      -2.952  -2.152  24.475  0.00  0.00    +0.125 C 
ATOM     20  C   UNL     1      -2.229  -2.534  24.588  0.00  0.00    +0.164 C 
ATOM     21  O   UNL     1      -1.534  -2.093  24.637  0.00  0.00    -0.350 OA
ATOM     22  C   UNL     1      -1.560  -1.271  24.574  0.00  0.00    +0.164 C 
ATOM     23  C   UNL     1      -2.283  -0.890  24.462  0.00  0.00    +0.125 C 
ENDBRANCH  15  16
BRANCH   8   7
ATOM      7  C   UNL     1      -3.716   2.464  23.935  0.00  0.00    +0.145 C 
BRANCH   7   6
ATOM      4  C   UNL     1      -2.631   3.869  25.121  0.00  0.00    +0.131 A 
ATOM      5  C   UNL     1      -2.654   3.272  24.550  0.00  0.00    +0.116 A 
ATOM      6  N   UNL     1      -3.440   3.045  24.452  0.00  0.00    -0.229 N 
ATOM     24  N   UNL     1      -3.904   3.501  24.961  0.00  0.00    -0.064 NA
ATOM     25  N   UNL     1      -3.403   4.010  25.374  0.00  0.00    -0.131 NA
BRANCH   4   3
ATOM      3  C   UNL     1      -1.954   4.257  25.390  0.00  0.00    +0.191 C 
BRANCH   3   2
ATOM      1  C   UNL     1      -0.905   5.163  25.043  0.00  0.00    +0.175 C 
ATOM      2  O   UNL     1      -1.702   4.951  25.022  0.00  0.00    -0.345 OA
ENDBRANCH   3   2
ENDBRANCH   4   3
ENDBRANCH   7   6
ENDBRANCH   8   7
TORSDOF 5
ENDMDL
MODEL 2
REMARK VINA RESULT:      -9.5      1.027      4.727
REMARK  Name = 
REMARK  5 active torsions:
REMARK  status: ('A' for Active; 'I' for Inactive)
REMARK    1  A    between atoms: O_2  and  C_3
REMARK    2  A    between atoms: C_3  and  C_4
REMARK    3  A    between atoms: N_6  and  C_7
REMARK    4  A    between atoms: C_7  and  C_8
REMARK    5  A    between atoms: C_15  and  C_16
REMARK                            x       y       z     vdW  Elec       q    Type
REMARK                         _______ _______ _______ _____ _____    ______ ____
ROOT
ATOM      8  C   UNL     1      -4.210   1.212  24.826  0.00  0.00    +0.082 C 
ATOM      9  C   UNL     1      -4.171   1.692  24.215  0.00  0.00    +0.019 C 
ATOM     10  C   UNL     1      -3.815   2.420  24.209  0.00  0.00    +0.013 C 
ATOM     11  C   UNL     1      -3.880   2.816  23.407  0.00  0.00    +0.018 C 
ATOM     12  C   UNL     1      -3.972   2.340  23.845  0.00  0.00    +0.072 C 
ATOM     13  N   UNL     1      -3.849   1.955  24.812  0.00  0.00    -0.272 NA
ATOM     14  C   UNL     1      -3.408   2.431  25.453  0.00  0.00    +0.081 C 
ATOM     15  C   UNL     1      -3.392   2.873  24.831  0.00  0.00    +0.093 C 
ENDROOT
BRANCH  15  16
ATOM     16  C   UNL     1      -3.049   3.620  24.757  0.00  0.00    +0.227 C 
ATOM     17  O   UNL     1      -3.483   4.243  24.434  0.00  0.00    -0.275 OA
ATOM     18  N   UNL     1      -2.273   3.743  25.007  0.00  0.00    -0.274 N 
ATOM     19  C   UNL     1      -1.930   4.490  24.934  0.00  0.00    +0.125 C 
ATOM     20  C   UNL     1      -1.153   4.613  25.184  0.00  0.00    +0.164 C 
ATOM     21  O   UNL     1      -0.720   3.990  25.507  0.00  0.00    -0.350 OA
ATOM     22  C   UNL     1      -1.063   3.243  25.581  0.00  0.00    +0.164 C 
ATOM     23  C   UNL     1      -1.839   3.120  25.331  0.00  0.00    +0.125 C 
ENDBRANCH  15  16
BRANCH   8   7
ATOM      7  C   UNL     1      -4.434   0.511  25.197  0.00  0.00    +0.145 C 
BRANCH   7   6
ATOM      4  C   UNL     1      -3.608  -1.377  24.641  0.00  0.00    +0.131 A 
ATOM      5  C   UNL     1      -3.622  -0.711  25.129  0.00  0.00    +0.116 A 
ATOM      6  N   UNL     1      -4.226  -0.216  24.867  0.00  0.00    -0.229 N 
ATOM     24  N   UNL     1      -4.587  -0.574  24.217  0.00  0.00    -0.064 NA
ATOM     25  N   UNL     1      -4.205  -1.292  24.078  0.00  0.00    -0.131 NA
BRANCH   4   3
ATOM      3  C   UNL     1      -3.089  -2.015  24.704  0.00  0.00    +0.191 C 
BRANCH   3   2
ATOM      1  C   UNL     1      -1.799  -2.587  24.479  0.00  0.00    +0.175 C 
ATOM      2  O   UNL     1      -2.333  -1.966  24.377  0.00  0.00    -0.345 OA
ENDBRANCH   3   2
ENDBRANCH   4   3
ENDBRANCH   7   6
ENDBRANCH   8   7
TORSDOF 5
ENDMDL
MODEL 3
REMARK VINA RESULT:      -9.3      0.998      1.577
REMARK  Name = 
REMARK  5 active torsions:
REMARK  status: ('A' for Active; 'I' for Inactive)
REMARK    1  A    between atoms: O_2  and  C_3
REMARK    2  A    between atoms: C_3  and  C_4
REMARK    3  A    between atoms: N_6  and  C_7
REMARK    4  A    between atoms: C_7  and  C_8
REMARK    5  A    between atoms: C_15  and  C_16
REMARK                            x       y       z     vdW  Elec       q    Type
REMARK                         _______ _______ _______ _____ _____    ______ ____
ROOT
ATOM      8  C   UNL     1      -3.110   1.568  24.826  0.00  0.00    +0.082 C 
ATOM      9  C   UNL     1      -2.459   1.152  24.914  0.00  0.00    +0.019 C 
ATOM     10  C   UNL     1      -2.422   0.351  25.029  0.00  0.00    +0.013 C 
ATOM     11  C   UNL     1      -1.576   0.064  25.108  0.00  0.00    +0.018 C 
ATOM     12  C   UNL     1      -2.049   0.507  25.024  0.00  0.00    +0.072 C 
ATOM     13  N   UNL     1      -3.065   0.752  24.943  0.00  0.00    -0.272 NA
ATOM     14  C   UNL     1      -3.708   0.108  25.004  0.00  0.00    +0.081 C 
ATOM     15  C   UNL     1      -3.046  -0.263  25.086  0.00  0.00    +0.093 C 
ENDROOT
BRANCH  15  16
ATOM     16  C   UNL     1      -2.939  -1.073  25.205  0.00  0.00    +0.227 C 
ATOM     17  O   UNL     1      -2.400  -1.339  25.771  0.00  0.00    -0.275 OA
ATOM     18  N   UNL     1      -3.370  -1.615  24.759  0.00  0.00    -0.274 N 
ATOM     19  C   UNL     1      -3.263  -2.425  24.877  0.00  0.00    +0.125 C 
ATOM     20  C   UNL     1      -3.695  -2.968  24.430  0.00  0.00    +0.164 C 
ATOM     21  O   UNL     1      -4.233  -2.701  23.865  0.00  0.00    -0.350 OA
ATOM     22  C   UNL     1      -4.340  -1.892  23.746  0.00  0.00    +0.164 C 
ATOM     23  C   UNL     1      -3.909  -1.350  24.193  0.00  0.00    +0.125 C 
ENDBRANCH  15  16
BRANCH   8   7
ATOM      7  C   UNL     1      -3.523   2.272  24.708  0.00  0.00    +0.145 C 
BRANCH   7   6
ATOM      4  C   UNL     1      -2.607   4.120  25.258  0.00  0.00    +0.131 A 
ATOM      5  C   UNL     1      -2.716   3.499  24.724  0.00  0.00    +0.116 A 
ATOM      6  N   UNL     1      -3.255   2.971  25.055  0.00  0.00    -0.229 N 
ATOM     24  N   UNL     1      -3.480   3.263  25.793  0.00  0.00    -0.064 NA
ATOM     25  N   UNL     1      -3.079   3.973  25.918  0.00  0.00    -0.131 NA
BRANCH   4   3
ATOM      3  C   UNL     1      -2.112   4.771  25.150  0.00  0.00    +0.191 C 
BRANCH   3   2
ATOM      1  C   UNL     1      -0.807   5.300  24.911  0.00  0.00    +0.175 C 
ATOM      2  O   UNL     1      -1.295   4.668  25.118  0.00  0.00    -0.345 OA
ENDBRANCH   3   2
ENDBRANCH   4   3
ENDBRANCH   7   6
ENDBRANCH   8   7
TORSDOF 5
ENDMDL
MODEL 4
REMARK VINA RESULT:      -9.2      2.048      4.477
REMARK  Name = 
REMARK  5 active torsions:
REMARK  status: ('A' for Active; 'I' for Inactive)
REMARK    1  A    between atoms: O_2  and  C_3
REMARK    2  A    between atoms: C_3  and  C_4
REMARK    3  A    between atoms: N_6  and  C_7
REMARK    4  A    between atoms: C_7  and  C_8
REMARK    5  A    between atoms: C_15  and  C_16
REMARK                            x       y       z     vdW  Elec       q    Type
REMARK                         _______ _______ _______ _____ _____    ______ ____
ROOT
ATOM      8  C   UNL     1      -1.796   2.668  24.223  0.00  0.00    +0.082 C 
ATOM      9  C   UNL     1      -1.901   3.111  24.855  0.00  0.00    +0.019 C 
ATOM     10  C   UNL     1      -2.616   3.330  25.164  0.00  0.00    +0.013 C 
ATOM     11  C   UNL     1      -2.522   3.841  25.894  0.00  0.00    +0.018 C 
ATOM     12  C   UNL     1      -2.317   3.485  25.387  0.00  0.00    +0.072 C 
ATOM     13  N   UNL     1      -2.522   2.896  24.544  0.00  0.00    -0.272 NA
ATOM     14  C   UNL     1      -3.382   2.722  24.293  0.00  0.00    +0.081 C 
ATOM     15  C   UNL     1      -3.441   3.159  24.916  0.00  0.00    +0.093 C 
ENDROOT
BRANCH  15  16
ATOM     16  C   UNL     1      -4.135   3.417  25.281  0.00  0.00    +0.227 C 
ATOM     17  O   UNL     1      -4.176   4.178  25.598  0.00  0.00    -0.275 OA
ATOM     18  N   UNL     1      -4.787   2.915  25.328  0.00  0.00    -0.274 N 
ATOM     19  C   UNL     1      -5.481   3.172  25.693  0.00  0.00    +0.125 C 
ATOM     20  C   UNL     1      -6.133   2.669  25.740  0.00  0.00    +0.164 C 
ATOM     21  O   UNL     1      -6.092   1.909  25.422  0.00  0.00    -0.350 OA
ATOM     22  C   UNL     1      -5.399   1.651  25.057  0.00  0.00    +0.164 C 
ATOM     23  C   UNL     1      -4.746   2.154  25.011  0.00  0.00    +0.125 C 
ENDBRANCH  15  16
BRANCH   8   7
ATOM      7  C   UNL     1      -1.328   2.278  23.668  0.00  0.00    +0.145 C 
BRANCH   7   6
ATOM      4  C   UNL     1      -0.336   0.463  24.197  0.00  0.00    +0.131 A 
ATOM      5  C   UNL     1      -1.000   0.868  23.919  0.00  0.00    +0.116 A 
ATOM      6  N   UNL     1      -0.822   1.672  23.908  0.00  0.00    -0.229 N 
ATOM     24  N   UNL     1      -0.048   1.766  24.178  0.00  0.00    -0.064 NA
ATOM     25  N   UNL     1       0.252   1.019  24.357  0.00  0.00    -0.131 NA
BRANCH   4   3
ATOM      3  C   UNL     1      -0.272  -0.353  24.297  0.00  0.00    +0.191 C 
BRANCH   3   2
ATOM      1  C   UNL     1      -0.562  -1.532  25.052  0.00  0.00    +0.175 C 
ATOM      2  O   UNL     1      -0.572  -0.710  24.978  0.00  0.00    -0.345 OA
ENDBRANCH   3   2
ENDBRANCH   4   3
ENDBRANCH   7   6
ENDBRANCH   8   7
TORSDOF 5
ENDMDL
MODEL 5
REMARK VINA RESULT:      -9.2      2.338      4.331
REMARK  Name = 
REMARK  5 active torsions:
REMARK  status: ('A' for Active; 'I' for Inactive)
REMARK    1  A    between atoms: O_2  and  C_3
REMARK    2  A    between atoms: C_3  and  C_4
REMARK    3  A    between atoms: N_6  and  C_7
REMARK    4  A    between atoms: C_7  and  C_8
REMARK    5  A    between atoms: C_15  and  C_16
REMARK                            x       y       z     vdW  Elec       q    Type
REMARK                         _______ _______ _______ _____ _____    ______ ____
ROOT
ATOM      8  C   UNL     1      -1.894   0.612  24.666  0.00  0.00    +0.082 C 
ATOM      9  C   UNL     1      -2.513   0.283  24.328  0.00  0.00    +0.019 C 
ATOM     10  C   UNL     1      -3.283   0.513  24.428  0.00  0.00    +0.013 C 
ATOM     11  C   UNL     1      -3.848   0.006  23.950  0.00  0.00    +0.018 C 
ATOM     12  C   UNL     1      -3.265   0.199  24.174  0.00  0.00    +0.072 C 
ATOM     13  N   UNL     1      -2.682   0.840  24.763  0.00  0.00    -0.272 NA
ATOM     14  C   UNL     1      -3.069   1.501  25.259  0.00  0.00    +0.081 C 
ATOM     15  C   UNL     1      -3.649   1.151  24.907  0.00  0.00    +0.093 C 
ENDROOT
BRANCH  15  16
ATOM     16  C   UNL     1      -4.452   1.334  24.966  0.00  0.00    +0.227 C 
ATOM     17  O   UNL     1      -5.018   0.745  24.849  0.00  0.00    -0.275 OA
ATOM     18  N   UNL     1      -4.687   2.104  25.140  0.00  0.00    -0.274 N 
ATOM     19  C   UNL     1      -5.490   2.287  25.198  0.00  0.00    +0.125 C 
ATOM     20  C   UNL     1      -5.725   3.058  25.372  0.00  0.00    +0.164 C 
ATOM     21  O   UNL     1      -5.159   3.647  25.488  0.00  0.00    -0.350 OA
ATOM     22  C   UNL     1      -4.356   3.465  25.430  0.00  0.00    +0.164 C 
ATOM     23  C   UNL     1      -4.121   2.693  25.256  0.00  0.00    +0.125 C 
ENDBRANCH  15  16
BRANCH   8   7
ATOM      7  C   UNL     1      -1.086   0.680  24.813  0.00  0.00    +0.145 C 
BRANCH   7   6
ATOM      4  C   UNL     1       0.374  -0.045  23.435  0.00  0.00    +0.131 A 
ATOM      5  C   UNL     1      -0.085   0.568  23.744  0.00  0.00    +0.116 A 
ATOM      6  N   UNL     1      -0.546   0.259  24.353  0.00  0.00    -0.229 N 
ATOM     24  N   UNL     1      -0.373  -0.545  24.422  0.00  0.00    -0.064 NA
ATOM     25  N   UNL     1       0.196  -0.733  23.854  0.00  0.00    -0.131 NA
BRANCH   4   3
ATOM      3  C   UNL     1       0.916   0.019  22.816  0.00  0.00    +0.191 C 
BRANCH   3   2
ATOM      1  C   UNL     1       2.269   0.025  22.356  0.00  0.00    +0.175 C 
ATOM      2  O   UNL     1       1.718  -0.113  22.955  0.00  0.00    -0.345 OA
ENDBRANCH   3   2
ENDBRANCH   4   3
ENDBRANCH   7   6
ENDBRANCH   8   7
TORSDOF 5
ENDMDL
MODEL 6
REMARK VINA RESULT:      -9.0      2.047      5.451
REMARK  Name = 
REMARK  5 active torsions:
REMARK  status: ('A' for Active; 'I' for Inactive)
REMARK    1  A    between atoms: O_2  and  C_3
REMARK    2  A    between atoms: C_3  and  C_4
REMARK    3  A    between atoms: N_6  and  C_7
REMARK    4  A    between atoms: C_7  and  C_8
REMARK    5  A    between atoms: C_15  and  C_16
REMARK                            x       y       z     vdW  Elec       q    Type
REMARK                         _______ _______ _______ _____ _____    ______ ____
ROOT
ATOM      8  C   UNL     1      -0.960   0.235  25.354  0.00  0.00    +0.082 C 
ATOM      9  C   UNL     1      -0.605   0.559  24.742  0.00  0.00    +0.019 C 
ATOM     10  C   UNL     1      -0.477   1.351  24.636  0.00  0.00    +0.013 C 
ATOM     11  C   UNL     1      -0.052   1.521  23.864  0.00  0.00    +0.018 C 
ATOM     12  C   UNL     1      -0.329   1.145  24.321  0.00  0.00    +0.072 C 
ATOM     13  N   UNL     1      -0.825   1.041  25.239  0.00  0.00    -0.272 NA
ATOM     14  C   UNL     1      -1.027   1.773  25.746  0.00  0.00    +0.081 C 
ATOM     15  C   UNL     1      -0.674   2.050  25.129  0.00  0.00    +0.093 C 
ENDROOT
BRANCH  15  16
ATOM     16  C   UNL     1      -0.513   2.842  24.960  0.00  0.00    +0.227 C 
ATOM     17  O   UNL     1       0.190   3.047  24.579  0.00  0.00    -0.275 OA
ATOM     18  N   UNL     1      -1.053   3.427  25.172  0.00  0.00    -0.274 N 
ATOM     19  C   UNL     1      -0.891   4.219  25.004  0.00  0.00    +0.125 C 
ATOM     20  C   UNL     1      -1.432   4.804  25.216  0.00  0.00    +0.164 C 
ATOM     21  O   UNL     1      -2.134   4.599  25.597  0.00  0.00    -0.350 OA
ATOM     22  C   UNL     1      -2.297   3.808  25.766  0.00  0.00    +0.164 C 
ATOM     23  C   UNL     1      -1.756   3.222  25.553  0.00  0.00    +0.125 C 
ENDBRANCH  15  16
BRANCH   8   7
ATOM      7  C   UNL     1      -1.246  -0.409  25.783  0.00  0.00    +0.145 C 
BRANCH   7   6
ATOM      4  C   UNL     1      -2.409  -1.932  24.844  0.00  0.00    +0.131 A 
ATOM      5  C   UNL     1      -2.352  -1.222  25.260  0.00  0.00    +0.116 A 
ATOM      6  N   UNL     1      -1.553  -1.064  25.387  0.00  0.00    -0.229 N 
ATOM     24  N   UNL     1      -1.115  -1.676  25.050  0.00  0.00    -0.064 NA
ATOM     25  N   UNL     1      -1.644  -2.213  24.714  0.00  0.00    -0.131 NA
BRANCH   4   3
ATOM      3  C   UNL     1      -3.107  -2.298  24.600  0.00  0.00    +0.191 C 
BRANCH   3   2
ATOM      1  C   UNL     1      -4.294  -2.292  23.804  0.00  0.00    +0.175 C 
ATOM      2  O   UNL     1      -3.609  -1.916  24.069  0.00  0.00    -0.345 OA
ENDBRANCH   3   2
ENDBRANCH   4   3
ENDBRANCH   7   6
ENDBRANCH   8   7
TORSDOF 5
ENDMDL
