MODEL 1
REMARK VINA RESULT:     -12.4      0.000      0.000
REMARK  Name = 
REMARK  7 active torsions:
REMARK  status: ('A' for Active; 'I' for Inactive)
REMARK    1  A    between atoms: C_2  and  C_4
REMARK    2  A    between atoms: C_6  and  C_7
REMARK    3  A    between atoms: C_7  and  C_8
REMARK    4  A    between atoms: C_11  and  C_13
REMARK    5  A    between atoms: C_22  and  C_23
REMARK    6  A    between atoms: C_23  and  N_24
REMARK    7  A    between atoms: C_27  and  C_30
REMARK                            x       y       z     vdW  Elec       q    Type
REMARK                         _______ _______ _______ _____ _____    ______ ____
ROOT
ATOM      4  C   UNL     1      -3.303   1.603  23.612  0.00  0.00    +0.006 C 
ATOM      5  C   UNL     1      -3.520   2.290  24.013  0.00  0.00    +0.005 C 
ATOM      6  C   UNL     1      -4.072   2.252  24.626  0.00  0.00    +0.027 C 
ATOM     19  C   UNL     1      -4.404   1.528  24.838  0.00  0.00    -0.048 C 
ATOM     20  C   UNL     1      -4.955   1.490  25.450  0.00  0.00    +0.026 C 
ATOM     21  C   UNL     1      -4.186   0.841  24.435  0.00  0.00    -0.034 C 
ATOM     22  C   UNL     1      -3.635   0.878  23.823  0.00  0.00    +0.037 C 
ENDROOT
BRANCH   4   2
ATOM      1  C   UNL     1      -3.001   1.814  22.231  0.00  0.00    +0.000 C 
ATOM      2  C   UNL     1      -2.752   1.642  22.999  0.00  0.00    +0.000 C 
ATOM      3  C   UNL     1      -1.953   1.508  23.153  0.00  0.00    +0.000 C 
ENDBRANCH   4   2
BRANCH   6   7
ATOM      7  C   UNL     1      -4.289   2.939  25.027  0.00  0.00    +0.091 C 
BRANCH   7   8
ATOM      8  C   UNL     1      -3.710   3.437  25.338  0.00  0.00    +0.227 A 
ATOM      9  N   UNL     1      -3.662   3.696  26.120  0.00  0.00    -0.111 NA
ATOM     10  N   UNL     1      -2.999   4.182  26.187  0.00  0.00    -0.107 NA
ATOM     11  C   UNL     1      -2.637   4.224  25.447  0.00  0.00    +0.250 A 
ATOM     12  O   UNL     1      -3.077   3.763  24.922  0.00  0.00    -0.420 OA
BRANCH  11  13
ATOM     13  C   UNL     1      -1.956   4.651  25.263  0.00  0.00    +0.055 A 
ATOM     14  C   UNL     1      -1.228   4.266  25.216  0.00  0.00    +0.005 A 
ATOM     15  C   UNL     1      -0.546   4.692  25.032  0.00  0.00    +0.000 A 
ATOM     16  C   UNL     1      -0.593   5.505  24.894  0.00  0.00    +0.000 A 
ATOM     17  C   UNL     1      -1.321   5.891  24.941  0.00  0.00    +0.000 A 
ATOM     18  C   UNL     1      -2.003   5.463  25.125  0.00  0.00    +0.005 A 
ENDBRANCH  11  13
ENDBRANCH   7   8
ENDBRANCH   6   7
BRANCH  22  23
ATOM     23  C   UNL     1      -3.417   0.192  23.421  0.00  0.00    +0.076 C 
BRANCH  23  24
ATOM     24  N   UNL     1      -3.443  -0.538  23.808  0.00  0.00    -0.272 NA
ATOM     25  C   UNL     1      -2.827  -0.759  24.310  0.00  0.00    +0.073 C 
ATOM     26  C   UNL     1      -2.852  -1.488  24.696  0.00  0.00    +0.027 C 
ATOM     27  C   UNL     1      -3.493  -1.995  24.579  0.00  0.00    +0.083 C 
ATOM     28  C   UNL     1      -4.108  -1.773  24.076  0.00  0.00    +0.027 C 
ATOM     29  C   UNL     1      -4.083  -1.044  23.690  0.00  0.00    +0.073 C 
BRANCH  27  30
ATOM     30  C   UNL     1      -3.518  -2.723  24.964  0.00  0.00    +0.260 C 
ATOM     31  N   UNL     1      -3.596  -3.419  24.527  0.00  0.00    -0.088 NA
ATOM     32  O   UNL     1      -3.466  -2.758  25.786  0.00  0.00    -0.272 OA
ENDBRANCH  27  30
ENDBRANCH  23  24
ENDBRANCH  22  23
TORSDOF 7
ENDMDL
MODEL 2
REMARK VINA RESULT:     -12.2      0.933      1.910
REMARK  Name = 
REMARK  7 active torsions:
REMARK  status: ('A' for Active; 'I' for Inactive)
REMARK    1  A    between atoms: C_2  and  C_4
REMARK    2  A    between atoms: C_6  and  C_7
REMARK    3  A    between atoms: C_7  and  C_8
REMARK    4  A    between atoms: C_11  and  C_13
REMARK    5  A    between atoms: C_22  and  C_23
REMARK    6  A    between atoms: C_23  and  N_24
REMARK    7  A    between atoms: C_27  and  C_30
REMARK                            x       y       z     vdW  Elec       q    Type
REMARK                         _______ _______ _______ _____ _____    ______ ____
ROOT
ATOM      4  C   UNL     1      -4.963   1.478  24.806  0.00  0.00    +0.006 C 
ATOM      5  C   UNL     1      -4.728   2.181  24.443  0.00  0.00    +0.005 C 
ATOM      6  C   UNL     1      -4.118   2.174  23.886  0.00  0.00    +0.027 C 
ATOM     19  C   UNL     1      -3.743   1.464  23.694  0.00  0.00    -0.048 C 
ATOM     20  C   UNL     1      -3.134   1.458  23.138  0.00  0.00    +0.026 C 
ATOM     21  C   UNL     1      -3.979   0.762  24.058  0.00  0.00    -0.034 C 
ATOM     22  C   UNL     1      -4.588   0.769  24.613  0.00  0.00    +0.037 C 
ENDROOT
BRANCH   4   2
ATOM      1  C   UNL     1      -6.354   1.388  25.116  0.00  0.00    +0.000 C 
ATOM      2  C   UNL     1      -5.572   1.486  25.361  0.00  0.00    +0.000 C 
ATOM      3  C   UNL     1      -5.401   1.591  26.160  0.00  0.00    +0.000 C 
ENDBRANCH   4   2
BRANCH   6   7
ATOM      7  C   UNL     1      -3.883   2.877  23.524  0.00  0.00    +0.091 C 
BRANCH   7   8
ATOM      8  C   UNL     1      -3.473   3.447  23.955  0.00  0.00    +0.227 A 
ATOM      9  N   UNL     1      -3.803   4.109  24.320  0.00  0.00    -0.111 NA
ATOM     10  N   UNL     1      -3.194   4.527  24.688  0.00  0.00    -0.107 NA
ATOM     11  C   UNL     1      -2.488   4.123  24.551  0.00  0.00    +0.250 A 
ATOM     12  O   UNL     1      -2.661   3.455  24.098  0.00  0.00    -0.420 OA
BRANCH  11  13
ATOM     13  C   UNL     1      -1.741   4.347  24.819  0.00  0.00    +0.055 A 
ATOM     14  C   UNL     1      -1.487   5.127  24.729  0.00  0.00    +0.005 A 
ATOM     15  C   UNL     1      -0.740   5.352  24.997  0.00  0.00    +0.000 A 
ATOM     16  C   UNL     1      -0.247   4.795  25.356  0.00  0.00    +0.000 A 
ATOM     17  C   UNL     1      -0.500   4.016  25.446  0.00  0.00    +0.000 A 
ATOM     18  C   UNL     1      -1.248   3.792  25.177  0.00  0.00    +0.005 A 
ENDBRANCH  11  13
ENDBRANCH   7   8
ENDBRANCH   6   7
BRANCH  22  23
ATOM     23  C   UNL     1      -4.823   0.067  24.976  0.00  0.00    +0.076 C 
BRANCH  23  24
ATOM     24  N   UNL     1      -4.370  -0.617  24.883  0.00  0.00    -0.272 NA
ATOM     25  C   UNL     1      -4.504  -1.116  24.240  0.00  0.00    +0.073 C 
ATOM     26  C   UNL     1      -4.051  -1.800  24.147  0.00  0.00    +0.027 C 
ATOM     27  C   UNL     1      -3.465  -1.985  24.699  0.00  0.00    +0.083 C 
ATOM     28  C   UNL     1      -3.332  -1.485  25.342  0.00  0.00    +0.027 C 
ATOM     29  C   UNL     1      -3.785  -0.802  25.434  0.00  0.00    +0.073 C 
BRANCH  27  30
ATOM     30  C   UNL     1      -3.013  -2.667  24.606  0.00  0.00    +0.260 C 
ATOM     31  N   UNL     1      -2.204  -2.610  24.452  0.00  0.00    -0.088 NA
ATOM     32  O   UNL     1      -3.368  -3.409  24.667  0.00  0.00    -0.272 OA
ENDBRANCH  27  30
ENDBRANCH  23  24
ENDBRANCH  22  23
TORSDOF 7
ENDMDL
MODEL 3
REMARK VINA RESULT:     -11.5      1.754      5.349
REMARK  Name = 
REMARK  7 active torsions:
REMARK  status: ('A' for Active; 'I' for Inactive)
REMARK    1  A    between atoms: C_2  and  C_4
REMARK    2  A    between atoms: C_6  and  C_7
REMARK    3  A    between atoms: C_7  and  C_8
REMARK    4  A    between atoms: C_11  and  C_13
REMARK    5  A    between atoms: C_22  and  C_23
REMARK    6  A    between atoms: C_23  and  N_24
REMARK    7  A    between atoms: C_27  and  C_30
REMARK                            x       y       z     vdW  Elec       q    Type
REMARK                         _______ _______ _______ _____ _____    ______ ____
ROOT
ATOM      4  C   UNL     1      -1.331   2.676  24.863  0.00  0.00    +0.006 C 
ATOM      5  C   UNL     1      -1.017   1.992  24.523  0.00  0.00    +0.005 C 
ATOM      6  C   UNL     1      -1.427   1.607  23.919  0.00  0.00    +0.027 C 
ATOM     19  C   UNL     1      -2.150   1.905  23.655  0.00  0.00    -0.048 C 
ATOM     20  C   UNL     1      -2.559   1.520  23.052  0.00  0.00    +0.026 C 
ATOM     21  C   UNL     1      -2.463   2.589  23.996  0.00  0.00    -0.034 C 
ATOM     22  C   UNL     1      -2.053   2.974  24.599  0.00  0.00    +0.037 C 
ENDROOT
BRANCH   4   2
ATOM      1  C   UNL     1      -0.554   3.785  25.318  0.00  0.00    +0.000 C 
ATOM      2  C   UNL     1      -0.921   3.060  25.466  0.00  0.00    +0.000 C 
ATOM      3  C   UNL     1      -0.877   2.722  26.216  0.00  0.00    +0.000 C 
ENDBRANCH   4   2
BRANCH   6   7
ATOM      7  C   UNL     1      -1.114   0.924  23.579  0.00  0.00    +0.091 C 
BRANCH   7   8
ATOM      8  C   UNL     1      -1.178   0.202  23.971  0.00  0.00    +0.227 A 
ATOM      9  N   UNL     1      -0.555  -0.229  24.299  0.00  0.00    -0.111 NA
ATOM     10  N   UNL     1      -0.868  -0.915  24.635  0.00  0.00    -0.107 NA
ATOM     11  C   UNL     1      -1.684  -0.908  24.515  0.00  0.00    +0.250 A 
ATOM     12  O   UNL     1      -1.875  -0.218  24.105  0.00  0.00    -0.420 OA
BRANCH  11  13
ATOM     13  C   UNL     1      -2.215  -1.488  24.762  0.00  0.00    +0.055 A 
ATOM     14  C   UNL     1      -2.742  -1.331  25.377  0.00  0.00    +0.005 A 
ATOM     15  C   UNL     1      -3.274  -1.911  25.625  0.00  0.00    +0.000 A 
ATOM     16  C   UNL     1      -3.279  -2.649  25.256  0.00  0.00    +0.000 A 
ATOM     17  C   UNL     1      -2.753  -2.807  24.640  0.00  0.00    +0.000 A 
ATOM     18  C   UNL     1      -2.221  -2.226  24.393  0.00  0.00    +0.005 A 
ENDBRANCH  11  13
ENDBRANCH   7   8
ENDBRANCH   6   7
BRANCH  22  23
ATOM     23  C   UNL     1      -2.366   3.657  24.939  0.00  0.00    +0.076 C 
BRANCH  23  24
ATOM     24  N   UNL     1      -3.174   3.703  25.105  0.00  0.00    -0.272 NA
ATOM     25  C   UNL     1      -3.693   4.014  24.544  0.00  0.00    +0.073 C 
ATOM     26  C   UNL     1      -4.500   4.060  24.710  0.00  0.00    +0.027 C 
ATOM     27  C   UNL     1      -4.788   3.794  25.437  0.00  0.00    +0.083 C 
ATOM     28  C   UNL     1      -4.268   3.483  25.996  0.00  0.00    +0.027 C 
ATOM     29  C   UNL     1      -3.461   3.437  25.830  0.00  0.00    +0.073 C 
BRANCH  27  30
ATOM     30  C   UNL     1      -5.593   3.840  25.602  0.00  0.00    +0.260 C 
ATOM     31  N   UNL     1      -6.026   3.151  25.743  0.00  0.00    -0.088 NA
ATOM     32  O   UNL     1      -5.969   4.574  25.628  0.00  0.00    -0.272 OA
ENDBRANCH  27  30
ENDBRANCH  23  24
ENDBRANCH  22  23
TORSDOF 7
ENDMDL
MODEL 4
REMARK VINA RESULT:     -11.5      1.296      5.392
REMARK  Name = 
REMARK  7 active torsions:
REMARK  status: ('A' for Active; 'I' for Inactive)
REMARK    1  A    between atoms: C_2  and  C_4
REMARK    2  A    between atoms: C_6  and  C_7
REMARK    3  A    between atoms: C_7  and  C_8
REMARK    4  A    between atoms: C_11  and  C_13
REMARK    5  A    between atoms: C_22  and  C_23
REMARK    6  A    between atoms: C_23  and  N_24
REMARK    7  A    between atoms: C_27  and  C_30
REMARK                            x       y       z     vdW  Elec       q    Type
REMARK                         _______ _______ _______ _____ _____    ______ ____
ROOT
ATOM      4  C   UNL     1      -4.716   1.758  24.898  0.00  0.00    +0.006 C 
ATOM      5  C   UNL     1      -4.675   1.005  24.563  0.00  0.00    +0.005 C 
ATOM      6  C   UNL     1      -4.104   0.840  23.990  0.00  0.00    +0.027 C 
ATOM     19  C   UNL     1      -3.575   1.427  23.753  0.00  0.00    -0.048 C 
ATOM     20  C   UNL     1      -3.005   1.261  23.181  0.00  0.00    +0.026 C 
ATOM     21  C   UNL     1      -3.618   2.180  24.089  0.00  0.00    -0.034 C 
ATOM     22  C   UNL     1      -4.188   2.345  24.661  0.00  0.00    +0.037 C 
ENDROOT
BRANCH   4   2
ATOM      1  C   UNL     1      -5.980   2.319  25.259  0.00  0.00    +0.000 C 
ATOM      2  C   UNL     1      -5.287   1.923  25.470  0.00  0.00    +0.000 C 
ATOM      3  C   UNL     1      -5.166   1.692  26.252  0.00  0.00    +0.000 C 
ENDBRANCH   4   2
BRANCH   6   7
ATOM      7  C   UNL     1      -4.062   0.087  23.656  0.00  0.00    +0.091 C 
BRANCH   7   8
ATOM      8  C   UNL     1      -3.701  -0.529  24.068  0.00  0.00    +0.227 A 
ATOM      9  N   UNL     1      -4.089  -1.148  24.452  0.00  0.00    -0.111 NA
ATOM     10  N   UNL     1      -3.517  -1.636  24.791  0.00  0.00    -0.107 NA
ATOM     11  C   UNL     1      -2.775  -1.319  24.617  0.00  0.00    +0.250 A 
ATOM     12  O   UNL     1      -2.890  -0.634  24.170  0.00  0.00    -0.420 OA
BRANCH  11  13
ATOM     13  C   UNL     1      -2.048  -1.630  24.848  0.00  0.00    +0.055 A 
ATOM     14  C   UNL     1      -1.806  -2.367  24.566  0.00  0.00    +0.005 A 
ATOM     15  C   UNL     1      -1.078  -2.679  24.797  0.00  0.00    +0.000 A 
ATOM     16  C   UNL     1      -0.592  -2.254  25.311  0.00  0.00    +0.000 A 
ATOM     17  C   UNL     1      -0.833  -1.518  25.594  0.00  0.00    +0.000 A 
ATOM     18  C   UNL     1      -1.562  -1.206  25.362  0.00  0.00    +0.005 A 
ENDBRANCH  11  13
ENDBRANCH   7   8
ENDBRANCH   6   7
BRANCH  22  23
ATOM     23  C   UNL     1      -4.230   3.097  24.996  0.00  0.00    +0.076 C 
BRANCH  23  24
ATOM     24  N   UNL     1      -3.553   3.568  25.039  0.00  0.00    -0.272 NA
ATOM     25  C   UNL     1      -3.387   4.108  24.436  0.00  0.00    +0.073 C 
ATOM     26  C   UNL     1      -2.711   4.578  24.479  0.00  0.00    +0.027 C 
ATOM     27  C   UNL     1      -2.201   4.510  25.125  0.00  0.00    +0.083 C 
ATOM     28  C   UNL     1      -2.367   3.971  25.726  0.00  0.00    +0.027 C 
ATOM     29  C   UNL     1      -3.044   3.500  25.683  0.00  0.00    +0.073 C 
BRANCH  27  30
ATOM     30  C   UNL     1      -1.525   4.980  25.168  0.00  0.00    +0.260 C 
ATOM     31  N   UNL     1      -0.779   4.642  25.062  0.00  0.00    -0.088 NA
ATOM     32  O   UNL     1      -1.594   5.789  25.316  0.00  0.00    -0.272 OA
ENDBRANCH  27  30
ENDBRANCH  23  24
ENDBRANCH  22  23
TORSDOF 7
ENDMDL
MODEL 5
REMARK VINA RESULT:     -11.5      2.084      3.550
REMARK  Name = 
REMARK  7 active torsions:
REMARK  status: ('A' for Active; 'I' for Inactive)
REMARK    1  A    between atoms: C_2  and  C_4
REMARK    2  A    between atoms: C_6  and  C_7
REMARK    3  A    between atoms: C_7  and  C_8
REMARK    4  A    between atoms: C_11  and  C_13
REMARK    5  A    between atoms: C_22  and  C_23
REMARK    6  A    between atoms: C_23  and  N_24
REMARK    7  A    between atoms: C_27  and  C_30
REMARK                            x       y       z     vdW  Elec       q    Type
REMARK                         _______ _______ _______ _____ _____    ______ ____
ROOT
ATOM      4  C   UNL     1      -1.237   2.501  24.694  0.00  0.00    +0.006 C 
ATOM      5  C   UNL     1      -1.872   2.934  24.396  0.00  0.00    +0.005 C 
ATOM      6  C   UNL     1      -2.335   2.621  23.788  0.00  0.00    +0.027 C 
ATOM     19  C   UNL     1      -2.163   1.875  23.480  0.00  0.00    -0.048 C 
ATOM     20  C   UNL     1      -2.625   1.563  22.873  0.00  0.00    +0.026 C 
ATOM     21  C   UNL     1      -1.527   1.443  23.780  0.00  0.00    -0.034 C 
ATOM     22  C   UNL     1      -1.064   1.755  24.386  0.00  0.00    +0.037 C 
ENDROOT
BRANCH   4   2
ATOM      1  C   UNL     1      -0.043   3.155  25.128  0.00  0.00    +0.000 C 
ATOM      2  C   UNL     1      -0.775   2.814  25.301  0.00  0.00    +0.000 C 
ATOM      3  C   UNL     1      -1.043   2.788  26.080  0.00  0.00    +0.000 C 
ENDBRANCH   4   2
BRANCH   6   7
ATOM      7  C   UNL     1      -2.971   3.054  23.489  0.00  0.00    +0.091 C 
BRANCH   7   8
ATOM      8  C   UNL     1      -3.633   3.192  23.960  0.00  0.00    +0.227 A 
ATOM      9  N   UNL     1      -3.936   3.932  24.166  0.00  0.00    -0.111 NA
ATOM     10  N   UNL     1      -4.600   3.812  24.640  0.00  0.00    -0.107 NA
ATOM     11  C   UNL     1      -4.708   2.999  24.728  0.00  0.00    +0.250 A 
ATOM     12  O   UNL     1      -4.110   2.616  24.307  0.00  0.00    -0.420 OA
BRANCH  11  13
ATOM     13  C   UNL     1      -5.308   2.633  25.159  0.00  0.00    +0.055 A 
ATOM     14  C   UNL     1      -5.782   2.059  24.803  0.00  0.00    +0.005 A 
ATOM     15  C   UNL     1      -6.382   1.692  25.233  0.00  0.00    +0.000 A 
ATOM     16  C   UNL     1      -6.507   1.899  26.023  0.00  0.00    +0.000 A 
ATOM     17  C   UNL     1      -6.034   2.472  26.380  0.00  0.00    +0.000 A 
ATOM     18  C   UNL     1      -5.434   2.839  25.947  0.00  0.00    +0.005 A 
ENDBRANCH  11  13
ENDBRANCH   7   8
ENDBRANCH   6   7
BRANCH  22  23
ATOM     23  C   UNL     1      -0.429   1.323  24.685  0.00  0.00    +0.076 C 
BRANCH  23  24
ATOM     24  N   UNL     1      -0.490   0.503  24.767  0.00  0.00    -0.272 NA
ATOM     25  C   UNL     1      -0.142   0.007  24.207  0.00  0.00    +0.073 C 
ATOM     26  C   UNL     1      -0.203  -0.812  24.289  0.00  0.00    +0.027 C 
ATOM     27  C   UNL     1      -0.611  -1.134  24.930  0.00  0.00    +0.083 C 
ATOM     28  C   UNL     1      -0.958  -0.636  25.489  0.00  0.00    +0.027 C 
ATOM     29  C   UNL     1      -0.898   0.182  25.407  0.00  0.00    +0.073 C 
BRANCH  27  30
ATOM     30  C   UNL     1      -0.672  -1.952  25.012  0.00  0.00    +0.260 C 
ATOM     31  N   UNL     1      -1.308  -2.355  24.673  0.00  0.00    -0.088 NA
ATOM     32  O   UNL     1      -0.097  -2.369  25.431  0.00  0.00    -0.272 OA
ENDBRANCH  27  30
ENDBRANCH  23  24
ENDBRANCH  22  23
TORSDOF 7
ENDMDL
MODEL 6
REMARK VINA RESULT:     -11.3      1.946      5.943
REMARK  Name = 
REMARK  7 active torsions:
REMARK  status: ('A' for Active; 'I' for Inactive)
REMARK    1  A    between atoms: C_2  and  C_4
REMARK    2  A    between atoms: C_6  and  C_7
REMARK    3  A    between atoms: C_7  and  C_8
REMARK    4  A    between atoms: C_11  and  C_13
REMARK    5  A    between atoms: C_22  and  C_23
REMARK    6  A    between atoms: C_23  and  N_24
REMARK    7  A    between atoms: C_27  and  C_30
REMARK                            x       y       z     vdW  Elec       q    Type
REMARK                         _______ _______ _______ _____ _____    ______ ____
ROOT
ATOM      4  C   UNL     1      -0.129   0.521  24.218  0.00  0.00    +0.006 C 
ATOM      5  C   UNL     1      -0.307  -0.210  24.554  0.00  0.00    +0.005 C 
ATOM      6  C   UNL     1      -0.705  -0.246  25.277  0.00  0.00    +0.027 C 
ATOM     19  C   UNL     1      -0.923   0.450  25.662  0.00  0.00    -0.048 C 
ATOM     20  C   UNL     1      -1.320   0.414  26.384  0.00  0.00    +0.026 C 
ATOM     21  C   UNL     1      -0.744   1.181  25.325  0.00  0.00    -0.034 C 
ATOM     22  C   UNL     1      -0.347   1.217  24.603  0.00  0.00    +0.037 C 
ENDROOT
BRANCH   4   2
ATOM      1  C   UNL     1      -0.156   0.503  22.789  0.00  0.00    +0.000 C 
ATOM      2  C   UNL     1       0.268   0.556  23.496  0.00  0.00    +0.000 C 
ATOM      3  C   UNL     1       1.088   0.644  23.479  0.00  0.00    +0.000 C 
ENDBRANCH   4   2
BRANCH   6   7
ATOM      7  C   UNL     1      -0.883  -0.978  25.613  0.00  0.00    +0.091 C 
BRANCH   7   8
ATOM      8  C   UNL     1      -1.370  -1.508  25.213  0.00  0.00    +0.227 A 
ATOM      9  N   UNL     1      -1.151  -2.254  24.937  0.00  0.00    -0.111 NA
ATOM     10  N   UNL     1      -1.808  -2.594  24.571  0.00  0.00    -0.107 NA
ATOM     11  C   UNL     1      -2.433  -2.058  24.621  0.00  0.00    +0.250 A 
ATOM     12  O   UNL     1      -2.162  -1.387  25.018  0.00  0.00    -0.420 OA
BRANCH  11  13
ATOM     13  C   UNL     1      -3.195  -2.172  24.326  0.00  0.00    +0.055 A 
ATOM     14  C   UNL     1      -3.670  -1.521  24.147  0.00  0.00    +0.005 A 
ATOM     15  C   UNL     1      -4.432  -1.634  23.852  0.00  0.00    +0.000 A 
ATOM     16  C   UNL     1      -4.719  -2.399  23.737  0.00  0.00    +0.000 A 
ATOM     17  C   UNL     1      -4.246  -3.050  23.916  0.00  0.00    +0.000 A 
ATOM     18  C   UNL     1      -3.483  -2.936  24.211  0.00  0.00    +0.005 A 
ENDBRANCH  11  13
ENDBRANCH   7   8
ENDBRANCH   6   7
BRANCH  22  23
ATOM     23  C   UNL     1      -0.169   1.948  24.267  0.00  0.00    +0.076 C 
BRANCH  23  24
ATOM     24  N   UNL     1      -0.554   2.629  24.530  0.00  0.00    -0.272 NA
ATOM     25  C   UNL     1      -1.297   2.825  24.228  0.00  0.00    +0.073 C 
ATOM     26  C   UNL     1      -1.682   3.505  24.491  0.00  0.00    +0.027 C 
ATOM     27  C   UNL     1      -1.325   3.990  25.056  0.00  0.00    +0.083 C 
ATOM     28  C   UNL     1      -0.583   3.794  25.357  0.00  0.00    +0.027 C 
ATOM     29  C   UNL     1      -0.197   3.113  25.094  0.00  0.00    +0.073 C 
BRANCH  27  30
ATOM     30  C   UNL     1      -1.710   4.670  25.319  0.00  0.00    +0.260 C 
ATOM     31  N   UNL     1      -2.422   4.607  25.732  0.00  0.00    -0.088 NA
ATOM     32  O   UNL     1      -1.384   5.413  25.169  0.00  0.00    -0.272 OA
ENDBRANCH  27  30
ENDBRANCH  23  24
ENDBRANCH  22  23
TORSDOF 7
ENDMDL
MODEL 7
REMARK VINA RESULT:     -11.0      1.337      2.057
REMARK  Name = 
REMARK  7 active torsions:
REMARK  status: ('A' for Active; 'I' for Inactive)
REMARK    1  A    between atoms: C_2  and  C_4
REMARK    2  A    between atoms: C_6  and  C_7
REMARK    3  A    between atoms: C_7  and  C_8
REMARK    4  A    between atoms: C_11  and  C_13
REMARK    5  A    between atoms: C_22  and  C_23
REMARK    6  A    between atoms: C_23  and  N_24
REMARK    7  A    between atoms: C_27  and  C_30
REMARK                            x       y       z     vdW  Elec       q    Type
REMARK                         _______ _______ _______ _____ _____    ______ ____
ROOT
ATOM      4  C   UNL     1      -3.016   1.270  24.551  0.00  0.00    +0.006 C 
ATOM      5  C   UNL     1      -2.293   1.664  24.493  0.00  0.00    +0.005 C 
ATOM      6  C   UNL     1      -1.587   1.243  24.565  0.00  0.00    +0.027 C 
ATOM     19  C   UNL     1      -1.604   0.428  24.696  0.00  0.00    -0.048 C 
ATOM     20  C   UNL     1      -0.899   0.008  24.769  0.00  0.00    +0.026 C 
ATOM     21  C   UNL     1      -2.327   0.035  24.754  0.00  0.00    -0.034 C 
ATOM     22  C   UNL     1      -3.033   0.456  24.681  0.00  0.00    +0.037 C 
ENDROOT
BRANCH   4   2
ATOM      1  C   UNL     1      -4.156   1.886  25.152  0.00  0.00    +0.000 C 
ATOM      2  C   UNL     1      -3.721   1.691  24.478  0.00  0.00    +0.000 C 
ATOM      3  C   UNL     1      -3.991   1.918  23.733  0.00  0.00    +0.000 C 
ENDBRANCH   4   2
BRANCH   6   7
ATOM      7  C   UNL     1      -0.865   1.637  24.507  0.00  0.00    +0.091 C 
BRANCH   7   8
ATOM      8  C   UNL     1      -0.768   2.374  24.861  0.00  0.00    +0.227 A 
ATOM      9  N   UNL     1      -0.338   2.530  25.549  0.00  0.00    -0.111 NA
ATOM     10  N   UNL     1      -0.388   3.339  25.703  0.00  0.00    -0.107 NA
ATOM     11  C   UNL     1      -0.848   3.684  25.111  0.00  0.00    +0.250 A 
ATOM     12  O   UNL     1      -1.082   3.087  24.591  0.00  0.00    -0.420 OA
BRANCH  11  13
ATOM     13  C   UNL     1      -1.039   4.483  25.049  0.00  0.00    +0.055 A 
ATOM     14  C   UNL     1      -1.743   4.765  25.373  0.00  0.00    +0.005 A 
ATOM     15  C   UNL     1      -1.936   5.565  25.312  0.00  0.00    +0.000 A 
ATOM     16  C   UNL     1      -1.423   6.084  24.925  0.00  0.00    +0.000 A 
ATOM     17  C   UNL     1      -0.719   5.803  24.601  0.00  0.00    +0.000 A 
ATOM     18  C   UNL     1      -0.527   5.002  24.663  0.00  0.00    +0.005 A 
ENDBRANCH  11  13
ENDBRANCH   7   8
ENDBRANCH   6   7
BRANCH  22  23
ATOM     23  C   UNL     1      -3.755   0.063  24.739  0.00  0.00    +0.076 C 
BRANCH  23  24
ATOM     24  N   UNL     1      -3.791  -0.754  24.623  0.00  0.00    -0.272 NA
ATOM     25  C   UNL     1      -3.640  -1.267  25.252  0.00  0.00    +0.073 C 
ATOM     26  C   UNL     1      -3.675  -2.083  25.136  0.00  0.00    +0.027 C 
ATOM     27  C   UNL     1      -3.862  -2.386  24.391  0.00  0.00    +0.083 C 
ATOM     28  C   UNL     1      -4.013  -1.873  23.763  0.00  0.00    +0.027 C 
ATOM     29  C   UNL     1      -3.978  -1.057  23.879  0.00  0.00    +0.073 C 
BRANCH  27  30
ATOM     30  C   UNL     1      -3.898  -3.201  24.275  0.00  0.00    +0.260 C 
ATOM     31  N   UNL     1      -3.437  -3.705  24.738  0.00  0.00    -0.088 NA
ATOM     32  O   UNL     1      -4.395  -3.515  23.696  0.00  0.00    -0.272 OA
ENDBRANCH  27  30
ENDBRANCH  23  24
ENDBRANCH  22  23
TORSDOF 7
ENDMDL
MODEL 8
REMARK VINA RESULT:     -10.8      2.490      4.872
REMARK  Name = 
REMARK  7 active torsions:
REMARK  status: ('A' for Active; 'I' for Inactive)
REMARK    1  A    between atoms: C_2  and  C_4
REMARK    2  A    between atoms: C_6  and  C_7
REMARK    3  A    between atoms: C_7  and  C_8
REMARK    4  A    between atoms: C_11  and  C_13
REMARK    5  A    between atoms: C_22  and  C_23
REMARK    6  A    between atoms: C_23  and  N_24
REMARK    7  A    between atoms: C_27  and  C_30
REMARK                            x       y       z     vdW  Elec       q    Type
REMARK                         _______ _______ _______ _____ _____    ______ ____
ROOT
ATOM      4  C   UNL     1      -3.120  -0.207  24.623  0.00  0.00    +0.006 C 
ATOM      5  C   UNL     1      -2.344  -0.387  24.838  0.00  0.00    +0.005 C 
ATOM      6  C   UNL     1      -1.835   0.214  25.088  0.00  0.00    +0.027 C 
ATOM     19  C   UNL     1      -2.103   0.993  25.122  0.00  0.00    -0.048 C 
ATOM     20  C   UNL     1      -1.595   1.593  25.371  0.00  0.00    +0.026 C 
ATOM     21  C   UNL     1      -2.879   1.172  24.906  0.00  0.00    -0.034 C 
ATOM     22  C   UNL     1      -3.387   0.573  24.657  0.00  0.00    +0.037 C 
ENDROOT
BRANCH   4   2
ATOM      1  C   UNL     1      -3.980  -1.306  24.930  0.00  0.00    +0.000 C 
ATOM      2  C   UNL     1      -3.628  -0.807  24.374  0.00  0.00    +0.000 C 
ATOM      3  C   UNL     1      -3.783  -0.909  23.571  0.00  0.00    +0.000 C 
ENDBRANCH   4   2
BRANCH   6   7
ATOM      7  C   UNL     1      -1.060   0.033  25.302  0.00  0.00    +0.091 C 
BRANCH   7   8
ATOM      8  C   UNL     1      -0.549  -0.311  24.755  0.00  0.00    +0.227 A 
ATOM      9  N   UNL     1      -0.427  -1.121  24.648  0.00  0.00    -0.111 NA
ATOM     10  N   UNL     1       0.127  -1.218  24.044  0.00  0.00    -0.107 NA
ATOM     11  C   UNL     1       0.347  -0.469  23.778  0.00  0.00    +0.250 A 
ATOM     12  O   UNL     1      -0.071   0.091  24.217  0.00  0.00    -0.420 OA
BRANCH  11  13
ATOM     13  C   UNL     1       0.890  -0.307  23.178  0.00  0.00    +0.055 A 
ATOM     14  C   UNL     1       1.615   0.042  23.361  0.00  0.00    +0.005 A 
ATOM     15  C   UNL     1       2.158   0.204  22.762  0.00  0.00    +0.000 A 
ATOM     16  C   UNL     1       1.976   0.016  21.979  0.00  0.00    +0.000 A 
ATOM     17  C   UNL     1       1.251  -0.333  21.795  0.00  0.00    +0.000 A 
ATOM     18  C   UNL     1       0.708  -0.494  22.396  0.00  0.00    +0.005 A 
ENDBRANCH  11  13
ENDBRANCH   7   8
ENDBRANCH   6   7
BRANCH  22  23
ATOM     23  C   UNL     1      -4.163   0.752  24.442  0.00  0.00    +0.076 C 
BRANCH  23  24
ATOM     24  N   UNL     1      -4.511   1.455  24.701  0.00  0.00    -0.272 NA
ATOM     25  C   UNL     1      -4.422   2.146  24.259  0.00  0.00    +0.073 C 
ATOM     26  C   UNL     1      -4.770   2.848  24.518  0.00  0.00    +0.027 C 
ATOM     27  C   UNL     1      -5.206   2.859  25.218  0.00  0.00    +0.083 C 
ATOM     28  C   UNL     1      -5.294   2.168  25.660  0.00  0.00    +0.027 C 
ATOM     29  C   UNL     1      -4.947   1.466  25.401  0.00  0.00    +0.073 C 
BRANCH  27  30
ATOM     30  C   UNL     1      -5.554   3.560  25.477  0.00  0.00    +0.260 C 
ATOM     31  N   UNL     1      -5.148   4.275  25.399  0.00  0.00    -0.088 NA
ATOM     32  O   UNL     1      -6.307   3.549  25.813  0.00  0.00    -0.272 OA
ENDBRANCH  27  30
ENDBRANCH  23  24
ENDBRANCH  22  23
TORSDOF 7
ENDMDL
