REMARK  Name = 
REMARK  4 active torsions:
REMARK  status: ('A' for Active; 'I' for Inactive)
REMARK    1  A    between atoms: C_1  and  N_2
REMARK    2  A    between atoms: C_1  and  C_18
REMARK    3  A    between atoms: C_5  and  C_7
REMARK    4  A    between atoms: C_10  and  C_12
REMARK                            x       y       z     vdW  Elec       q    Type
REMARK                         _______ _______ _______ _____ _____    ______ ____
ROOT
ATOM      2  N   UNL     1       4.067   3.173   0.000  0.00  0.00    -0.268 NA
ATOM      3  C   UNL     1       3.399   3.658   0.000  0.00  0.00    +0.073 C 
ATOM      4  C   UNL     1       3.654   4.442   0.000  0.00  0.00    +0.028 C 
ATOM      5  C   UNL     1       4.479   4.442   0.000  0.00  0.00    +0.096 C 
ATOM      6  C   UNL     1       4.734   3.658   0.000  0.00  0.00    +0.082 C 
ENDROOT
BRANCH   5   7
ATOM      7  C   UNL     1       4.964   5.110   0.000  0.00  0.00    +0.227 A 
ATOM      8  N   UNL     1       4.709   5.894   0.000  0.00  0.00    -0.111 NA
ATOM      9  N   UNL     1       5.377   6.380   0.000  0.00  0.00    -0.107 NA
ATOM     10  C   UNL     1       6.044   5.894   0.000  0.00  0.00    +0.250 A 
ATOM     11  O   UNL     1       5.789   5.110   0.000  0.00  0.00    -0.419 OA
BRANCH  10  12
ATOM     12  C   UNL     1       6.829   6.149   0.000  0.00  0.00    +0.058 A 
ATOM     13  C   UNL     1       7.000   6.957   0.000  0.00  0.00    +0.025 A 
ATOM     14  C   UNL     1       7.785   7.211   0.000  0.00  0.00    +0.099 A 
ATOM     15  N   UNL     1       8.398   6.659   0.000  0.00  0.00    -0.242 NA
ATOM     16  C   UNL     1       8.226   5.852   0.000  0.00  0.00    +0.099 A 
ATOM     17  C   UNL     1       7.442   5.598   0.000  0.00  0.00    +0.025 A 
ENDBRANCH  10  12
ENDBRANCH   5   7
BRANCH   2   1
ATOM      1  C   UNL     1       4.067   2.348   0.000  0.00  0.00    +0.099 C 
BRANCH   1  18
ATOM     18  C   UNL     1       3.352   1.935   0.000  0.00  0.00    -0.003 A 
ATOM     19  C   UNL     1       3.352   1.110   0.000  0.00  0.00    +0.000 A 
ATOM     20  C   UNL     1       2.638   0.698   0.000  0.00  0.00    +0.040 A 
ATOM     21  C   UNL     1       1.923   1.110   0.000  0.00  0.00    +0.176 A 
ATOM     22  O   UNL     1       1.139   0.856   0.000  0.00  0.00    -0.435 OA
ATOM     23  C   UNL     1       0.654   1.523   0.000  0.00  0.00    +0.429 C 
ATOM     24  O   UNL     1       1.139   2.190   0.000  0.00  0.00    -0.435 OA
ATOM     25  C   UNL     1       1.923   1.935   0.000  0.00  0.00    +0.176 A 
ATOM     26  C   UNL     1       2.638   2.348   0.000  0.00  0.00    +0.037 A 
ENDBRANCH   1  18
ENDBRANCH   2   1
TORSDOF 4
