MODEL 1
REMARK VINA RESULT:      -9.3      0.000      0.000
REMARK  Name = 
REMARK  8 active torsions:
REMARK  status: ('A' for Active; 'I' for Inactive)
REMARK    1  A    between atoms: O_2  and  C_3
REMARK    2  A    between atoms: C_6  and  C_9
REMARK    3  A    between atoms: C_12  and  C_13
REMARK    4  A    between atoms: C_13  and  C_14
REMARK    5  A    between atoms: C_16  and  C_17
REMARK    6  A    between atoms: C_20  and  C_21
REMARK    7  A    between atoms: C_21  and  N_22
REMARK    8  A    between atoms: N_25  and  C_26
REMARK                            x       y       z     vdW  Elec       q    Type
REMARK                         _______ _______ _______ _____ _____    ______ ____
ROOT
ATOM     14  C   UNL     1      -1.336  -0.223  24.656  0.00  0.00    +0.027 C 
ATOM     15  C   UNL     1      -1.191   0.588  24.686  0.00  0.00    +0.005 C 
ATOM     16  C   UNL     1      -0.495   0.896  24.367  0.00  0.00    +0.006 C 
ATOM     20  C   UNL     1       0.056   0.391  24.018  0.00  0.00    +0.043 C 
ATOM     29  C   UNL     1      -0.089  -0.422  23.988  0.00  0.00    -0.033 C 
ATOM     30  C   UNL     1      -0.785  -0.728  24.307  0.00  0.00    -0.048 C 
ATOM     31  C   UNL     1      -0.930  -1.539  24.277  0.00  0.00    +0.026 C 
ENDROOT
BRANCH  16  17
ATOM     17  C   UNL     1      -0.349   1.707  24.396  0.00  0.00    +0.000 C 
ATOM     18  C   UNL     1      -0.561   2.188  23.761  0.00  0.00    +0.000 C 
ATOM     19  C   UNL     1       0.008   2.038  25.063  0.00  0.00    +0.000 C 
ENDBRANCH  16  17
BRANCH  14  13
ATOM     13  C   UNL     1      -2.032  -0.529  24.975  0.00  0.00    +0.091 C 
BRANCH  13  12
ATOM      9  C   UNL     1      -3.828   0.589  24.692  0.00  0.00    +0.250 A 
ATOM     10  N   UNL     1      -3.940  -0.028  24.157  0.00  0.00    -0.107 NA
ATOM     11  N   UNL     1      -3.281  -0.523  24.197  0.00  0.00    -0.111 NA
ATOM     12  C   UNL     1      -2.762  -0.211  24.758  0.00  0.00    +0.227 A 
ATOM     32  O   UNL     1      -3.101   0.477  25.064  0.00  0.00    -0.420 OA
BRANCH   9   6
ATOM      3  C   UNL     1      -5.403   2.452  25.110  0.00  0.00    +0.139 A 
ATOM      4  C   UNL     1      -4.782   2.550  24.577  0.00  0.00    +0.037 A 
ATOM      5  C   UNL     1      -4.257   1.929  24.438  0.00  0.00    +0.008 A 
ATOM      6  C   UNL     1      -4.354   1.211  24.831  0.00  0.00    +0.055 A 
ATOM      7  C   UNL     1      -4.975   1.113  25.364  0.00  0.00    +0.008 A 
ATOM      8  C   UNL     1      -5.501   1.733  25.504  0.00  0.00    +0.037 A 
BRANCH   3   2
ATOM      1  C   UNL     1      -5.665   3.762  25.618  0.00  0.00    +0.252 C 
ATOM      2  O   UNL     1      -5.929   3.073  25.250  0.00  0.00    -0.471 OA
ENDBRANCH   3   2
ENDBRANCH   9   6
ENDBRANCH  13  12
ENDBRANCH  14  13
BRANCH  20  21
ATOM     21  C   UNL     1       0.753   0.697  23.698  0.00  0.00    +0.121 C 
BRANCH  21  22
ATOM     22  N   UNL     1       1.264   0.206  23.277  0.00  0.00    -0.187 NA
ATOM     23  C   UNL     1       2.039   0.447  23.130  0.00  0.00    +0.339 C 
ATOM     24  O   UNL     1       2.302   1.178  23.404  0.00  0.00    -0.249 OA
ATOM     25  N   UNL     1       2.551  -0.045  22.709  0.00  0.00    -0.189 NA
BRANCH  25  26
ATOM     26  C   UNL     1       3.326   0.196  22.562  0.00  0.00    +0.097 C 
ATOM     27  C   UNL     1       3.932  -0.027  23.077  0.00  0.00    +0.023 C 
ATOM     28  C   UNL     1       3.496   0.660  21.902  0.00  0.00    +0.023 C 
ENDBRANCH  25  26
ENDBRANCH  21  22
ENDBRANCH  20  21
TORSDOF 8
ENDMDL
MODEL 2
REMARK VINA RESULT:      -8.6      1.357      6.374
REMARK  Name = 
REMARK  8 active torsions:
REMARK  status: ('A' for Active; 'I' for Inactive)
REMARK    1  A    between atoms: O_2  and  C_3
REMARK    2  A    between atoms: C_6  and  C_9
REMARK    3  A    between atoms: C_12  and  C_13
REMARK    4  A    between atoms: C_13  and  C_14
REMARK    5  A    between atoms: C_16  and  C_17
REMARK    6  A    between atoms: C_20  and  C_21
REMARK    7  A    between atoms: C_21  and  N_22
REMARK    8  A    between atoms: N_25  and  C_26
REMARK                            x       y       z     vdW  Elec       q    Type
REMARK                         _______ _______ _______ _____ _____    ______ ____
ROOT
ATOM     14  C   UNL     1      -0.655   0.276  24.301  0.00  0.00    +0.027 C 
ATOM     15  C   UNL     1      -0.341   1.020  24.463  0.00  0.00    +0.005 C 
ATOM     16  C   UNL     1      -0.839   1.640  24.683  0.00  0.00    +0.006 C 
ATOM     20  C   UNL     1      -1.652   1.515  24.741  0.00  0.00    +0.043 C 
ATOM     29  C   UNL     1      -1.967   0.769  24.580  0.00  0.00    -0.033 C 
ATOM     30  C   UNL     1      -1.469   0.150  24.360  0.00  0.00    -0.048 C 
ATOM     31  C   UNL     1      -1.784  -0.595  24.198  0.00  0.00    +0.026 C 
ENDROOT
BRANCH  16  17
ATOM     17  C   UNL     1      -0.524   2.386  24.845  0.00  0.00    +0.000 C 
ATOM     18  C   UNL     1      -0.488   2.957  24.251  0.00  0.00    +0.000 C 
ATOM     19  C   UNL     1      -0.246   2.560  25.602  0.00  0.00    +0.000 C 
ENDBRANCH  16  17
BRANCH  14  13
ATOM     13  C   UNL     1      -0.158  -0.344  24.081  0.00  0.00    +0.091 C 
BRANCH  13  12
ATOM      9  C   UNL     1       1.679   0.010  23.051  0.00  0.00    +0.250 A 
ATOM     10  N   UNL     1       1.146  -0.012  22.422  0.00  0.00    -0.107 NA
ATOM     11  N   UNL     1       0.392  -0.147  22.731  0.00  0.00    -0.111 NA
ATOM     12  C   UNL     1       0.460  -0.209  23.551  0.00  0.00    +0.227 A 
ATOM     32  O   UNL     1       1.256  -0.112  23.749  0.00  0.00    -0.420 OA
BRANCH   9   6
ATOM      3  C   UNL     1       4.120   0.375  22.875  0.00  0.00    +0.139 A 
ATOM      4  C   UNL     1       3.600   1.004  22.758  0.00  0.00    +0.037 A 
ATOM      5  C   UNL     1       2.786   0.882  22.817  0.00  0.00    +0.008 A 
ATOM      6  C   UNL     1       2.493   0.132  22.992  0.00  0.00    +0.055 A 
ATOM      7  C   UNL     1       3.013  -0.498  23.109  0.00  0.00    +0.008 A 
ATOM      8  C   UNL     1       3.827  -0.377  23.050  0.00  0.00    +0.037 A 
BRANCH   3   2
ATOM      1  C   UNL     1       5.426   0.308  23.451  0.00  0.00    +0.252 C 
ATOM      2  O   UNL     1       4.934   0.496  22.816  0.00  0.00    -0.471 OA
ENDBRANCH   3   2
ENDBRANCH   9   6
ENDBRANCH  13  12
ENDBRANCH  14  13
BRANCH  20  21
ATOM     21  C   UNL     1      -2.151   2.135  24.962  0.00  0.00    +0.121 C 
BRANCH  21  22
ATOM     22  N   UNL     1      -2.949   2.115  24.754  0.00  0.00    -0.187 NA
ATOM     23  C   UNL     1      -3.485   2.613  25.134  0.00  0.00    +0.339 C 
ATOM     24  O   UNL     1      -3.224   3.130  25.720  0.00  0.00    -0.249 OA
ATOM     25  N   UNL     1      -4.284   2.593  24.926  0.00  0.00    -0.189 NA
BRANCH  25  26
ATOM     26  C   UNL     1      -4.821   3.092  25.306  0.00  0.00    +0.097 C 
ATOM     27  C   UNL     1      -5.366   2.779  25.842  0.00  0.00    +0.023 C 
ATOM     28  C   UNL     1      -4.813   3.901  25.151  0.00  0.00    +0.023 C 
ENDBRANCH  25  26
ENDBRANCH  21  22
ENDBRANCH  20  21
TORSDOF 8
ENDMDL
MODEL 3
REMARK VINA RESULT:      -8.5      1.620      2.476
REMARK  Name = 
REMARK  8 active torsions:
REMARK  status: ('A' for Active; 'I' for Inactive)
REMARK    1  A    between atoms: O_2  and  C_3
REMARK    2  A    between atoms: C_6  and  C_9
REMARK    3  A    between atoms: C_12  and  C_13
REMARK    4  A    between atoms: C_13  and  C_14
REMARK    5  A    between atoms: C_16  and  C_17
REMARK    6  A    between atoms: C_20  and  C_21
REMARK    7  A    between atoms: C_21  and  N_22
REMARK    8  A    between atoms: N_25  and  C_26
REMARK                            x       y       z     vdW  Elec       q    Type
REMARK                         _______ _______ _______ _____ _____    ______ ____
ROOT
ATOM     14  C   UNL     1      -1.009   2.732  25.227  0.00  0.00    +0.027 C 
ATOM     15  C   UNL     1      -1.257   1.948  25.279  0.00  0.00    +0.005 C 
ATOM     16  C   UNL     1      -0.828   1.353  24.900  0.00  0.00    +0.006 C 
ATOM     20  C   UNL     1      -0.152   1.544  24.468  0.00  0.00    +0.043 C 
ATOM     29  C   UNL     1       0.096   2.330  24.416  0.00  0.00    -0.033 C 
ATOM     30  C   UNL     1      -0.333   2.924  24.796  0.00  0.00    -0.048 C 
ATOM     31  C   UNL     1      -0.084   3.708  24.743  0.00  0.00    +0.026 C 
ENDROOT
BRANCH  16  17
ATOM     17  C   UNL     1      -1.076   0.568  24.952  0.00  0.00    +0.000 C 
ATOM     18  C   UNL     1      -0.862   0.109  25.603  0.00  0.00    +0.000 C 
ATOM     19  C   UNL     1      -1.537   0.241  24.351  0.00  0.00    +0.000 C 
ENDBRANCH  16  17
BRANCH  14  13
ATOM     13  C   UNL     1      -1.437   3.326  25.607  0.00  0.00    +0.091 C 
BRANCH  13  12
ATOM      9  C   UNL     1      -3.540   3.302  25.241  0.00  0.00    +0.250 A 
ATOM     10  N   UNL     1      -3.335   4.040  24.936  0.00  0.00    -0.107 NA
ATOM     11  N   UNL     1      -2.521   4.140  25.036  0.00  0.00    -0.111 NA
ATOM     12  C   UNL     1      -2.225   3.462  25.403  0.00  0.00    +0.227 A 
ATOM     32  O   UNL     1      -2.855   2.944  25.529  0.00  0.00    -0.420 OA
BRANCH   9   6
ATOM      3  C   UNL     1      -5.816   2.330  25.284  0.00  0.00    +0.139 A 
ATOM      4  C   UNL     1      -5.274   2.085  24.713  0.00  0.00    +0.037 A 
ATOM      5  C   UNL     1      -4.515   2.409  24.699  0.00  0.00    +0.008 A 
ATOM      6  C   UNL     1      -4.299   2.978  25.255  0.00  0.00    +0.055 A 
ATOM      7  C   UNL     1      -4.841   3.223  25.827  0.00  0.00    +0.008 A 
ATOM      8  C   UNL     1      -5.600   2.899  25.841  0.00  0.00    +0.037 A 
BRANCH   3   2
ATOM      1  C   UNL     1      -6.875   1.628  24.631  0.00  0.00    +0.252 C 
ATOM      2  O   UNL     1      -6.575   2.006  25.299  0.00  0.00    -0.471 OA
ENDBRANCH   3   2
ENDBRANCH   9   6
ENDBRANCH  13  12
ENDBRANCH  14  13
BRANCH  20  21
ATOM     21  C   UNL     1       0.277   0.950  24.088  0.00  0.00    +0.121 C 
BRANCH  21  22
ATOM     22  N   UNL     1       1.003   1.126  23.739  0.00  0.00    -0.187 NA
ATOM     23  C   UNL     1       1.405   0.546  23.312  0.00  0.00    +0.339 C 
ATOM     24  O   UNL     1       1.082  -0.208  23.234  0.00  0.00    -0.249 OA
ATOM     25  N   UNL     1       2.132   0.721  22.962  0.00  0.00    -0.189 NA
BRANCH  25  26
ATOM     26  C   UNL     1       2.534   0.141  22.534  0.00  0.00    +0.097 C 
ATOM     27  C   UNL     1       2.219  -0.141  21.826  0.00  0.00    +0.023 C 
ATOM     28  C   UNL     1       3.250  -0.156  22.815  0.00  0.00    +0.023 C 
ENDBRANCH  25  26
ENDBRANCH  21  22
ENDBRANCH  20  21
TORSDOF 8
ENDMDL
MODEL 4
REMARK VINA RESULT:      -8.2      3.210      5.209
REMARK  Name = 
REMARK  8 active torsions:
REMARK  status: ('A' for Active; 'I' for Inactive)
REMARK    1  A    between atoms: O_2  and  C_3
REMARK    2  A    between atoms: C_6  and  C_9
REMARK    3  A    between atoms: C_12  and  C_13
REMARK    4  A    between atoms: C_13  and  C_14
REMARK    5  A    between atoms: C_16  and  C_17
REMARK    6  A    between atoms: C_20  and  C_21
REMARK    7  A    between atoms: C_21  and  N_22
REMARK    8  A    between atoms: N_25  and  C_26
REMARK                            x       y       z     vdW  Elec       q    Type
REMARK                         _______ _______ _______ _____ _____    ______ ____
ROOT
ATOM     14  C   UNL     1      -4.614   2.110  24.961  0.00  0.00    +0.027 C 
ATOM     15  C   UNL     1      -3.990   2.027  24.429  0.00  0.00    +0.005 C 
ATOM     16  C   UNL     1      -3.798   1.283  24.129  0.00  0.00    +0.006 C 
ATOM     20  C   UNL     1      -4.232   0.621  24.362  0.00  0.00    +0.043 C 
ATOM     29  C   UNL     1      -4.857   0.703  24.895  0.00  0.00    -0.033 C 
ATOM     30  C   UNL     1      -5.047   1.448  25.195  0.00  0.00    -0.048 C 
ATOM     31  C   UNL     1      -5.672   1.530  25.727  0.00  0.00    +0.026 C 
ENDROOT
BRANCH  16  17
ATOM     17  C   UNL     1      -3.174   1.200  23.596  0.00  0.00    +0.000 C 
ATOM     18  C   UNL     1      -3.294   1.342  22.793  0.00  0.00    +0.000 C 
ATOM     19  C   UNL     1      -2.428   0.974  23.867  0.00  0.00    +0.000 C 
ENDBRANCH  16  17
BRANCH  14  13
ATOM     13  C   UNL     1      -4.805   2.854  25.261  0.00  0.00    +0.091 C 
BRANCH  13  12
ATOM      9  C   UNL     1      -3.094   4.081  25.615  0.00  0.00    +0.250 A 
ATOM     10  N   UNL     1      -3.493   4.154  26.333  0.00  0.00    -0.107 NA
ATOM     11  N   UNL     1      -4.183   3.703  26.289  0.00  0.00    -0.111 NA
ATOM     12  C   UNL     1      -4.210   3.352  25.542  0.00  0.00    +0.227 A 
ATOM     32  O   UNL     1      -3.536   3.585  25.126  0.00  0.00    -0.420 OA
BRANCH   9   6
ATOM      3  C   UNL     1      -0.945   5.160  25.030  0.00  0.00    +0.139 A 
ATOM      4  C   UNL     1      -0.960   4.365  25.249  0.00  0.00    +0.037 A 
ATOM      5  C   UNL     1      -1.677   4.005  25.444  0.00  0.00    +0.008 A 
ATOM      6  C   UNL     1      -2.377   4.441  25.420  0.00  0.00    +0.055 A 
ATOM      7  C   UNL     1      -2.362   5.236  25.201  0.00  0.00    +0.008 A 
ATOM      8  C   UNL     1      -1.646   5.596  25.006  0.00  0.00    +0.037 A 
BRANCH   3   2
ATOM      1  C   UNL     1       0.221   5.231  24.207  0.00  0.00    +0.252 C 
ATOM      2  O   UNL     1      -0.229   5.521  24.835  0.00  0.00    -0.471 OA
ENDBRANCH   3   2
ENDBRANCH   9   6
ENDBRANCH  13  12
ENDBRANCH  14  13
BRANCH  20  21
ATOM     21  C   UNL     1      -4.041  -0.124  24.062  0.00  0.00    +0.121 C 
BRANCH  21  22
ATOM     22  N   UNL     1      -4.080  -0.787  24.551  0.00  0.00    -0.187 NA
ATOM     23  C   UNL     1      -3.902  -1.533  24.248  0.00  0.00    +0.339 C 
ATOM     24  O   UNL     1      -3.685  -1.616  23.457  0.00  0.00    -0.249 OA
ATOM     25  N   UNL     1      -3.941  -2.197  24.737  0.00  0.00    -0.189 NA
BRANCH  25  26
ATOM     26  C   UNL     1      -3.763  -2.943  24.434  0.00  0.00    +0.097 C 
ATOM     27  C   UNL     1      -3.050  -3.310  24.633  0.00  0.00    +0.023 C 
ATOM     28  C   UNL     1      -4.295  -3.323  23.933  0.00  0.00    +0.023 C 
ENDBRANCH  25  26
ENDBRANCH  21  22
ENDBRANCH  20  21
TORSDOF 8
ENDMDL
MODEL 5
REMARK VINA RESULT:      -7.6      3.005      5.030
REMARK  Name = 
REMARK  8 active torsions:
REMARK  status: ('A' for Active; 'I' for Inactive)
REMARK    1  A    between atoms: O_2  and  C_3
REMARK    2  A    between atoms: C_6  and  C_9
REMARK    3  A    between atoms: C_12  and  C_13
REMARK    4  A    between atoms: C_13  and  C_14
REMARK    5  A    between atoms: C_16  and  C_17
REMARK    6  A    between atoms: C_20  and  C_21
REMARK    7  A    between atoms: C_21  and  N_22
REMARK    8  A    between atoms: N_25  and  C_26
REMARK                            x       y       z     vdW  Elec       q    Type
REMARK                         _______ _______ _______ _____ _____    ______ ____
ROOT
ATOM     14  C   UNL     1      -4.360   0.987  24.404  0.00  0.00    +0.027 C 
ATOM     15  C   UNL     1      -3.852   1.096  23.764  0.00  0.00    +0.005 C 
ATOM     16  C   UNL     1      -3.454   1.812  23.669  0.00  0.00    +0.006 C 
ATOM     20  C   UNL     1      -3.565   2.421  24.215  0.00  0.00    +0.043 C 
ATOM     29  C   UNL     1      -4.074   2.312  24.857  0.00  0.00    -0.033 C 
ATOM     30  C   UNL     1      -4.471   1.595  24.951  0.00  0.00    -0.048 C 
ATOM     31  C   UNL     1      -4.979   1.488  25.591  0.00  0.00    +0.026 C 
ENDROOT
BRANCH  16  17
ATOM     17  C   UNL     1      -2.946   1.921  23.029  0.00  0.00    +0.000 C 
ATOM     18  C   UNL     1      -2.155   1.694  23.085  0.00  0.00    +0.000 C 
ATOM     19  C   UNL     1      -3.228   2.259  22.331  0.00  0.00    +0.000 C 
ENDBRANCH  16  17
BRANCH  14  13
ATOM     13  C   UNL     1      -4.757   0.271  24.499  0.00  0.00    +0.091 C 
BRANCH  13  12
ATOM      9  C   UNL     1      -3.386  -1.365  24.518  0.00  0.00    +0.250 A 
ATOM     10  N   UNL     1      -4.039  -1.709  24.149  0.00  0.00    -0.107 NA
ATOM     11  N   UNL     1      -4.633  -1.138  24.096  0.00  0.00    -0.111 NA
ATOM     12  C   UNL     1      -4.346  -0.442  24.434  0.00  0.00    +0.227 A 
ATOM     32  O   UNL     1      -3.576  -0.582  24.695  0.00  0.00    -0.420 OA
BRANCH   9   6
ATOM      3  C   UNL     1      -1.237  -2.488  25.012  0.00  0.00    +0.139 A 
ATOM      4  C   UNL     1      -1.800  -2.865  24.542  0.00  0.00    +0.037 A 
ATOM      5  C   UNL     1      -2.517  -2.490  24.378  0.00  0.00    +0.008 A 
ATOM      6  C   UNL     1      -2.670  -1.740  24.683  0.00  0.00    +0.055 A 
ATOM      7  C   UNL     1      -2.106  -1.363  25.153  0.00  0.00    +0.008 A 
ATOM      8  C   UNL     1      -1.390  -1.737  25.318  0.00  0.00    +0.037 A 
BRANCH   3   2
ATOM      1  C   UNL     1       0.134  -2.416  25.411  0.00  0.00    +0.252 C 
ATOM      2  O   UNL     1      -0.520  -2.862  25.177  0.00  0.00    -0.471 OA
ENDBRANCH   3   2
ENDBRANCH   9   6
ENDBRANCH  13  12
ENDBRANCH  14  13
BRANCH  20  21
ATOM     21  C   UNL     1      -3.167   3.138  24.121  0.00  0.00    +0.121 C 
BRANCH  21  22
ATOM     22  N   UNL     1      -2.733   3.453  24.747  0.00  0.00    -0.187 NA
ATOM     23  C   UNL     1      -2.364   4.186  24.663  0.00  0.00    +0.339 C 
ATOM     24  O   UNL     1      -2.429   4.603  23.955  0.00  0.00    -0.249 OA
ATOM     25  N   UNL     1      -1.929   4.502  25.290  0.00  0.00    -0.189 NA
BRANCH  25  26
ATOM     26  C   UNL     1      -1.560   5.235  25.206  0.00  0.00    +0.097 C 
ATOM     27  C   UNL     1      -0.761   5.273  25.001  0.00  0.00    +0.023 C 
ATOM     28  C   UNL     1      -1.988   5.929  25.327  0.00  0.00    +0.023 C 
ENDBRANCH  25  26
ENDBRANCH  21  22
ENDBRANCH  20  21
TORSDOF 8
ENDMDL
MODEL 6
REMARK VINA RESULT:      -7.3      2.271      5.457
REMARK  Name = 
REMARK  8 active torsions:
REMARK  status: ('A' for Active; 'I' for Inactive)
REMARK    1  A    between atoms: O_2  and  C_3
REMARK    2  A    between atoms: C_6  and  C_9
REMARK    3  A    between atoms: C_12  and  C_13
REMARK    4  A    between atoms: C_13  and  C_14
REMARK    5  A    between atoms: C_16  and  C_17
REMARK    6  A    between atoms: C_20  and  C_21
REMARK    7  A    between atoms: C_21  and  N_22
REMARK    8  A    between atoms: N_25  and  C_26
REMARK                            x       y       z     vdW  Elec       q    Type
REMARK                         _______ _______ _______ _____ _____    ______ ____
ROOT
ATOM     14  C   UNL     1      -1.105   1.603  24.499  0.00  0.00    +0.027 C 
ATOM     15  C   UNL     1      -1.534   1.591  23.795  0.00  0.00    +0.005 C 
ATOM     16  C   UNL     1      -2.187   2.087  23.701  0.00  0.00    +0.006 C 
ATOM     20  C   UNL     1      -2.411   2.594  24.312  0.00  0.00    +0.043 C 
ATOM     29  C   UNL     1      -1.981   2.607  25.017  0.00  0.00    -0.033 C 
ATOM     30  C   UNL     1      -1.329   2.111  25.110  0.00  0.00    -0.048 C 
ATOM     31  C   UNL     1      -0.900   2.123  25.814  0.00  0.00    +0.026 C 
ENDROOT
BRANCH  16  17
ATOM     17  C   UNL     1      -2.617   2.075  22.997  0.00  0.00    +0.000 C 
ATOM     18  C   UNL     1      -3.238   1.542  22.901  0.00  0.00    +0.000 C 
ATOM     19  C   UNL     1      -2.425   2.598  22.388  0.00  0.00    +0.000 C 
ENDBRANCH  16  17
BRANCH  14  13
ATOM     13  C   UNL     1      -0.453   1.108  24.593  0.00  0.00    +0.091 C 
BRANCH  13  12
ATOM      9  C   UNL     1      -1.110  -0.923  24.615  0.00  0.00    +0.250 A 
ATOM     10  N   UNL     1      -0.296  -1.020  24.519  0.00  0.00    -0.107 NA
ATOM     11  N   UNL     1       0.050  -0.271  24.500  0.00  0.00    -0.111 NA
ATOM     12  C   UNL     1      -0.551   0.289  24.583  0.00  0.00    +0.227 A 
ATOM     32  O   UNL     1      -1.268  -0.114  24.654  0.00  0.00    -0.420 OA
BRANCH   9   6
ATOM      3  C   UNL     1      -2.783  -2.741  24.757  0.00  0.00    +0.139 A 
ATOM      4  C   UNL     1      -2.892  -2.046  25.188  0.00  0.00    +0.037 A 
ATOM      5  C   UNL     1      -2.333  -1.440  25.140  0.00  0.00    +0.008 A 
ATOM      6  C   UNL     1      -1.668  -1.529  24.662  0.00  0.00    +0.055 A 
ATOM      7  C   UNL     1      -1.559  -2.224  24.231  0.00  0.00    +0.008 A 
ATOM      8  C   UNL     1      -2.117  -2.830  24.278  0.00  0.00    +0.037 A 
BRANCH   3   2
ATOM      1  C   UNL     1      -4.015  -3.325  24.330  0.00  0.00    +0.252 C 
ATOM      2  O   UNL     1      -3.341  -3.347  24.804  0.00  0.00    -0.471 OA
ENDBRANCH   3   2
ENDBRANCH   9   6
ENDBRANCH  13  12
ENDBRANCH  14  13
BRANCH  20  21
ATOM     21  C   UNL     1      -3.064   3.091  24.218  0.00  0.00    +0.121 C 
BRANCH  21  22
ATOM     22  N   UNL     1      -3.421   3.431  24.879  0.00  0.00    -0.187 NA
ATOM     23  C   UNL     1      -4.242   3.500  24.914  0.00  0.00    +0.339 C 
ATOM     24  O   UNL     1      -4.706   3.230  24.288  0.00  0.00    -0.249 OA
ATOM     25  N   UNL     1      -4.600   3.841  25.575  0.00  0.00    -0.189 NA
BRANCH  25  26
ATOM     26  C   UNL     1      -5.421   3.910  25.610  0.00  0.00    +0.097 C 
ATOM     27  C   UNL     1      -5.886   3.242  25.745  0.00  0.00    +0.023 C 
ATOM     28  C   UNL     1      -5.777   4.647  25.509  0.00  0.00    +0.023 C 
ENDBRANCH  25  26
ENDBRANCH  21  22
ENDBRANCH  20  21
TORSDOF 8
ENDMDL
