MODEL 1
REMARK VINA RESULT:     -10.6      0.000      0.000
REMARK  Name = 
REMARK  8 active torsions:
REMARK  status: ('A' for Active; 'I' for Inactive)
REMARK    1  A    between atoms: O_2  and  C_3
REMARK    2  A    between atoms: C_8  and  N_9
REMARK    3  A    between atoms: N_12  and  C_15
REMARK    4  A    between atoms: C_18  and  C_19
REMARK    5  A    between atoms: C_22  and  C_23
REMARK    6  A    between atoms: C_23  and  N_24
REMARK    7  A    between atoms: N_24  and  S_25
REMARK    8  A    between atoms: S_25  and  C_28
REMARK                            x       y       z     vdW  Elec       q    Type
REMARK                         _______ _______ _______ _____ _____    ______ ____
ROOT
ATOM     15  C   UNL     1      -4.607   2.263  25.050  0.00  0.00    +0.120 C 
ATOM     16  C   UNL     1      -5.356   2.590  25.155  0.00  0.00    +0.198 C 
ATOM     17  O   UNL     1      -5.527   3.392  25.245  0.00  0.00    -0.219 OA
ATOM     18  C   UNL     1      -5.905   1.975  25.155  0.00  0.00    +0.180 C 
ATOM     21  O   UNL     1      -5.495   1.267  25.049  0.00  0.00    -0.350 OA
ATOM     22  C   UNL     1      -4.692   1.444  24.984  0.00  0.00    +0.152 C 
ENDROOT
BRANCH  15  12
ATOM      9  N   UNL     1      -2.474   3.514  24.947  0.00  0.00    -0.302 N 
ATOM     10  C   UNL     1      -2.899   3.366  24.256  0.00  0.00    +0.108 C 
ATOM     11  C   UNL     1      -3.609   2.949  24.290  0.00  0.00    +0.094 C 
ATOM     12  N   UNL     1      -3.896   2.680  25.015  0.00  0.00    -0.267 NA
ATOM     13  C   UNL     1      -3.470   2.828  25.706  0.00  0.00    +0.094 C 
ATOM     14  C   UNL     1      -2.760   3.245  25.672  0.00  0.00    +0.108 C 
BRANCH   9   8
ATOM      3  C   UNL     1      -1.060   3.534  24.747  0.00  0.00    +0.152 A 
ATOM      4  C   UNL     1      -0.348   3.952  24.713  0.00  0.00    +0.038 A 
ATOM      5  C   UNL     1      -0.341   4.766  24.845  0.00  0.00    +0.003 A 
ATOM      6  C   UNL     1      -1.044   5.163  25.011  0.00  0.00    +0.001 A 
ATOM      7  C   UNL     1      -1.756   4.745  25.045  0.00  0.00    +0.018 A 
ATOM      8  C   UNL     1      -1.763   3.931  24.913  0.00  0.00    +0.082 A 
BRANCH   3   2
ATOM      1  C   UNL     1      -0.362   2.321  24.456  0.00  0.00    +0.253 C 
ATOM      2  O   UNL     1      -1.066   2.720  24.615  0.00  0.00    -0.470 OA
ENDBRANCH   3   2
ENDBRANCH   9   8
ENDBRANCH  15  12
BRANCH  18  19
ATOM     19  C   UNL     1      -6.722   2.053  25.244  0.00  0.00    +0.214 C 
ATOM     20  O   UNL     1      -7.234   1.632  24.753  0.00  0.00    -0.218 OA
ENDBRANCH  18  19
BRANCH  22  23
ATOM     23  C   UNL     1      -4.083   0.901  24.874  0.00  0.00    +0.146 C 
BRANCH  23  24
ATOM     24  N   UNL     1      -4.252   0.095  24.827  0.00  0.00    -0.075 NA
BRANCH  24  25
ATOM     25  S   UNL     1      -3.638  -0.455  24.782  0.00  0.00    +0.077 S 
ATOM     26  O   UNL     1      -3.679  -0.568  25.599  0.00  0.00    -0.152 OA
ATOM     27  O   UNL     1      -3.597  -0.342  23.966  0.00  0.00    -0.152 OA
BRANCH  25  28
ATOM     28  C   UNL     1      -3.024  -1.003  24.737  0.00  0.00    +0.124 A 
ATOM     29  C   UNL     1      -3.189  -1.794  24.566  0.00  0.00    +0.021 A 
ATOM     30  C   UNL     1      -2.575  -2.343  24.522  0.00  0.00    +0.013 A 
ATOM     31  C   UNL     1      -1.796  -2.103  24.648  0.00  0.00    +0.058 A 
ATOM     32 CL   UNL     1      -1.182  -2.651  24.603  0.00  0.00    -0.082 Cl
ATOM     33  C   UNL     1      -1.631  -1.313  24.819  0.00  0.00    +0.013 A 
ATOM     34  C   UNL     1      -2.245  -0.763  24.864  0.00  0.00    +0.021 A 
ENDBRANCH  25  28
ENDBRANCH  24  25
ENDBRANCH  23  24
ENDBRANCH  22  23
TORSDOF 8
ENDMDL
MODEL 2
REMARK VINA RESULT:      -9.8      1.510      3.823
REMARK  Name = 
REMARK  8 active torsions:
REMARK  status: ('A' for Active; 'I' for Inactive)
REMARK    1  A    between atoms: O_2  and  C_3
REMARK    2  A    between atoms: C_8  and  N_9
REMARK    3  A    between atoms: N_12  and  C_15
REMARK    4  A    between atoms: C_18  and  C_19
REMARK    5  A    between atoms: C_22  and  C_23
REMARK    6  A    between atoms: C_23  and  N_24
REMARK    7  A    between atoms: N_24  and  S_25
REMARK    8  A    between atoms: S_25  and  C_28
REMARK                            x       y       z     vdW  Elec       q    Type
REMARK                         _______ _______ _______ _____ _____    ______ ____
ROOT
ATOM     15  C   UNL     1      -1.097   1.981  24.575  0.00  0.00    +0.120 C 
ATOM     16  C   UNL     1      -0.426   2.419  24.377  0.00  0.00    +0.198 C 
ATOM     17  O   UNL     1      -0.390   3.239  24.292  0.00  0.00    -0.219 OA
ATOM     18  C   UNL     1       0.202   1.893  24.280  0.00  0.00    +0.180 C 
ATOM     21  O   UNL     1      -0.081   1.130  24.418  0.00  0.00    -0.350 OA
ATOM     22  C   UNL     1      -0.883   1.184  24.600  0.00  0.00    +0.152 C 
ENDROOT
BRANCH  15  12
ATOM      9  N   UNL     1      -3.354   2.897  25.015  0.00  0.00    -0.302 N 
ATOM     10  C   UNL     1      -2.824   2.788  25.637  0.00  0.00    +0.108 C 
ATOM     11  C   UNL     1      -2.072   2.483  25.491  0.00  0.00    +0.094 C 
ATOM     12  N   UNL     1      -1.849   2.287  24.721  0.00  0.00    -0.267 NA
ATOM     13  C   UNL     1      -2.379   2.395  24.099  0.00  0.00    +0.094 C 
ATOM     14  C   UNL     1      -3.131   2.700  24.246  0.00  0.00    +0.108 C 
BRANCH   9   8
ATOM      3  C   UNL     1      -4.744   2.691  25.269  0.00  0.00    +0.152 A 
ATOM      4  C   UNL     1      -5.497   2.997  25.416  0.00  0.00    +0.038 A 
ATOM      5  C   UNL     1      -5.611   3.812  25.455  0.00  0.00    +0.003 A 
ATOM      6  C   UNL     1      -4.973   4.323  25.348  0.00  0.00    +0.001 A 
ATOM      7  C   UNL     1      -4.219   4.018  25.201  0.00  0.00    +0.018 A 
ATOM      8  C   UNL     1      -4.106   3.202  25.162  0.00  0.00    +0.082 A 
BRANCH   3   2
ATOM      1  C   UNL     1      -5.274   1.364  25.307  0.00  0.00    +0.253 C 
ATOM      2  O   UNL     1      -4.631   1.875  25.230  0.00  0.00    -0.470 OA
ENDBRANCH   3   2
ENDBRANCH   9   8
ENDBRANCH  15  12
BRANCH  18  19
ATOM     19  C   UNL     1       0.977   2.094  24.081  0.00  0.00    +0.214 C 
ATOM     20  O   UNL     1       1.502   1.512  23.825  0.00  0.00    -0.218 OA
ENDBRANCH  18  19
BRANCH  22  23
ATOM     23  C   UNL     1      -1.384   0.554  24.776  0.00  0.00    +0.146 C 
BRANCH  23  24
ATOM     24  N   UNL     1      -1.103  -0.220  24.735  0.00  0.00    -0.075 NA
BRANCH  24  25
ATOM     25  S   UNL     1      -1.631  -0.854  24.759  0.00  0.00    +0.077 S 
ATOM     26  O   UNL     1      -1.696  -0.830  23.936  0.00  0.00    -0.152 OA
ATOM     27  O   UNL     1      -1.566  -0.877  25.581  0.00  0.00    -0.152 OA
BRANCH  25  28
ATOM     28  C   UNL     1      -2.159  -1.487  24.782  0.00  0.00    +0.124 A 
ATOM     29  C   UNL     1      -2.921  -1.378  25.081  0.00  0.00    +0.021 A 
ATOM     30  C   UNL     1      -3.449  -2.011  25.104  0.00  0.00    +0.013 A 
ATOM     31  C   UNL     1      -3.217  -2.753  24.829  0.00  0.00    +0.058 A 
ATOM     32 CL   UNL     1      -3.745  -3.386  24.853  0.00  0.00    -0.082 Cl
ATOM     33  C   UNL     1      -2.456  -2.862  24.531  0.00  0.00    +0.013 A 
ATOM     34  C   UNL     1      -1.927  -2.229  24.507  0.00  0.00    +0.021 A 
ENDBRANCH  25  28
ENDBRANCH  24  25
ENDBRANCH  23  24
ENDBRANCH  22  23
TORSDOF 8
ENDMDL
MODEL 3
REMARK VINA RESULT:      -9.5      1.513      2.056
REMARK  Name = 
REMARK  8 active torsions:
REMARK  status: ('A' for Active; 'I' for Inactive)
REMARK    1  A    between atoms: O_2  and  C_3
REMARK    2  A    between atoms: C_8  and  N_9
REMARK    3  A    between atoms: N_12  and  C_15
REMARK    4  A    between atoms: C_18  and  C_19
REMARK    5  A    between atoms: C_22  and  C_23
REMARK    6  A    between atoms: C_23  and  N_24
REMARK    7  A    between atoms: N_24  and  S_25
REMARK    8  A    between atoms: S_25  and  C_28
REMARK                            x       y       z     vdW  Elec       q    Type
REMARK                         _______ _______ _______ _____ _____    ______ ____
ROOT
ATOM     15  C   UNL     1      -3.586   2.418  24.889  0.00  0.00    +0.120 C 
ATOM     16  C   UNL     1      -3.925   3.119  25.159  0.00  0.00    +0.198 C 
ATOM     17  O   UNL     1      -3.524   3.824  25.315  0.00  0.00    -0.219 OA
ATOM     18  C   UNL     1      -4.735   2.993  25.246  0.00  0.00    +0.180 C 
ATOM     21  O   UNL     1      -4.897   2.214  25.030  0.00  0.00    -0.350 OA
ATOM     22  C   UNL     1      -4.187   1.858  24.810  0.00  0.00    +0.152 C 
ENDROOT
BRANCH  15  12
ATOM      9  N   UNL     1      -1.186   2.055  24.403  0.00  0.00    -0.302 N 
ATOM     10  C   UNL     1      -1.461   2.012  25.179  0.00  0.00    +0.108 C 
ATOM     11  C   UNL     1      -2.260   2.133  25.341  0.00  0.00    +0.094 C 
ATOM     12  N   UNL     1      -2.786   2.297  24.727  0.00  0.00    -0.267 NA
ATOM     13  C   UNL     1      -2.511   2.340  23.951  0.00  0.00    +0.094 C 
ATOM     14  C   UNL     1      -1.712   2.219  23.789  0.00  0.00    +0.108 C 
BRANCH   9   8
ATOM      3  C   UNL     1      -0.105   1.172  24.101  0.00  0.00    +0.152 A 
ATOM      4  C   UNL     1       0.696   1.050  23.939  0.00  0.00    +0.038 A 
ATOM      5  C   UNL     1       1.213   1.692  23.916  0.00  0.00    +0.003 A 
ATOM      6  C   UNL     1       0.932   2.454  24.056  0.00  0.00    +0.001 A 
ATOM      7  C   UNL     1       0.131   2.575  24.218  0.00  0.00    +0.018 A 
ATOM      8  C   UNL     1      -0.386   1.934  24.241  0.00  0.00    +0.082 A 
BRANCH   3   2
ATOM      1  C   UNL     1      -0.334  -0.238  24.028  0.00  0.00    +0.253 C 
ATOM      2  O   UNL     1      -0.623   0.529  24.124  0.00  0.00    -0.470 OA
ENDBRANCH   3   2
ENDBRANCH   9   8
ENDBRANCH  15  12
BRANCH  18  19
ATOM     19  C   UNL     1      -5.288   3.550  25.505  0.00  0.00    +0.214 C 
ATOM     20  O   UNL     1      -5.930   3.312  25.964  0.00  0.00    -0.218 OA
ENDBRANCH  18  19
BRANCH  22  23
ATOM     23  C   UNL     1      -4.093   1.080  24.554  0.00  0.00    +0.146 C 
BRANCH  23  24
ATOM     24  N   UNL     1      -4.552   0.479  24.886  0.00  0.00    -0.075 NA
BRANCH  24  25
ATOM     25  S   UNL     1      -4.331  -0.310  24.787  0.00  0.00    +0.077 S 
ATOM     26  O   UNL     1      -4.250  -0.389  25.605  0.00  0.00    -0.152 OA
ATOM     27  O   UNL     1      -4.413  -0.231  23.970  0.00  0.00    -0.152 OA
BRANCH  25  28
ATOM     28  C   UNL     1      -4.111  -1.099  24.690  0.00  0.00    +0.124 A 
ATOM     29  C   UNL     1      -3.631  -1.466  25.251  0.00  0.00    +0.021 A 
ATOM     30  C   UNL     1      -3.411  -2.255  25.153  0.00  0.00    +0.013 A 
ATOM     31  C   UNL     1      -3.670  -2.677  24.494  0.00  0.00    +0.058 A 
ATOM     32 CL   UNL     1      -3.450  -3.466  24.396  0.00  0.00    -0.082 Cl
ATOM     33  C   UNL     1      -4.151  -2.311  23.933  0.00  0.00    +0.013 A 
ATOM     34  C   UNL     1      -4.371  -1.521  24.030  0.00  0.00    +0.021 A 
ENDBRANCH  25  28
ENDBRANCH  24  25
ENDBRANCH  23  24
ENDBRANCH  22  23
TORSDOF 8
ENDMDL
MODEL 4
REMARK VINA RESULT:      -9.4      1.901      4.982
REMARK  Name = 
REMARK  8 active torsions:
REMARK  status: ('A' for Active; 'I' for Inactive)
REMARK    1  A    between atoms: O_2  and  C_3
REMARK    2  A    between atoms: C_8  and  N_9
REMARK    3  A    between atoms: N_12  and  C_15
REMARK    4  A    between atoms: C_18  and  C_19
REMARK    5  A    between atoms: C_22  and  C_23
REMARK    6  A    between atoms: C_23  and  N_24
REMARK    7  A    between atoms: N_24  and  S_25
REMARK    8  A    between atoms: S_25  and  C_28
REMARK                            x       y       z     vdW  Elec       q    Type
REMARK                         _______ _______ _______ _____ _____    ______ ____
ROOT
ATOM     15  C   UNL     1      -1.116   2.507  24.745  0.00  0.00    +0.120 C 
ATOM     16  C   UNL     1      -0.452   2.996  24.758  0.00  0.00    +0.198 C 
ATOM     17  O   UNL     1       0.334   2.745  24.789  0.00  0.00    -0.219 OA
ATOM     18  C   UNL     1      -0.710   3.778  24.735  0.00  0.00    +0.180 C 
ATOM     21  O   UNL     1      -1.535   3.774  24.708  0.00  0.00    -0.350 OA
ATOM     22  C   UNL     1      -1.786   2.988  24.713  0.00  0.00    +0.152 C 
ENDROOT
BRANCH  15  12
ATOM      9  N   UNL     1      -1.104   0.033  24.790  0.00  0.00    -0.302 N 
ATOM     10  C   UNL     1      -1.087   0.433  24.069  0.00  0.00    +0.108 C 
ATOM     11  C   UNL     1      -1.091   1.256  24.054  0.00  0.00    +0.094 C 
ATOM     12  N   UNL     1      -1.112   1.682  24.760  0.00  0.00    -0.267 NA
ATOM     13  C   UNL     1      -1.129   1.282  25.481  0.00  0.00    +0.094 C 
ATOM     14  C   UNL     1      -1.125   0.459  25.496  0.00  0.00    +0.108 C 
BRANCH   9   8
ATOM      3  C   UNL     1      -1.807  -1.209  24.730  0.00  0.00    +0.152 A 
ATOM      4  C   UNL     1      -1.803  -2.035  24.745  0.00  0.00    +0.038 A 
ATOM      5  C   UNL     1      -1.092  -2.442  24.835  0.00  0.00    +0.003 A 
ATOM      6  C   UNL     1      -0.385  -2.025  24.910  0.00  0.00    +0.001 A 
ATOM      7  C   UNL     1      -0.389  -1.199  24.895  0.00  0.00    +0.018 A 
ATOM      8  C   UNL     1      -1.100  -0.792  24.805  0.00  0.00    +0.082 A 
BRANCH   3   2
ATOM      1  C   UNL     1      -3.230  -1.218  24.586  0.00  0.00    +0.253 C 
ATOM      2  O   UNL     1      -2.519  -0.802  24.640  0.00  0.00    -0.470 OA
ENDBRANCH   3   2
ENDBRANCH   9   8
ENDBRANCH  15  12
BRANCH  18  19
ATOM     19  C   UNL     1      -0.229   4.449  24.739  0.00  0.00    +0.214 C 
ATOM     20  O   UNL     1      -0.566   5.199  24.798  0.00  0.00    -0.218 OA
ENDBRANCH  18  19
BRANCH  22  23
ATOM     23  C   UNL     1      -2.568   2.729  24.692  0.00  0.00    +0.146 C 
BRANCH  23  24
ATOM     24  N   UNL     1      -3.184   3.266  24.811  0.00  0.00    -0.075 NA
BRANCH  24  25
ATOM     25  S   UNL     1      -3.949   2.991  24.951  0.00  0.00    +0.077 S 
ATOM     26  O   UNL     1      -4.040   2.832  24.146  0.00  0.00    -0.152 OA
ATOM     27  O   UNL     1      -3.859   3.149  25.756  0.00  0.00    -0.152 OA
BRANCH  25  28
ATOM     28  C   UNL     1      -4.714   2.716  25.090  0.00  0.00    +0.124 A 
ATOM     29  C   UNL     1      -5.239   3.167  25.541  0.00  0.00    +0.021 A 
ATOM     30  C   UNL     1      -6.004   2.893  25.681  0.00  0.00    +0.013 A 
ATOM     31  C   UNL     1      -6.245   2.167  25.370  0.00  0.00    +0.058 A 
ATOM     32 CL   UNL     1      -7.010   1.893  25.510  0.00  0.00    -0.082 Cl
ATOM     33  C   UNL     1      -5.722   1.717  24.920  0.00  0.00    +0.013 A 
ATOM     34  C   UNL     1      -4.956   1.991  24.780  0.00  0.00    +0.021 A 
ENDBRANCH  25  28
ENDBRANCH  24  25
ENDBRANCH  23  24
ENDBRANCH  22  23
TORSDOF 8
ENDMDL
MODEL 5
REMARK VINA RESULT:      -9.4      2.558      6.123
REMARK  Name = 
REMARK  8 active torsions:
REMARK  status: ('A' for Active; 'I' for Inactive)
REMARK    1  A    between atoms: O_2  and  C_3
REMARK    2  A    between atoms: C_8  and  N_9
REMARK    3  A    between atoms: N_12  and  C_15
REMARK    4  A    between atoms: C_18  and  C_19
REMARK    5  A    between atoms: C_22  and  C_23
REMARK    6  A    between atoms: C_23  and  N_24
REMARK    7  A    between atoms: N_24  and  S_25
REMARK    8  A    between atoms: S_25  and  C_28
REMARK                            x       y       z     vdW  Elec       q    Type
REMARK                         _______ _______ _______ _____ _____    ______ ____
ROOT
ATOM     15  C   UNL     1       0.285   0.317  23.828  0.00  0.00    +0.120 C 
ATOM     16  C   UNL     1       0.945   0.038  23.419  0.00  0.00    +0.198 C 
ATOM     17  O   UNL     1       1.058  -0.734  23.150  0.00  0.00    -0.219 OA
ATOM     18  C   UNL     1       1.470   0.666  23.325  0.00  0.00    +0.180 C 
ATOM     21  O   UNL     1       1.136   1.333  23.676  0.00  0.00    -0.350 OA
ATOM     22  C   UNL     1       0.404   1.118  23.987  0.00  0.00    +0.152 C 
ENDROOT
BRANCH  15  12
ATOM      9  N   UNL     1      -1.701  -1.014  24.467  0.00  0.00    -0.302 N 
ATOM     10  C   UNL     1      -1.057  -0.963  24.979  0.00  0.00    +0.108 C 
ATOM     11  C   UNL     1      -0.395  -0.519  24.766  0.00  0.00    +0.094 C 
ATOM     12  N   UNL     1      -0.377  -0.127  24.041  0.00  0.00    -0.267 NA
ATOM     13  C   UNL     1      -1.022  -0.178  23.529  0.00  0.00    +0.094 C 
ATOM     14  C   UNL     1      -1.683  -0.621  23.742  0.00  0.00    +0.108 C 
BRANCH   9   8
ATOM      3  C   UNL     1      -3.030  -1.082  24.987  0.00  0.00    +0.152 A 
ATOM      4  C   UNL     1      -3.693  -1.526  25.200  0.00  0.00    +0.038 A 
ATOM      5  C   UNL     1      -3.688  -2.345  25.106  0.00  0.00    +0.003 A 
ATOM      6  C   UNL     1      -3.022  -2.721  24.799  0.00  0.00    +0.001 A 
ATOM      7  C   UNL     1      -2.359  -2.277  24.586  0.00  0.00    +0.018 A 
ATOM      8  C   UNL     1      -2.364  -1.458  24.680  0.00  0.00    +0.082 A 
BRANCH   3   2
ATOM      1  C   UNL     1      -3.726   0.122  25.320  0.00  0.00    +0.253 C 
ATOM      2  O   UNL     1      -3.035  -0.262  25.081  0.00  0.00    -0.470 OA
ENDBRANCH   3   2
ENDBRANCH   9   8
ENDBRANCH  15  12
BRANCH  18  19
ATOM     19  C   UNL     1       2.203   0.633  22.946  0.00  0.00    +0.214 C 
ATOM     20  O   UNL     1       2.799   1.166  23.150  0.00  0.00    -0.218 OA
ENDBRANCH  18  19
BRANCH  22  23
ATOM     23  C   UNL     1      -0.119   1.615  24.387  0.00  0.00    +0.146 C 
BRANCH  23  24
ATOM     24  N   UNL     1       0.057   2.417  24.468  0.00  0.00    -0.075 NA
BRANCH  24  25
ATOM     25  S   UNL     1      -0.509   2.934  24.774  0.00  0.00    +0.077 S 
ATOM     26  O   UNL     1      -0.790   3.078  24.011  0.00  0.00    -0.152 OA
ATOM     27  O   UNL     1      -0.229   2.791  25.537  0.00  0.00    -0.152 OA
BRANCH  25  28
ATOM     28  C   UNL     1      -1.075   3.451  25.079  0.00  0.00    +0.124 A 
ATOM     29  C   UNL     1      -0.992   4.265  24.969  0.00  0.00    +0.021 A 
ATOM     30  C   UNL     1      -1.558   4.782  25.274  0.00  0.00    +0.013 A 
ATOM     31  C   UNL     1      -2.207   4.486  25.689  0.00  0.00    +0.058 A 
ATOM     32 CL   UNL     1      -2.773   5.003  25.994  0.00  0.00    -0.082 Cl
ATOM     33  C   UNL     1      -2.290   3.673  25.798  0.00  0.00    +0.013 A 
ATOM     34  C   UNL     1      -1.724   3.155  25.493  0.00  0.00    +0.021 A 
ENDBRANCH  25  28
ENDBRANCH  24  25
ENDBRANCH  23  24
ENDBRANCH  22  23
TORSDOF 8
ENDMDL
MODEL 6
REMARK VINA RESULT:      -9.3      1.597      4.387
REMARK  Name = 
REMARK  8 active torsions:
REMARK  status: ('A' for Active; 'I' for Inactive)
REMARK    1  A    between atoms: O_2  and  C_3
REMARK    2  A    between atoms: C_8  and  N_9
REMARK    3  A    between atoms: N_12  and  C_15
REMARK    4  A    between atoms: C_18  and  C_19
REMARK    5  A    between atoms: C_22  and  C_23
REMARK    6  A    between atoms: C_23  and  N_24
REMARK    7  A    between atoms: N_24  and  S_25
REMARK    8  A    between atoms: S_25  and  C_28
REMARK                            x       y       z     vdW  Elec       q    Type
REMARK                         _______ _______ _______ _____ _____    ______ ____
ROOT
ATOM     15  C   UNL     1      -4.702   1.793  24.976  0.00  0.00    +0.120 C 
ATOM     16  C   UNL     1      -5.475   2.060  25.084  0.00  0.00    +0.198 C 
ATOM     17  O   UNL     1      -6.156   1.593  25.071  0.00  0.00    -0.219 OA
ATOM     18  C   UNL     1      -5.449   2.874  25.207  0.00  0.00    +0.180 C 
ATOM     21  O   UNL     1      -4.659   3.112  25.175  0.00  0.00    -0.350 OA
ATOM     22  C   UNL     1      -4.198   2.444  25.033  0.00  0.00    +0.152 C 
ENDROOT
BRANCH  15  12
ATOM      9  N   UNL     1      -4.015  -0.548  24.557  0.00  0.00    -0.302 N 
ATOM     10  C   UNL     1      -4.048  -0.009  23.933  0.00  0.00    +0.108 C 
ATOM     11  C   UNL     1      -4.276   0.770  24.073  0.00  0.00    +0.094 C 
ATOM     12  N   UNL     1      -4.473   1.013  24.836  0.00  0.00    -0.267 NA
ATOM     13  C   UNL     1      -4.441   0.474  25.460  0.00  0.00    +0.094 C 
ATOM     14  C   UNL     1      -4.213  -0.306  25.320  0.00  0.00    +0.108 C 
BRANCH   9   8
ATOM      3  C   UNL     1      -3.016  -1.567  24.584  0.00  0.00    +0.152 A 
ATOM      4  C   UNL     1      -2.786  -2.348  24.444  0.00  0.00    +0.038 A 
ATOM      5  C   UNL     1      -3.329  -2.888  24.138  0.00  0.00    +0.003 A 
ATOM      6  C   UNL     1      -4.100  -2.649  23.971  0.00  0.00    +0.001 A 
ATOM      7  C   UNL     1      -4.329  -1.868  24.111  0.00  0.00    +0.018 A 
ATOM      8  C   UNL     1      -3.787  -1.328  24.417  0.00  0.00    +0.082 A 
BRANCH   3   2
ATOM      1  C   UNL     1      -1.692  -1.257  25.027  0.00  0.00    +0.253 C 
ATOM      2  O   UNL     1      -2.472  -1.027  24.891  0.00  0.00    -0.470 OA
ENDBRANCH   3   2
ENDBRANCH   9   8
ENDBRANCH  15  12
BRANCH  18  19
ATOM     19  C   UNL     1      -6.098   3.367  25.339  0.00  0.00    +0.214 C 
ATOM     20  O   UNL     1      -5.997   4.093  25.717  0.00  0.00    -0.218 OA
ENDBRANCH  18  19
BRANCH  22  23
ATOM     23  C   UNL     1      -3.377   2.428  24.959  0.00  0.00    +0.146 C 
BRANCH  23  24
ATOM     24  N   UNL     1      -2.934   3.100  25.141  0.00  0.00    -0.075 NA
BRANCH  24  25
ATOM     25  S   UNL     1      -2.142   3.025  25.362  0.00  0.00    +0.077 S 
ATOM     26  O   UNL     1      -2.333   3.265  26.128  0.00  0.00    -0.152 OA
ATOM     27  O   UNL     1      -1.951   2.786  24.595  0.00  0.00    -0.152 OA
BRANCH  25  28
ATOM     28  C   UNL     1      -1.351   2.951  25.583  0.00  0.00    +0.124 A 
ATOM     29  C   UNL     1      -1.093   2.268  25.968  0.00  0.00    +0.021 A 
ATOM     30  C   UNL     1      -0.302   2.193  26.189  0.00  0.00    +0.013 A 
ATOM     31  C   UNL     1       0.232   2.801  26.025  0.00  0.00    +0.058 A 
ATOM     32 CL   UNL     1       1.023   2.726  26.246  0.00  0.00    -0.082 Cl
ATOM     33  C   UNL     1      -0.026   3.483  25.640  0.00  0.00    +0.013 A 
ATOM     34  C   UNL     1      -0.817   3.558  25.419  0.00  0.00    +0.021 A 
ENDBRANCH  25  28
ENDBRANCH  24  25
ENDBRANCH  23  24
ENDBRANCH  22  23
TORSDOF 8
ENDMDL
MODEL 7
REMARK VINA RESULT:      -9.1      2.023      4.143
REMARK  Name = 
REMARK  8 active torsions:
REMARK  status: ('A' for Active; 'I' for Inactive)
REMARK    1  A    between atoms: O_2  and  C_3
REMARK    2  A    between atoms: C_8  and  N_9
REMARK    3  A    between atoms: N_12  and  C_15
REMARK    4  A    between atoms: C_18  and  C_19
REMARK    5  A    between atoms: C_22  and  C_23
REMARK    6  A    between atoms: C_23  and  N_24
REMARK    7  A    between atoms: N_24  and  S_25
REMARK    8  A    between atoms: S_25  and  C_28
REMARK                            x       y       z     vdW  Elec       q    Type
REMARK                         _______ _______ _______ _____ _____    ______ ____
ROOT
ATOM     15  C   UNL     1       0.218   1.114  24.035  0.00  0.00    +0.120 C 
ATOM     16  C   UNL     1       0.970   1.272  23.735  0.00  0.00    +0.198 C 
ATOM     17  O   UNL     1       1.323   2.016  23.678  0.00  0.00    -0.219 OA
ATOM     18  C   UNL     1       1.306   0.556  23.502  0.00  0.00    +0.180 C 
ATOM     21  O   UNL     1       0.763  -0.044  23.658  0.00  0.00    -0.350 OA
ATOM     22  C   UNL     1       0.090   0.300  23.988  0.00  0.00    +0.152 C 
ENDROOT
BRANCH  15  12
ATOM      9  N   UNL     1      -1.374   2.788  24.924  0.00  0.00    -0.302 N 
ATOM     10  C   UNL     1      -1.362   2.617  24.117  0.00  0.00    +0.108 C 
ATOM     11  C   UNL     1      -0.832   2.060  23.821  0.00  0.00    +0.094 C 
ATOM     12  N   UNL     1      -0.313   1.672  24.332  0.00  0.00    -0.267 NA
ATOM     13  C   UNL     1      -0.325   1.843  25.139  0.00  0.00    +0.094 C 
ATOM     14  C   UNL     1      -0.855   2.400  25.434  0.00  0.00    +0.108 C 
BRANCH   9   8
ATOM      3  C   UNL     1      -2.699   3.146  25.320  0.00  0.00    +0.152 A 
ATOM      4  C   UNL     1      -3.231   3.705  25.616  0.00  0.00    +0.038 A 
ATOM      5  C   UNL     1      -2.967   4.461  25.813  0.00  0.00    +0.003 A 
ATOM      6  C   UNL     1      -2.173   4.660  25.714  0.00  0.00    +0.001 A 
ATOM      7  C   UNL     1      -1.642   4.101  25.417  0.00  0.00    +0.018 A 
ATOM      8  C   UNL     1      -1.905   3.345  25.220  0.00  0.00    +0.082 A 
BRANCH   3   2
ATOM      1  C   UNL     1      -3.767   2.208  25.167  0.00  0.00    +0.253 C 
ATOM      2  O   UNL     1      -2.963   2.390  25.123  0.00  0.00    -0.470 OA
ENDBRANCH   3   2
ENDBRANCH   9   8
ENDBRANCH  15  12
BRANCH  18  19
ATOM     19  C   UNL     1       2.056   0.458  23.170  0.00  0.00    +0.214 C 
ATOM     20  O   UNL     1       2.164  -0.068  22.543  0.00  0.00    -0.218 OA
ENDBRANCH  18  19
BRANCH  22  23
ATOM     23  C   UNL     1      -0.591  -0.098  24.228  0.00  0.00    +0.146 C 
BRANCH  23  24
ATOM     24  N   UNL     1      -0.572  -0.915  24.341  0.00  0.00    -0.075 NA
BRANCH  24  25
ATOM     25  S   UNL     1      -1.276  -1.334  24.439  0.00  0.00    +0.077 S 
ATOM     26  O   UNL     1      -1.345  -1.410  23.620  0.00  0.00    -0.152 OA
ATOM     27  O   UNL     1      -1.208  -1.259  25.258  0.00  0.00    -0.152 OA
BRANCH  25  28
ATOM     28  C   UNL     1      -1.980  -1.753  24.536  0.00  0.00    +0.124 A 
ATOM     29  C   UNL     1      -2.675  -1.353  24.731  0.00  0.00    +0.021 A 
ATOM     30  C   UNL     1      -3.378  -1.772  24.828  0.00  0.00    +0.013 A 
ATOM     31  C   UNL     1      -3.388  -2.591  24.730  0.00  0.00    +0.058 A 
ATOM     32 CL   UNL     1      -4.092  -3.010  24.828  0.00  0.00    -0.082 Cl
ATOM     33  C   UNL     1      -2.694  -2.992  24.536  0.00  0.00    +0.013 A 
ATOM     34  C   UNL     1      -1.989  -2.572  24.438  0.00  0.00    +0.021 A 
ENDBRANCH  25  28
ENDBRANCH  24  25
ENDBRANCH  23  24
ENDBRANCH  22  23
TORSDOF 8
ENDMDL
MODEL 8
REMARK VINA RESULT:      -8.6     15.997     18.900
REMARK  Name = 
REMARK  8 active torsions:
REMARK  status: ('A' for Active; 'I' for Inactive)
REMARK    1  A    between atoms: O_2  and  C_3
REMARK    2  A    between atoms: C_8  and  N_9
REMARK    3  A    between atoms: N_12  and  C_15
REMARK    4  A    between atoms: C_18  and  C_19
REMARK    5  A    between atoms: C_22  and  C_23
REMARK    6  A    between atoms: C_23  and  N_24
REMARK    7  A    between atoms: N_24  and  S_25
REMARK    8  A    between atoms: S_25  and  C_28
REMARK                            x       y       z     vdW  Elec       q    Type
REMARK                         _______ _______ _______ _____ _____    ______ ____
ROOT
ATOM     15  C   UNL     1      13.527   8.141  18.035  0.00  0.00    +0.120 C 
ATOM     16  C   UNL     1      13.587   8.349  17.239  0.00  0.00    +0.198 C 
ATOM     17  O   UNL     1      14.275   8.329  16.784  0.00  0.00    -0.219 OA
ATOM     18  C   UNL     1      12.839   8.579  16.979  0.00  0.00    +0.180 C 
ATOM     21  O   UNL     1      12.317   8.514  17.614  0.00  0.00    -0.350 OA
ATOM     22  C   UNL     1      12.741   8.244  18.267  0.00  0.00    +0.152 C 
ENDROOT
BRANCH  15  12
ATOM      9  N   UNL     1      15.376   7.351  19.477  0.00  0.00    -0.302 N 
ATOM     10  C   UNL     1      14.888   6.806  19.097  0.00  0.00    +0.108 C 
ATOM     11  C   UNL     1      14.272   7.069  18.617  0.00  0.00    +0.094 C 
ATOM     12  N   UNL     1      14.143   7.878  18.516  0.00  0.00    -0.267 NA
ATOM     13  C   UNL     1      14.632   8.423  18.897  0.00  0.00    +0.094 C 
ATOM     14  C   UNL     1      15.248   8.160  19.377  0.00  0.00    +0.108 C 
BRANCH   9   8
ATOM      3  C   UNL     1      15.896   7.063  20.776  0.00  0.00    +0.152 A 
ATOM      4  C   UNL     1      16.513   6.799  21.258  0.00  0.00    +0.038 A 
ATOM      5  C   UNL     1      17.226   6.561  20.919  0.00  0.00    +0.003 A 
ATOM      6  C   UNL     1      17.323   6.585  20.101  0.00  0.00    +0.001 A 
ATOM      7  C   UNL     1      16.706   6.849  19.620  0.00  0.00    +0.018 A 
ATOM      8  C   UNL     1      15.993   7.088  19.958  0.00  0.00    +0.082 A 
BRANCH   3   2
ATOM      1  C   UNL     1      15.085   7.279  21.934  0.00  0.00    +0.253 C 
ATOM      2  O   UNL     1      15.182   7.302  21.115  0.00  0.00    -0.470 OA
ENDBRANCH   3   2
ENDBRANCH   9   8
ENDBRANCH  15  12
BRANCH  18  19
ATOM     19  C   UNL     1      12.647   8.830  16.216  0.00  0.00    +0.214 C 
ATOM     20  O   UNL     1      11.867   8.787  15.951  0.00  0.00    -0.218 OA
ENDBRANCH  18  19
BRANCH  22  23
ATOM     23  C   UNL     1      12.435   8.101  19.019  0.00  0.00    +0.146 C 
BRANCH  23  24
ATOM     24  N   UNL     1      11.638   8.246  19.174  0.00  0.00    -0.075 NA
BRANCH  24  25
ATOM     25  S   UNL     1      11.364   8.256  19.952  0.00  0.00    +0.077 S 
ATOM     26  O   UNL     1      11.361   7.431  19.962  0.00  0.00    -0.152 OA
ATOM     27  O   UNL     1      11.366   9.081  19.943  0.00  0.00    -0.152 OA
BRANCH  25  28
ATOM     28  C   UNL     1      11.090   8.266  20.730  0.00  0.00    +0.124 A 
ATOM     29  C   UNL     1      10.888   7.559  21.106  0.00  0.00    +0.021 A 
ATOM     30  C   UNL     1      10.614   7.568  21.883  0.00  0.00    +0.013 A 
ATOM     31  C   UNL     1      10.542   8.284  22.287  0.00  0.00    +0.058 A 
ATOM     32 CL   UNL     1      10.269   8.293  23.065  0.00  0.00    -0.082 Cl
ATOM     33  C   UNL     1      10.744   8.991  21.913  0.00  0.00    +0.013 A 
ATOM     34  C   UNL     1      11.018   8.981  21.134  0.00  0.00    +0.021 A 
ENDBRANCH  25  28
ENDBRANCH  24  25
ENDBRANCH  23  24
ENDBRANCH  22  23
TORSDOF 8
ENDMDL
MODEL 9
REMARK VINA RESULT:      -7.7     16.189     18.387
REMARK  Name = 
REMARK  8 active torsions:
REMARK  status: ('A' for Active; 'I' for Inactive)
REMARK    1  A    between atoms: O_2  and  C_3
REMARK    2  A    between atoms: C_8  and  N_9
REMARK    3  A    between atoms: N_12  and  C_15
REMARK    4  A    between atoms: C_18  and  C_19
REMARK    5  A    between atoms: C_22  and  C_23
REMARK    6  A    between atoms: C_23  and  N_24
REMARK    7  A    between atoms: N_24  and  S_25
REMARK    8  A    between atoms: S_25  and  C_28
REMARK                            x       y       z     vdW  Elec       q    Type
REMARK                         _______ _______ _______ _____ _____    ______ ____
ROOT
ATOM     15  C   UNL     1      11.683   7.981  20.327  0.00  0.00    +0.120 C 
ATOM     16  C   UNL     1      11.032   8.044  20.830  0.00  0.00    +0.198 C 
ATOM     17  O   UNL     1      10.278   8.303  20.617  0.00  0.00    -0.219 OA
ATOM     18  C   UNL     1      11.268   7.803  21.582  0.00  0.00    +0.180 C 
ATOM     21  O   UNL     1      12.064   7.591  21.545  0.00  0.00    -0.350 OA
ATOM     22  C   UNL     1      12.321   7.700  20.769  0.00  0.00    +0.152 C 
ENDROOT
BRANCH  15  12
ATOM      9  N   UNL     1      11.717   8.535  17.915  0.00  0.00    -0.302 N 
ATOM     10  C   UNL     1      11.417   7.809  18.168  0.00  0.00    +0.108 C 
ATOM     11  C   UNL     1      11.405   7.625  18.971  0.00  0.00    +0.094 C 
ATOM     12  N   UNL     1      11.694   8.165  19.523  0.00  0.00    -0.267 NA
ATOM     13  C   UNL     1      11.994   8.891  19.270  0.00  0.00    +0.094 C 
ATOM     14  C   UNL     1      12.005   9.075  18.467  0.00  0.00    +0.108 C 
BRANCH   9   8
ATOM      3  C   UNL     1      12.442   8.722  16.699  0.00  0.00    +0.152 A 
ATOM      4  C   UNL     1      12.453   8.907  15.894  0.00  0.00    +0.038 A 
ATOM      5  C   UNL     1      11.750   9.088  15.503  0.00  0.00    +0.003 A 
ATOM      6  C   UNL     1      11.036   9.085  15.915  0.00  0.00    +0.001 A 
ATOM      7  C   UNL     1      11.025   8.901  16.720  0.00  0.00    +0.018 A 
ATOM      8  C   UNL     1      11.728   8.719  17.111  0.00  0.00    +0.082 A 
BRANCH   3   2
ATOM      1  C   UNL     1      13.845   8.450  16.662  0.00  0.00    +0.253 C 
ATOM      2  O   UNL     1      13.145   8.540  17.090  0.00  0.00    -0.470 OA
ENDBRANCH   3   2
ENDBRANCH   9   8
ENDBRANCH  15  12
BRANCH  18  19
ATOM     19  C   UNL     1      10.791   7.779  22.256  0.00  0.00    +0.214 C 
ATOM     20  O   UNL     1      10.949   8.278  22.893  0.00  0.00    -0.218 OA
ENDBRANCH  18  19
BRANCH  22  23
ATOM     23  C   UNL     1      13.081   7.556  20.485  0.00  0.00    +0.146 C 
BRANCH  23  24
ATOM     24  N   UNL     1      13.547   6.971  20.833  0.00  0.00    -0.075 NA
BRANCH  24  25
ATOM     25  S   UNL     1      14.316   6.841  20.564  0.00  0.00    +0.077 S 
ATOM     26  O   UNL     1      14.561   7.541  20.926  0.00  0.00    -0.152 OA
ATOM     27  O   UNL     1      14.072   6.141  20.202  0.00  0.00    -0.152 OA
BRANCH  25  28
ATOM     28  C   UNL     1      15.085   6.712  20.295  0.00  0.00    +0.124 A 
ATOM     29  C   UNL     1      15.235   6.652  19.485  0.00  0.00    +0.021 A 
ATOM     30  C   UNL     1      16.003   6.523  19.216  0.00  0.00    +0.013 A 
ATOM     31  C   UNL     1      16.624   6.453  19.756  0.00  0.00    +0.058 A 
ATOM     32 CL   UNL     1      17.392   6.324  19.487  0.00  0.00    -0.082 Cl
ATOM     33  C   UNL     1      16.474   6.512  20.565  0.00  0.00    +0.013 A 
ATOM     34  C   UNL     1      15.705   6.642  20.835  0.00  0.00    +0.021 A 
ENDBRANCH  25  28
ENDBRANCH  24  25
ENDBRANCH  23  24
ENDBRANCH  22  23
TORSDOF 8
ENDMDL
MODEL 10
REMARK VINA RESULT:      -7.0     16.505     19.302
REMARK  Name = 
REMARK  8 active torsions:
REMARK  status: ('A' for Active; 'I' for Inactive)
REMARK    1  A    between atoms: O_2  and  C_3
REMARK    2  A    between atoms: C_8  and  N_9
REMARK    3  A    between atoms: N_12  and  C_15
REMARK    4  A    between atoms: C_18  and  C_19
REMARK    5  A    between atoms: C_22  and  C_23
REMARK    6  A    between atoms: C_23  and  N_24
REMARK    7  A    between atoms: N_24  and  S_25
REMARK    8  A    between atoms: S_25  and  C_28
REMARK                            x       y       z     vdW  Elec       q    Type
REMARK                         _______ _______ _______ _____ _____    ______ ____
ROOT
ATOM     15  C   UNL     1      14.859   7.683  20.736  0.00  0.00    +0.120 C 
ATOM     16  C   UNL     1      15.476   7.373  21.186  0.00  0.00    +0.198 C 
ATOM     17  O   UNL     1      15.457   7.224  21.998  0.00  0.00    -0.219 OA
ATOM     18  C   UNL     1      16.116   7.239  20.684  0.00  0.00    +0.180 C 
ATOM     21  O   UNL     1      15.894   7.466  19.922  0.00  0.00    -0.350 OA
ATOM     22  C   UNL     1      15.117   7.740  19.954  0.00  0.00    +0.152 C 
ENDROOT
BRANCH  15  12
ATOM      9  N   UNL     1      12.623   8.327  21.580  0.00  0.00    -0.302 N 
ATOM     10  C   UNL     1      12.787   7.537  21.407  0.00  0.00    +0.108 C 
ATOM     11  C   UNL     1      13.532   7.323  21.126  0.00  0.00    +0.094 C 
ATOM     12  N   UNL     1      14.113   7.897  21.017  0.00  0.00    -0.267 NA
ATOM     13  C   UNL     1      13.949   8.687  21.190  0.00  0.00    +0.094 C 
ATOM     14  C   UNL     1      13.205   8.902  21.471  0.00  0.00    +0.108 C 
BRANCH   9   8
ATOM      3  C   UNL     1      11.236   8.573  21.345  0.00  0.00    +0.152 A 
ATOM      4  C   UNL     1      10.490   8.788  21.626  0.00  0.00    +0.038 A 
ATOM      5  C   UNL     1      10.387   8.971  22.423  0.00  0.00    +0.003 A 
ATOM      6  C   UNL     1      11.029   8.940  22.940  0.00  0.00    +0.001 A 
ATOM      7  C   UNL     1      11.775   8.725  22.658  0.00  0.00    +0.018 A 
ATOM      8  C   UNL     1      11.878   8.542  21.861  0.00  0.00    +0.082 A 
BRANCH   3   2
ATOM      1  C   UNL     1      10.713   8.488  20.016  0.00  0.00    +0.253 C 
ATOM      2  O   UNL     1      11.338   8.390  20.546  0.00  0.00    -0.470 OA
ENDBRANCH   3   2
ENDBRANCH   9   8
ENDBRANCH  15  12
BRANCH  18  19
ATOM     19  C   UNL     1      16.850   6.932  20.904  0.00  0.00    +0.214 C 
ATOM     20  O   UNL     1      17.226   6.376  20.424  0.00  0.00    -0.218 OA
ENDBRANCH  18  19
BRANCH  22  23
ATOM     23  C   UNL     1      14.676   8.022  19.317  0.00  0.00    +0.146 C 
BRANCH  23  24
ATOM     24  N   UNL     1      14.947   7.909  18.546  0.00  0.00    -0.075 NA
BRANCH  24  25
ATOM     25  S   UNL     1      14.482   8.146  17.907  0.00  0.00    +0.077 S 
ATOM     26  O   UNL     1      14.241   7.365  17.792  0.00  0.00    -0.152 OA
ATOM     27  O   UNL     1      14.722   8.928  18.022  0.00  0.00    -0.152 OA
BRANCH  25  28
ATOM     28  C   UNL     1      14.017   8.383  17.268  0.00  0.00    +0.124 A 
ATOM     29  C   UNL     1      14.316   8.335  16.500  0.00  0.00    +0.021 A 
ATOM     30  C   UNL     1      13.851   8.572  15.861  0.00  0.00    +0.013 A 
ATOM     31  C   UNL     1      13.087   8.856  15.989  0.00  0.00    +0.058 A 
ATOM     32 CL   UNL     1      12.623   9.093  15.350  0.00  0.00    -0.082 Cl
ATOM     33  C   UNL     1      12.788   8.904  16.756  0.00  0.00    +0.013 A 
ATOM     34  C   UNL     1      13.253   8.667  17.396  0.00  0.00    +0.021 A 
ENDBRANCH  25  28
ENDBRANCH  24  25
ENDBRANCH  23  24
ENDBRANCH  22  23
TORSDOF 8
ENDMDL
