REMARK  Name = 
REMARK  3 active torsions:
REMARK  status: ('A' for Active; 'I' for Inactive)
REMARK    1  A    between atoms: C_2  and  C_17
REMARK    2  A    between atoms: N_10  and  C_11
REMARK    3  A    between atoms: C_11  and  C_12
REMARK                            x       y       z     vdW  Elec       q    Type
REMARK                         _______ _______ _______ _____ _____    ______ ____
ROOT
ATOM      1  O   UNL     1      -0.584  -1.412   0.000  0.00  0.00    -0.266 OA
ATOM      2  C   UNL     1      -0.171  -0.698   0.000  0.00  0.00    +0.287 C 
ATOM      3  N   UNL     1       0.654  -0.698   0.000  0.00  0.00    -0.269 N 
ATOM      4  C   UNL     1       1.139  -0.030   0.000  0.00  0.00    +0.125 C 
ATOM      5  C   UNL     1       1.923  -0.285   0.000  0.00  0.00    +0.155 C 
ATOM      6  O   UNL     1       2.638   0.127   0.000  0.00  0.00    -0.343 OA
ATOM      7  C   UNL     1       3.352  -0.285   0.000  0.00  0.00    +0.227 C 
ATOM      8  C   UNL     1       3.352  -1.110   0.000  0.00  0.00    +0.256 C 
ATOM      9  O   UNL     1       4.067  -1.523   0.000  0.00  0.00    -0.272 OA
ATOM     10  N   UNL     1       2.638  -1.523   0.000  0.00  0.00    -0.275 N 
ATOM     15  C   UNL     1       1.923  -1.110   0.000  0.00  0.00    +0.124 C 
ATOM     16  C   UNL     1       1.139  -1.365   0.000  0.00  0.00    +0.116 C 
ENDROOT
BRANCH   2  17
ATOM     17  C   UNL     1      -0.584   0.017   0.000  0.00  0.00    +0.230 A 
ATOM     18  C   UNL     1      -1.404   0.103   0.000  0.00  0.00    +0.069 A 
ATOM     19  C   UNL     1      -1.576   0.910   0.000  0.00  0.00    +0.144 A 
ATOM     20  N   UNL     1      -0.861   1.322   0.000  0.00  0.00    -0.075 NA
ATOM     21  O   UNL     1      -0.248   0.770   0.000  0.00  0.00    -0.349 OA
ENDBRANCH   2  17
BRANCH  10  11
ATOM     11  C   UNL     1       2.638  -2.348   0.000  0.00  0.00    +0.094 C 
BRANCH  11  12
ATOM     12  C   UNL     1       3.352  -2.760   0.000  0.00  0.00    +0.020 C 
ATOM     13  C   UNL     1       4.177  -2.760   0.000  0.00  0.00    +0.002 C 
ATOM     14  C   UNL     1       3.765  -3.475   0.000  0.00  0.00    +0.002 C 
ENDBRANCH  11  12
ENDBRANCH  10  11
TORSDOF 3
