MODEL 1
REMARK VINA RESULT:     -11.7      0.000      0.000
REMARK  Name = 
REMARK  9 active torsions:
REMARK  status: ('A' for Active; 'I' for Inactive)
REMARK    1  A    between atoms: N_2  and  C_3
REMARK    2  A    between atoms: C_3  and  C_4
REMARK    3  A    between atoms: C_10  and  C_12
REMARK    4  A    between atoms: C_12  and  C_13
REMARK    5  A    between atoms: C_18  and  C_19
REMARK    6  A    between atoms: C_19  and  C_20
REMARK    7  A    between atoms: C_23  and  C_24
REMARK    8  A    between atoms: C_24  and  O_25
REMARK    9  A    between atoms: O_25  and  C_26
REMARK                            x       y       z     vdW  Elec       q    Type
REMARK                         _______ _______ _______ _____ _____    ______ ____
ROOT
ATOM     13  C   UNL     1      -1.316   2.966  25.055  0.00  0.00    +0.012 C 
ATOM     14  C   UNL     1      -1.051   3.571  24.560  0.00  0.00    +0.019 C 
ATOM     15  C   UNL     1      -0.311   3.516  24.200  0.00  0.00    +0.089 C 
ATOM     16  N   UNL     1       0.164   2.854  24.333  0.00  0.00    -0.218 NA
ATOM     17  C   UNL     1      -0.100   2.249  24.826  0.00  0.00    +0.089 C 
ATOM     18  C   UNL     1      -0.840   2.304  25.188  0.00  0.00    +0.024 C 
ENDROOT
BRANCH  13  12
ATOM     12  C   UNL     1      -2.055   3.022  25.416  0.00  0.00    +0.085 C 
BRANCH  12  10
ATOM      1  C   UNL     1      -3.896   4.138  25.058  0.00  0.00    +0.115 C 
ATOM      2  N   UNL     1      -3.384   3.525  25.260  0.00  0.00    -0.274 N 
ATOM     10  C   UNL     1      -2.568   3.636  25.213  0.00  0.00    +0.226 C 
ATOM     11  O   UNL     1      -2.265   4.361  24.963  0.00  0.00    -0.275 OA
BRANCH   2   3
ATOM      3  C   UNL     1      -3.687   2.799  25.510  0.00  0.00    +0.120 C 
BRANCH   3   4
ATOM      4  C   UNL     1      -4.482   2.619  25.383  0.00  0.00    -0.002 A 
ATOM      5  C   UNL     1      -5.057   2.900  25.902  0.00  0.00    -0.003 A 
ATOM      6  C   UNL     1      -5.852   2.719  25.774  0.00  0.00    -0.000 A 
ATOM      7  C   UNL     1      -6.071   2.258  25.126  0.00  0.00    -0.000 A 
ATOM      8  C   UNL     1      -5.496   1.977  24.607  0.00  0.00    -0.000 A 
ATOM      9  C   UNL     1      -4.701   2.157  24.735  0.00  0.00    -0.003 A 
ENDBRANCH   3   4
ENDBRANCH   2   3
ENDBRANCH  12  10
ENDBRANCH  13  12
BRANCH  18  19
ATOM     19  C   UNL     1      -1.105   1.699  25.682  0.00  0.00    +0.051 C 
BRANCH  19  20
ATOM     20  C   UNL     1      -1.072   0.915  25.427  0.00  0.00    +0.100 A 
ATOM     21  N   UNL     1      -0.389   0.459  25.348  0.00  0.00    -0.082 NA
ATOM     22  O   UNL     1      -0.612  -0.288  25.079  0.00  0.00    -0.354 OA
ATOM     23  C   UNL     1      -1.432  -0.294  24.992  0.00  0.00    +0.198 A 
ATOM     32  C   UNL     1      -1.717   0.449  25.207  0.00  0.00    +0.057 A 
BRANCH  23  24
ATOM     24  C   UNL     1      -1.888  -0.932  24.735  0.00  0.00    +0.272 C 
BRANCH  24  25
ATOM     25  O   UNL     1      -2.641  -1.055  25.050  0.00  0.00    -0.467 OA
BRANCH  25  26
ATOM     26  C   UNL     1      -3.155  -1.591  24.690  0.00  0.00    +0.139 A 
ATOM     27  C   UNL     1      -3.062  -2.401  24.818  0.00  0.00    +0.037 A 
ATOM     28  C   UNL     1      -3.576  -2.936  24.458  0.00  0.00    +0.003 A 
ATOM     29  C   UNL     1      -4.184  -2.662  23.971  0.00  0.00    +0.000 A 
ATOM     30  C   UNL     1      -4.276  -1.852  23.844  0.00  0.00    +0.003 A 
ATOM     31  C   UNL     1      -3.762  -1.317  24.203  0.00  0.00    +0.037 A 
ENDBRANCH  25  26
ENDBRANCH  24  25
ENDBRANCH  23  24
ENDBRANCH  19  20
ENDBRANCH  18  19
TORSDOF 9
ENDMDL
MODEL 2
REMARK VINA RESULT:     -11.5      1.345      3.598
REMARK  Name = 
REMARK  9 active torsions:
REMARK  status: ('A' for Active; 'I' for Inactive)
REMARK    1  A    between atoms: N_2  and  C_3
REMARK    2  A    between atoms: C_3  and  C_4
REMARK    3  A    between atoms: C_10  and  C_12
REMARK    4  A    between atoms: C_12  and  C_13
REMARK    5  A    between atoms: C_18  and  C_19
REMARK    6  A    between atoms: C_19  and  C_20
REMARK    7  A    between atoms: C_23  and  C_24
REMARK    8  A    between atoms: C_24  and  O_25
REMARK    9  A    between atoms: O_25  and  C_26
REMARK                            x       y       z     vdW  Elec       q    Type
REMARK                         _______ _______ _______ _____ _____    ______ ____
ROOT
ATOM     13  C   UNL     1      -2.436   3.298  25.092  0.00  0.00    +0.012 C 
ATOM     14  C   UNL     1      -2.118   3.729  25.721  0.00  0.00    +0.019 C 
ATOM     15  C   UNL     1      -2.616   4.127  26.243  0.00  0.00    +0.089 C 
ATOM     16  N   UNL     1      -3.435   4.096  26.137  0.00  0.00    -0.218 NA
ATOM     17  C   UNL     1      -3.753   3.666  25.509  0.00  0.00    +0.089 C 
ATOM     18  C   UNL     1      -3.254   3.267  24.987  0.00  0.00    +0.024 C 
ENDROOT
BRANCH  13  12
ATOM     12  C   UNL     1      -1.937   2.900  24.570  0.00  0.00    +0.085 C 
BRANCH  12  10
ATOM      1  C   UNL     1       0.162   2.307  24.550  0.00  0.00    +0.115 C 
ATOM      2  N   UNL     1      -0.654   2.287  24.437  0.00  0.00    -0.274 N 
ATOM     10  C   UNL     1      -1.121   2.920  24.684  0.00  0.00    +0.226 C 
ATOM     11  O   UNL     1      -0.770   3.574  25.045  0.00  0.00    -0.275 OA
BRANCH   2   3
ATOM      3  C   UNL     1      -1.004   1.632  24.076  0.00  0.00    +0.120 C 
BRANCH   3   4
ATOM      4  C   UNL     1      -0.607   0.910  24.057  0.00  0.00    -0.002 A 
ATOM      5  C   UNL     1      -0.150   0.707  23.401  0.00  0.00    -0.003 A 
ATOM      6  C   UNL     1       0.248  -0.016  23.383  0.00  0.00    -0.000 A 
ATOM      7  C   UNL     1       0.188  -0.535  24.021  0.00  0.00    -0.000 A 
ATOM      8  C   UNL     1      -0.268  -0.332  24.677  0.00  0.00    -0.000 A 
ATOM      9  C   UNL     1      -0.666   0.390  24.696  0.00  0.00    -0.003 A 
ENDBRANCH   3   4
ENDBRANCH   2   3
ENDBRANCH  12  10
ENDBRANCH  13  12
BRANCH  18  19
ATOM     19  C   UNL     1      -3.573   2.838  24.359  0.00  0.00    +0.051 C 
BRANCH  19  20
ATOM     20  C   UNL     1      -4.087   2.210  24.508  0.00  0.00    +0.100 A 
ATOM     21  N   UNL     1      -4.863   2.273  24.781  0.00  0.00    -0.082 NA
ATOM     22  O   UNL     1      -5.171   1.511  24.851  0.00  0.00    -0.354 OA
ATOM     23  C   UNL     1      -4.585   0.977  24.622  0.00  0.00    +0.198 A 
ATOM     32  C   UNL     1      -3.915   1.409  24.410  0.00  0.00    +0.057 A 
BRANCH  23  24
ATOM     24  C   UNL     1      -4.657   0.155  24.608  0.00  0.00    +0.272 C 
BRANCH  24  25
ATOM     25  O   UNL     1      -4.139  -0.312  25.048  0.00  0.00    -0.467 OA
BRANCH  25  26
ATOM     26  C   UNL     1      -3.997  -1.093  24.823  0.00  0.00    +0.139 A 
ATOM     27  C   UNL     1      -4.280  -1.372  24.100  0.00  0.00    +0.037 A 
ATOM     28  C   UNL     1      -4.138  -2.153  23.876  0.00  0.00    +0.003 A 
ATOM     29  C   UNL     1      -3.713  -2.655  24.374  0.00  0.00    +0.000 A 
ATOM     30  C   UNL     1      -3.429  -2.375  25.096  0.00  0.00    +0.003 A 
ATOM     31  C   UNL     1      -3.571  -1.595  25.321  0.00  0.00    +0.037 A 
ENDBRANCH  25  26
ENDBRANCH  24  25
ENDBRANCH  23  24
ENDBRANCH  19  20
ENDBRANCH  18  19
TORSDOF 9
ENDMDL
MODEL 3
REMARK VINA RESULT:     -11.5      1.085      4.210
REMARK  Name = 
REMARK  9 active torsions:
REMARK  status: ('A' for Active; 'I' for Inactive)
REMARK    1  A    between atoms: N_2  and  C_3
REMARK    2  A    between atoms: C_3  and  C_4
REMARK    3  A    between atoms: C_10  and  C_12
REMARK    4  A    between atoms: C_12  and  C_13
REMARK    5  A    between atoms: C_18  and  C_19
REMARK    6  A    between atoms: C_19  and  C_20
REMARK    7  A    between atoms: C_23  and  C_24
REMARK    8  A    between atoms: C_24  and  O_25
REMARK    9  A    between atoms: O_25  and  C_26
REMARK                            x       y       z     vdW  Elec       q    Type
REMARK                         _______ _______ _______ _____ _____    ______ ____
ROOT
ATOM     13  C   UNL     1      -0.382   0.550  24.530  0.00  0.00    +0.012 C 
ATOM     14  C   UNL     1       0.044   0.360  23.849  0.00  0.00    +0.019 C 
ATOM     15  C   UNL     1       0.547   0.917  23.508  0.00  0.00    +0.089 C 
ATOM     16  N   UNL     1       0.625   1.666  23.848  0.00  0.00    -0.218 NA
ATOM     17  C   UNL     1       0.200   1.856  24.529  0.00  0.00    +0.089 C 
ATOM     18  C   UNL     1      -0.304   1.298  24.871  0.00  0.00    +0.024 C 
ENDROOT
BRANCH  13  12
ATOM     12  C   UNL     1      -0.884  -0.007  24.872  0.00  0.00    +0.085 C 
BRANCH  12  10
ATOM      1  C   UNL     1      -1.327  -2.123  24.572  0.00  0.00    +0.115 C 
ATOM      2  N   UNL     1      -1.429  -1.322  24.735  0.00  0.00    -0.274 N 
ATOM     10  C   UNL     1      -0.783  -0.809  24.708  0.00  0.00    +0.226 C 
ATOM     11  O   UNL     1      -0.034  -1.100  24.518  0.00  0.00    -0.275 OA
BRANCH   2   3
ATOM      3  C   UNL     1      -2.178  -1.031  24.925  0.00  0.00    +0.120 C 
BRANCH   3   4
ATOM      4  C   UNL     1      -2.852  -1.429  24.666  0.00  0.00    -0.002 A 
ATOM      5  C   UNL     1      -3.020  -2.184  24.952  0.00  0.00    -0.003 A 
ATOM      6  C   UNL     1      -3.695  -2.582  24.693  0.00  0.00    -0.000 A 
ATOM      7  C   UNL     1      -4.201  -2.225  24.148  0.00  0.00    -0.000 A 
ATOM      8  C   UNL     1      -4.032  -1.470  23.862  0.00  0.00    -0.000 A 
ATOM      9  C   UNL     1      -3.358  -1.072  24.121  0.00  0.00    -0.003 A 
ENDBRANCH   3   4
ENDBRANCH   2   3
ENDBRANCH  12  10
ENDBRANCH  13  12
BRANCH  18  19
ATOM     19  C   UNL     1      -0.729   1.488  25.551  0.00  0.00    +0.051 C 
BRANCH  19  20
ATOM     20  C   UNL     1      -1.206   2.161  25.565  0.00  0.00    +0.100 A 
ATOM     21  N   UNL     1      -0.948   2.937  25.671  0.00  0.00    -0.082 NA
ATOM     22  O   UNL     1      -1.608   3.431  25.646  0.00  0.00    -0.354 OA
ATOM     23  C   UNL     1      -2.274   2.960  25.525  0.00  0.00    +0.198 A 
ATOM     32  C   UNL     1      -2.026   2.175  25.474  0.00  0.00    +0.057 A 
BRANCH  23  24
ATOM     24  C   UNL     1      -3.053   3.228  25.465  0.00  0.00    +0.272 C 
BRANCH  24  25
ATOM     25  O   UNL     1      -3.561   2.896  24.905  0.00  0.00    -0.467 OA
BRANCH  25  26
ATOM     26  C   UNL     1      -4.368   2.839  25.065  0.00  0.00    +0.139 A 
ATOM     27  C   UNL     1      -4.780   2.152  24.865  0.00  0.00    +0.037 A 
ATOM     28  C   UNL     1      -5.587   2.095  25.024  0.00  0.00    +0.003 A 
ATOM     29  C   UNL     1      -5.983   2.723  25.385  0.00  0.00    +0.000 A 
ATOM     30  C   UNL     1      -5.570   3.409  25.585  0.00  0.00    +0.003 A 
ATOM     31  C   UNL     1      -4.763   3.467  25.425  0.00  0.00    +0.037 A 
ENDBRANCH  25  26
ENDBRANCH  24  25
ENDBRANCH  23  24
ENDBRANCH  19  20
ENDBRANCH  18  19
TORSDOF 9
ENDMDL
MODEL 4
REMARK VINA RESULT:     -11.1      1.361      4.395
REMARK  Name = 
REMARK  9 active torsions:
REMARK  status: ('A' for Active; 'I' for Inactive)
REMARK    1  A    between atoms: N_2  and  C_3
REMARK    2  A    between atoms: C_3  and  C_4
REMARK    3  A    between atoms: C_10  and  C_12
REMARK    4  A    between atoms: C_12  and  C_13
REMARK    5  A    between atoms: C_18  and  C_19
REMARK    6  A    between atoms: C_19  and  C_20
REMARK    7  A    between atoms: C_23  and  C_24
REMARK    8  A    between atoms: C_24  and  O_25
REMARK    9  A    between atoms: O_25  and  C_26
REMARK                            x       y       z     vdW  Elec       q    Type
REMARK                         _______ _______ _______ _____ _____    ______ ____
ROOT
ATOM     13  C   UNL     1      -2.342  -1.247  25.014  0.00  0.00    +0.012 C 
ATOM     14  C   UNL     1      -2.415  -1.928  24.553  0.00  0.00    +0.019 C 
ATOM     15  C   UNL     1      -1.750  -2.382  24.379  0.00  0.00    +0.089 C 
ATOM     16  N   UNL     1      -1.009  -2.156  24.666  0.00  0.00    -0.218 NA
ATOM     17  C   UNL     1      -0.936  -1.476  25.127  0.00  0.00    +0.089 C 
ATOM     18  C   UNL     1      -1.601  -1.021  25.301  0.00  0.00    +0.024 C 
ENDROOT
BRANCH  13  12
ATOM     12  C   UNL     1      -3.008  -0.793  25.189  0.00  0.00    +0.085 C 
BRANCH  12  10
ATOM      1  C   UNL     1      -4.990  -0.428  24.352  0.00  0.00    +0.115 C 
ATOM      2  N   UNL     1      -4.296  -0.324  24.784  0.00  0.00    -0.274 N 
ATOM     10  C   UNL     1      -3.703  -0.897  24.757  0.00  0.00    +0.226 C 
ATOM     11  O   UNL     1      -3.805  -1.574  24.296  0.00  0.00    -0.275 OA
BRANCH   2   3
ATOM      3  C   UNL     1      -4.193   0.353  25.245  0.00  0.00    +0.120 C 
BRANCH   3   4
ATOM      4  C   UNL     1      -4.658   1.020  25.105  0.00  0.00    -0.002 A 
ATOM      5  C   UNL     1      -5.347   1.141  25.541  0.00  0.00    -0.003 A 
ATOM      6  C   UNL     1      -5.812   1.809  25.401  0.00  0.00    -0.000 A 
ATOM      7  C   UNL     1      -5.586   2.354  24.825  0.00  0.00    -0.000 A 
ATOM      8  C   UNL     1      -4.898   2.233  24.389  0.00  0.00    -0.000 A 
ATOM      9  C   UNL     1      -4.433   1.566  24.529  0.00  0.00    -0.003 A 
ENDBRANCH   3   4
ENDBRANCH   2   3
ENDBRANCH  12  10
ENDBRANCH  13  12
BRANCH  18  19
ATOM     19  C   UNL     1      -1.528  -0.342  25.762  0.00  0.00    +0.051 C 
BRANCH  19  20
ATOM     20  C   UNL     1      -1.070   0.290  25.495  0.00  0.00    +0.100 A 
ATOM     21  N   UNL     1      -0.370   0.233  25.062  0.00  0.00    -0.082 NA
ATOM     22  O   UNL     1      -0.099   0.997  24.913  0.00  0.00    -0.354 OA
ATOM     23  C   UNL     1      -0.632   1.527  25.254  0.00  0.00    +0.198 A 
ATOM     32  C   UNL     1      -1.232   1.091  25.614  0.00  0.00    +0.057 A 
BRANCH  23  24
ATOM     24  C   UNL     1      -0.574   2.351  25.238  0.00  0.00    +0.272 C 
BRANCH  24  25
ATOM     25  O   UNL     1      -1.093   2.792  24.771  0.00  0.00    -0.467 OA
BRANCH  25  26
ATOM     26  C   UNL     1      -1.156   3.606  24.883  0.00  0.00    +0.139 A 
ATOM     27  C   UNL     1      -1.823   3.921  25.254  0.00  0.00    +0.037 A 
ATOM     28  C   UNL     1      -1.887   4.735  25.366  0.00  0.00    +0.003 A 
ATOM     29  C   UNL     1      -1.284   5.236  25.108  0.00  0.00    +0.000 A 
ATOM     30  C   UNL     1      -0.617   4.921  24.737  0.00  0.00    +0.003 A 
ATOM     31  C   UNL     1      -0.554   4.107  24.625  0.00  0.00    +0.037 A 
ENDBRANCH  25  26
ENDBRANCH  24  25
ENDBRANCH  23  24
ENDBRANCH  19  20
ENDBRANCH  18  19
TORSDOF 9
ENDMDL
MODEL 5
REMARK VINA RESULT:     -11.1      1.292      3.605
REMARK  Name = 
REMARK  9 active torsions:
REMARK  status: ('A' for Active; 'I' for Inactive)
REMARK    1  A    between atoms: N_2  and  C_3
REMARK    2  A    between atoms: C_3  and  C_4
REMARK    3  A    between atoms: C_10  and  C_12
REMARK    4  A    between atoms: C_12  and  C_13
REMARK    5  A    between atoms: C_18  and  C_19
REMARK    6  A    between atoms: C_19  and  C_20
REMARK    7  A    between atoms: C_23  and  C_24
REMARK    8  A    between atoms: C_24  and  O_25
REMARK    9  A    between atoms: O_25  and  C_26
REMARK                            x       y       z     vdW  Elec       q    Type
REMARK                         _______ _______ _______ _____ _____    ______ ____
ROOT
ATOM     13  C   UNL     1      -3.287   3.683  25.387  0.00  0.00    +0.012 C 
ATOM     14  C   UNL     1      -3.172   4.148  26.059  0.00  0.00    +0.019 C 
ATOM     15  C   UNL     1      -3.801   4.298  26.570  0.00  0.00    +0.089 C 
ATOM     16  N   UNL     1      -4.548   3.982  26.410  0.00  0.00    -0.218 NA
ATOM     17  C   UNL     1      -4.663   3.517  25.739  0.00  0.00    +0.089 C 
ATOM     18  C   UNL     1      -4.033   3.367  25.227  0.00  0.00    +0.024 C 
ENDROOT
BRANCH  13  12
ATOM     12  C   UNL     1      -2.658   3.534  24.876  0.00  0.00    +0.085 C 
BRANCH  12  10
ATOM      1  C   UNL     1      -0.488   3.767  24.924  0.00  0.00    +0.115 C 
ATOM      2  N   UNL     1      -1.235   3.460  24.759  0.00  0.00    -0.274 N 
ATOM     10  C   UNL     1      -1.910   3.841  25.042  0.00  0.00    +0.226 C 
ATOM     11  O   UNL     1      -1.836   4.529  25.490  0.00  0.00    -0.275 OA
BRANCH   2   3
ATOM      3  C   UNL     1      -1.308   2.771  24.310  0.00  0.00    +0.120 C 
BRANCH   3   4
ATOM      4  C   UNL     1      -0.705   2.208  24.319  0.00  0.00    -0.002 A 
ATOM      5  C   UNL     1       0.003   2.356  23.924  0.00  0.00    -0.003 A 
ATOM      6  C   UNL     1       0.606   1.792  23.932  0.00  0.00    -0.000 A 
ATOM      7  C   UNL     1       0.499   1.081  24.337  0.00  0.00    -0.000 A 
ATOM      8  C   UNL     1      -0.209   0.934  24.732  0.00  0.00    -0.000 A 
ATOM      9  C   UNL     1      -0.812   1.496  24.723  0.00  0.00    -0.003 A 
ENDBRANCH   3   4
ENDBRANCH   2   3
ENDBRANCH  12  10
ENDBRANCH  13  12
BRANCH  18  19
ATOM     19  C   UNL     1      -4.148   2.903  24.556  0.00  0.00    +0.051 C 
BRANCH  19  20
ATOM     20  C   UNL     1      -4.543   2.181  24.616  0.00  0.00    +0.100 A 
ATOM     21  N   UNL     1      -5.357   2.079  24.698  0.00  0.00    -0.082 NA
ATOM     22  O   UNL     1      -5.509   1.269  24.738  0.00  0.00    -0.354 OA
ATOM     23  C   UNL     1      -4.789   0.871  24.682  0.00  0.00    +0.198 A 
ATOM     32  C   UNL     1      -4.192   1.434  24.606  0.00  0.00    +0.057 A 
BRANCH  23  24
ATOM     24  C   UNL     1      -4.685   0.052  24.698  0.00  0.00    +0.272 C 
BRANCH  24  25
ATOM     25  O   UNL     1      -3.969  -0.278  24.453  0.00  0.00    -0.467 OA
BRANCH  25  26
ATOM     26  C   UNL     1      -3.855  -1.093  24.499  0.00  0.00    +0.139 A 
ATOM     27  C   UNL     1      -3.434  -1.415  25.132  0.00  0.00    +0.037 A 
ATOM     28  C   UNL     1      -3.319  -2.230  25.179  0.00  0.00    +0.003 A 
ATOM     29  C   UNL     1      -3.625  -2.725  24.593  0.00  0.00    +0.000 A 
ATOM     30  C   UNL     1      -4.045  -2.402  23.960  0.00  0.00    +0.003 A 
ATOM     31  C   UNL     1      -4.160  -1.587  23.914  0.00  0.00    +0.037 A 
ENDBRANCH  25  26
ENDBRANCH  24  25
ENDBRANCH  23  24
ENDBRANCH  19  20
ENDBRANCH  18  19
TORSDOF 9
ENDMDL
MODEL 6
REMARK VINA RESULT:     -11.0      1.628      3.715
REMARK  Name = 
REMARK  9 active torsions:
REMARK  status: ('A' for Active; 'I' for Inactive)
REMARK    1  A    between atoms: N_2  and  C_3
REMARK    2  A    between atoms: C_3  and  C_4
REMARK    3  A    between atoms: C_10  and  C_12
REMARK    4  A    between atoms: C_12  and  C_13
REMARK    5  A    between atoms: C_18  and  C_19
REMARK    6  A    between atoms: C_19  and  C_20
REMARK    7  A    between atoms: C_23  and  C_24
REMARK    8  A    between atoms: C_24  and  O_25
REMARK    9  A    between atoms: O_25  and  C_26
REMARK                            x       y       z     vdW  Elec       q    Type
REMARK                         _______ _______ _______ _____ _____    ______ ____
ROOT
ATOM     13  C   UNL     1      -4.925   2.707  25.261  0.00  0.00    +0.012 C 
ATOM     14  C   UNL     1      -5.525   3.029  25.726  0.00  0.00    +0.019 C 
ATOM     15  C   UNL     1      -6.245   2.635  25.802  0.00  0.00    +0.089 C 
ATOM     16  N   UNL     1      -6.366   1.917  25.412  0.00  0.00    -0.218 NA
ATOM     17  C   UNL     1      -5.767   1.595  24.947  0.00  0.00    +0.089 C 
ATOM     18  C   UNL     1      -5.046   1.989  24.870  0.00  0.00    +0.024 C 
ENDROOT
BRANCH  13  12
ATOM     12  C   UNL     1      -4.205   3.101  25.185  0.00  0.00    +0.085 C 
BRANCH  12  10
ATOM      1  C   UNL     1      -2.940   4.459  26.332  0.00  0.00    +0.115 C 
ATOM      2  N   UNL     1      -3.216   3.984  25.718  0.00  0.00    -0.274 N 
ATOM     10  C   UNL     1      -3.928   3.576  25.800  0.00  0.00    +0.226 C 
ATOM     11  O   UNL     1      -4.363   3.644  26.497  0.00  0.00    -0.275 OA
BRANCH   2   3
ATOM      3  C   UNL     1      -2.780   3.917  25.020  0.00  0.00    +0.120 C 
BRANCH   3   4
ATOM      4  C   UNL     1      -1.986   4.138  25.008  0.00  0.00    -0.002 A 
ATOM      5  C   UNL     1      -1.780   4.931  24.917  0.00  0.00    -0.003 A 
ATOM      6  C   UNL     1      -0.984   5.152  24.905  0.00  0.00    -0.000 A 
ATOM      7  C   UNL     1      -0.396   4.579  24.983  0.00  0.00    -0.000 A 
ATOM      8  C   UNL     1      -0.602   3.786  25.074  0.00  0.00    -0.000 A 
ATOM      9  C   UNL     1      -1.397   3.565  25.086  0.00  0.00    -0.003 A 
ENDBRANCH   3   4
ENDBRANCH   2   3
ENDBRANCH  12  10
ENDBRANCH  13  12
BRANCH  18  19
ATOM     19  C   UNL     1      -4.446   1.667  24.405  0.00  0.00    +0.051 C 
BRANCH  19  20
ATOM     20  C   UNL     1      -4.278   0.861  24.450  0.00  0.00    +0.100 A 
ATOM     21  N   UNL     1      -4.792   0.246  24.254  0.00  0.00    -0.082 NA
ATOM     22  O   UNL     1      -4.397  -0.466  24.381  0.00  0.00    -0.354 OA
ATOM     23  C   UNL     1      -3.639  -0.293  24.656  0.00  0.00    +0.198 A 
ATOM     32  C   UNL     1      -3.565   0.527  24.699  0.00  0.00    +0.057 A 
BRANCH  23  24
ATOM     24  C   UNL     1      -3.057  -0.843  24.854  0.00  0.00    +0.272 C 
BRANCH  24  25
ATOM     25  O   UNL     1      -2.353  -0.872  24.424  0.00  0.00    -0.467 OA
BRANCH  25  26
ATOM     26  C   UNL     1      -1.728  -1.343  24.687  0.00  0.00    +0.139 A 
ATOM     27  C   UNL     1      -1.755  -2.161  24.580  0.00  0.00    +0.037 A 
ATOM     28  C   UNL     1      -1.131  -2.631  24.843  0.00  0.00    +0.003 A 
ATOM     29  C   UNL     1      -0.479  -2.284  25.213  0.00  0.00    +0.000 A 
ATOM     30  C   UNL     1      -0.453  -1.466  25.319  0.00  0.00    +0.003 A 
ATOM     31  C   UNL     1      -1.078  -0.996  25.056  0.00  0.00    +0.037 A 
ENDBRANCH  25  26
ENDBRANCH  24  25
ENDBRANCH  23  24
ENDBRANCH  19  20
ENDBRANCH  18  19
TORSDOF 9
ENDMDL
MODEL 7
REMARK VINA RESULT:      -8.3     15.668     18.683
REMARK  Name = 
REMARK  9 active torsions:
REMARK  status: ('A' for Active; 'I' for Inactive)
REMARK    1  A    between atoms: N_2  and  C_3
REMARK    2  A    between atoms: C_3  and  C_4
REMARK    3  A    between atoms: C_10  and  C_12
REMARK    4  A    between atoms: C_12  and  C_13
REMARK    5  A    between atoms: C_18  and  C_19
REMARK    6  A    between atoms: C_19  and  C_20
REMARK    7  A    between atoms: C_23  and  C_24
REMARK    8  A    between atoms: C_24  and  O_25
REMARK    9  A    between atoms: O_25  and  C_26
REMARK                            x       y       z     vdW  Elec       q    Type
REMARK                         _______ _______ _______ _____ _____    ______ ____
ROOT
ATOM     13  C   UNL     1      11.660   8.517  20.636  0.00  0.00    +0.012 C 
ATOM     14  C   UNL     1      10.947   8.109  20.718  0.00  0.00    +0.019 C 
ATOM     15  C   UNL     1      10.700   7.854  21.462  0.00  0.00    +0.089 C 
ATOM     16  N   UNL     1      11.167   8.006  22.126  0.00  0.00    -0.218 NA
ATOM     17  C   UNL     1      11.879   8.413  22.045  0.00  0.00    +0.089 C 
ATOM     18  C   UNL     1      12.126   8.669  21.301  0.00  0.00    +0.024 C 
ENDROOT
BRANCH  13  12
ATOM     12  C   UNL     1      11.907   8.772  19.892  0.00  0.00    +0.085 C 
BRANCH  12  10
ATOM      1  C   UNL     1      11.310   8.526  17.808  0.00  0.00    +0.115 C 
ATOM      2  N   UNL     1      11.770   8.688  18.472  0.00  0.00    -0.274 N 
ATOM     10  C   UNL     1      11.447   8.610  19.227  0.00  0.00    +0.226 C 
ATOM     11  O   UNL     1      10.662   8.371  19.316  0.00  0.00    -0.275 OA
BRANCH   2   3
ATOM      3  C   UNL     1      12.555   8.927  18.383  0.00  0.00    +0.120 C 
BRANCH   3   4
ATOM      4  C   UNL     1      12.993   8.669  17.734  0.00  0.00    -0.002 A 
ATOM      5  C   UNL     1      12.975   9.094  17.028  0.00  0.00    -0.003 A 
ATOM      6  C   UNL     1      13.413   8.834  16.378  0.00  0.00    -0.000 A 
ATOM      7  C   UNL     1      13.870   8.150  16.436  0.00  0.00    -0.000 A 
ATOM      8  C   UNL     1      13.889   7.725  17.142  0.00  0.00    -0.000 A 
ATOM      9  C   UNL     1      13.451   7.984  17.791  0.00  0.00    -0.003 A 
ENDBRANCH   3   4
ENDBRANCH   2   3
ENDBRANCH  12  10
ENDBRANCH  13  12
BRANCH  18  19
ATOM     19  C   UNL     1      12.839   9.076  21.220  0.00  0.00    +0.051 C 
BRANCH  19  20
ATOM     20  C   UNL     1      13.531   8.763  21.541  0.00  0.00    +0.100 A 
ATOM     21  N   UNL     1      13.772   8.824  22.327  0.00  0.00    -0.082 NA
ATOM     22  O   UNL     1      14.494   8.433  22.404  0.00  0.00    -0.354 OA
ATOM     23  C   UNL     1      14.700   8.131  21.664  0.00  0.00    +0.198 A 
ATOM     32  C   UNL     1      14.105   8.334  21.131  0.00  0.00    +0.057 A 
BRANCH  23  24
ATOM     24  C   UNL     1      15.382   7.699  21.490  0.00  0.00    +0.272 C 
BRANCH  24  25
ATOM     25  O   UNL     1      15.337   7.039  20.997  0.00  0.00    -0.467 OA
BRANCH  25  26
ATOM     26  C   UNL     1      16.018   6.752  20.630  0.00  0.00    +0.139 A 
ATOM     27  C   UNL     1      16.724   6.699  21.056  0.00  0.00    +0.037 A 
ATOM     28  C   UNL     1      17.405   6.412  20.690  0.00  0.00    +0.003 A 
ATOM     29  C   UNL     1      17.381   6.177  19.898  0.00  0.00    +0.000 A 
ATOM     30  C   UNL     1      16.676   6.231  19.474  0.00  0.00    +0.003 A 
ATOM     31  C   UNL     1      15.995   6.518  19.840  0.00  0.00    +0.037 A 
ENDBRANCH  25  26
ENDBRANCH  24  25
ENDBRANCH  23  24
ENDBRANCH  19  20
ENDBRANCH  18  19
TORSDOF 9
ENDMDL
