REMARK  Name = 
REMARK  9 active torsions:
REMARK  status: ('A' for Active; 'I' for Inactive)
REMARK    1  A    between atoms: S_2  and  C_3
REMARK    2  A    between atoms: C_7  and  N_8
REMARK    3  A    between atoms: N_11  and  C_12
REMARK    4  A    between atoms: C_14  and  C_25
REMARK    5  A    between atoms: C_17  and  C_19
REMARK    6  A    between atoms: N_27  and  C_28
REMARK    7  A    between atoms: C_28  and  C_29
REMARK    8  A    between atoms: C_28  and  C_39
REMARK    9  A    between atoms: C_29  and  C_30
REMARK                            x       y       z     vdW  Elec       q    Type
REMARK                         _______ _______ _______ _____ _____    ______ ____
ROOT
ATOM     12  C   UNL     1      -2.522   4.001   0.000  0.00  0.00    +0.119 C 
ATOM     13  C   UNL     1      -2.037   3.334   0.000  0.00  0.00    +0.053 C 
ATOM     14  C   UNL     1      -2.522   2.666   0.000  0.00  0.00    +0.156 C 
ATOM     15  N   UNL     1      -3.307   2.921   0.000  0.00  0.00    -0.266 N 
ATOM     16  C   UNL     1      -3.307   3.746   0.000  0.00  0.00    +0.116 C 
ATOM     17  C   UNL     1      -3.974   2.436   0.000  0.00  0.00    +0.265 C 
ATOM     18  O   UNL     1      -3.888   1.616   0.000  0.00  0.00    -0.268 OA
ENDROOT
BRANCH  17  19
ATOM     19  C   UNL     1      -4.728   2.772   0.000  0.00  0.00    +0.114 A 
ATOM     20  C   UNL     1      -5.442   2.360   0.000  0.00  0.00    +0.023 A 
ATOM     21  C   UNL     1      -6.056   2.912   0.000  0.00  0.00    +0.020 A 
ATOM     22  C   UNL     1      -5.720   3.665   0.000  0.00  0.00    +0.076 A 
ATOM     23  N   UNL     1      -4.899   3.579   0.000  0.00  0.00    -0.320 N 
ATOM     24  C   UNL     1      -4.348   4.192   0.000  0.00  0.00    +0.131 C 
ENDBRANCH  17  19
BRANCH  12  11
ATOM      8  N   UNL     1      -0.908   4.344   0.000  0.00  0.00    -0.161 NA
ATOM      9  C   UNL     1      -1.460   4.957   0.000  0.00  0.00    +0.343 C 
ATOM     10  O   UNL     1      -1.205   5.742   0.000  0.00  0.00    -0.249 OA
ATOM     11  N   UNL     1      -2.267   4.786   0.000  0.00  0.00    -0.187 NA
BRANCH   8   7
ATOM      3  C   UNL     1       0.961   5.472   0.000  0.00  0.00    +0.027 A 
ATOM      4  C   UNL     1       1.513   4.859   0.000  0.00  0.00    +0.006 A 
ATOM      5  C   UNL     1       1.258   4.074   0.000  0.00  0.00    +0.002 A 
ATOM      6  C   UNL     1       0.451   3.903   0.000  0.00  0.00    +0.017 A 
ATOM      7  C   UNL     1      -0.101   4.516   0.000  0.00  0.00    +0.075 A 
ATOM     42  C   UNL     1       0.154   5.301   0.000  0.00  0.00    +0.023 A 
BRANCH   3   2
ATOM      1  C   UNL     1       2.022   6.428   0.000  0.00  0.00    +0.074 C 
ATOM      2  S   UNL     1       1.216   6.257   0.000  0.00  0.00    -0.113 S 
ENDBRANCH   3   2
ENDBRANCH   8   7
ENDBRANCH  12  11
BRANCH  14  25
ATOM     25  C   UNL     1      -2.267   1.882   0.000  0.00  0.00    +0.260 C 
ATOM     26  O   UNL     1      -2.819   1.269   0.000  0.00  0.00    -0.272 OA
ATOM     27  N   UNL     1      -1.460   1.710   0.000  0.00  0.00    -0.196 NA
BRANCH  27  28
ATOM     28  C   UNL     1      -1.205   0.926   0.000  0.00  0.00    +0.179 C 
BRANCH  28  39
ATOM     39  C   UNL     1      -1.758   0.313   0.000  0.00  0.00    +0.281 C 
ATOM     40  N   UNL     1      -1.502  -0.472   0.000  0.00  0.00    -0.086 NA
ATOM     41  O   UNL     1      -2.564   0.484   0.000  0.00  0.00    -0.270 OA
ENDBRANCH  28  39
BRANCH  28  29
ATOM     29  C   UNL     1      -0.398   0.754   0.000  0.00  0.00    +0.059 C 
BRANCH  29  30
ATOM     30  C   UNL     1      -0.143  -0.030   0.000  0.00  0.00    +0.001 A 
ATOM     31  C   UNL     1      -0.628  -0.698   0.000  0.00  0.00    +0.095 A 
ATOM     32  N   UNL     1      -0.143  -1.365   0.000  0.00  0.00    -0.244 NA
ATOM     33  C   UNL     1       0.641  -1.110   0.000  0.00  0.00    +0.081 A 
ATOM     34  C   UNL     1       0.641  -0.285   0.000  0.00  0.00    +0.015 A 
ATOM     35  C   UNL     1       1.356   0.127   0.000  0.00  0.00    +0.001 A 
ATOM     36  C   UNL     1       2.070  -0.285   0.000  0.00  0.00    +0.000 A 
ATOM     37  C   UNL     1       2.070  -1.110   0.000  0.00  0.00    +0.002 A 
ATOM     38  C   UNL     1       1.356  -1.523   0.000  0.00  0.00    +0.019 A 
ENDBRANCH  29  30
ENDBRANCH  28  29
ENDBRANCH  27  28
ENDBRANCH  14  25
TORSDOF 9
