REMARK  Name = 
REMARK  8 active torsions:
REMARK  status: ('A' for Active; 'I' for Inactive)
REMARK    1  A    between atoms: C_2  and  C_5
REMARK    2  A    between atoms: C_8  and  C_11
REMARK    3  A    between atoms: C_13  and  C_14
REMARK    4  A    between atoms: C_14  and  C_15
REMARK    5  A    between atoms: C_20  and  C_21
REMARK    6  A    between atoms: C_21  and  C_22
REMARK    7  A    between atoms: N_24  and  C_25
REMARK    8  A    between atoms: C_25  and  C_26
REMARK                            x       y       z     vdW  Elec       q    Type
REMARK                         _______ _______ _______ _____ _____    ______ ____
ROOT
ATOM     15  C   UNL     1       5.496   5.648   0.000  0.00  0.00    +0.024 C 
ATOM     16  C   UNL     1       6.210   6.060   0.000  0.00  0.00    +0.089 C 
ATOM     17  N   UNL     1       6.925   5.648   0.000  0.00  0.00    -0.218 NA
ATOM     18  C   UNL     1       6.925   4.823   0.000  0.00  0.00    +0.089 C 
ATOM     19  C   UNL     1       6.210   4.410   0.000  0.00  0.00    +0.019 C 
ATOM     20  C   UNL     1       5.496   4.823   0.000  0.00  0.00    +0.012 C 
ENDROOT
BRANCH  15  14
ATOM     14  C   UNL     1       4.781   6.060   0.000  0.00  0.00    +0.051 C 
BRANCH  14  13
ATOM     11  C   UNL     1       5.194   8.155   0.000  0.00  0.00    +0.177 A 
ATOM     12  C   UNL     1       5.449   7.370   0.000  0.00  0.00    +0.058 A 
ATOM     13  C   UNL     1       4.781   6.885   0.000  0.00  0.00    +0.101 A 
ATOM     35  N   UNL     1       4.114   7.370   0.000  0.00  0.00    -0.081 NA
ATOM     36  O   UNL     1       4.369   8.155   0.000  0.00  0.00    -0.354 OA
BRANCH  11   8
ATOM      5  C   UNL     1       6.649  10.157   0.000  0.00  0.00    -0.023 A 
ATOM      6  C   UNL     1       6.984   9.404   0.000  0.00  0.00    -0.004 A 
ATOM      7  C   UNL     1       6.499   8.736   0.000  0.00  0.00    +0.003 A 
ATOM      8  C   UNL     1       5.679   8.822   0.000  0.00  0.00    +0.037 A 
ATOM      9  C   UNL     1       5.343   9.576   0.000  0.00  0.00    +0.003 A 
ATOM     10  C   UNL     1       5.828  10.243   0.000  0.00  0.00    -0.004 A 
BRANCH   5   2
ATOM      1  C   UNL     1       7.618  11.492   0.000  0.00  0.00    +0.004 C 
ATOM      2  C   UNL     1       7.133  10.825   0.000  0.00  0.00    +0.019 C 
ATOM      3  C   UNL     1       6.466  11.310   0.000  0.00  0.00    +0.004 C 
ATOM      4  C   UNL     1       7.801  10.340   0.000  0.00  0.00    +0.004 C 
ENDBRANCH   5   2
ENDBRANCH  11   8
ENDBRANCH  14  13
ENDBRANCH  15  14
BRANCH  20  21
ATOM     21  C   UNL     1       4.781   4.410   0.000  0.00  0.00    +0.087 C 
BRANCH  21  22
ATOM     22  C   UNL     1       4.781   3.585   0.000  0.00  0.00    +0.242 C 
ATOM     23  O   UNL     1       5.496   3.173   0.000  0.00  0.00    -0.273 OA
ATOM     24  N   UNL     1       4.067   3.173   0.000  0.00  0.00    -0.201 NA
BRANCH  24  25
ATOM     25  C   UNL     1       4.067   2.348   0.000  0.00  0.00    +0.142 C 
BRANCH  25  26
ATOM     26  C   UNL     1       3.352   1.935   0.000  0.00  0.00    +0.003 A 
ATOM     27  C   UNL     1       3.352   1.110   0.000  0.00  0.00    +0.001 A 
ATOM     28  C   UNL     1       2.638   0.698   0.000  0.00  0.00    +0.040 A 
ATOM     29  C   UNL     1       1.923   1.110   0.000  0.00  0.00    +0.176 A 
ATOM     30  O   UNL     1       1.139   0.856   0.000  0.00  0.00    -0.435 OA
ATOM     31  C   UNL     1       0.654   1.523   0.000  0.00  0.00    +0.429 C 
ATOM     32  O   UNL     1       1.139   2.190   0.000  0.00  0.00    -0.435 OA
ATOM     33  C   UNL     1       1.923   1.935   0.000  0.00  0.00    +0.176 A 
ATOM     34  C   UNL     1       2.638   2.348   0.000  0.00  0.00    +0.038 A 
ENDBRANCH  25  26
ENDBRANCH  24  25
ENDBRANCH  21  22
ENDBRANCH  20  21
TORSDOF 8
