REMARK  Name = 
REMARK  8 active torsions:
REMARK  status: ('A' for Active; 'I' for Inactive)
REMARK    1  A    between atoms: O_2  and  C_3
REMARK    2  A    between atoms: C_6  and  C_7
REMARK    3  A    between atoms: C_7  and  N_8
REMARK    4  A    between atoms: N_8  and  C_9
REMARK    5  A    between atoms: C_12  and  C_13
REMARK    6  A    between atoms: C_13  and  N_14
REMARK    7  A    between atoms: C_15  and  C_17
REMARK    8  A    between atoms: C_17  and  C_18
REMARK                            x       y       z     vdW  Elec       q    Type
REMARK                         _______ _______ _______ _____ _____    ______ ____
ROOT
ATOM      9  C   UNL     1       1.429   4.704   0.000  0.00  0.00    +0.135 C 
ATOM     10  C   UNL     1       2.096   4.219   0.000  0.00  0.00    +0.162 C 
ATOM     11  O   UNL     1       1.841   3.434   0.000  0.00  0.00    -0.350 OA
ATOM     12  C   UNL     1       1.016   3.434   0.000  0.00  0.00    +0.169 C 
ATOM     22  C   UNL     1       0.761   4.219   0.000  0.00  0.00    +0.199 C 
ATOM     23  O   UNL     1      -0.023   4.474   0.000  0.00  0.00    -0.219 OA
ENDROOT
BRANCH   9   8
ATOM      8  N   UNL     1       1.429   5.529   0.000  0.00  0.00    -0.209 NA
BRANCH   8   7
ATOM      7  C   UNL     1       2.143   5.941   0.000  0.00  0.00    +0.115 C 
BRANCH   7   6
ATOM      3  C   UNL     1       2.143   8.416   0.000  0.00  0.00    +0.139 A 
ATOM      4  C   UNL     1       2.858   8.004   0.000  0.00  0.00    +0.037 A 
ATOM      5  C   UNL     1       2.858   7.179   0.000  0.00  0.00    +0.000 A 
ATOM      6  C   UNL     1       2.143   6.766   0.000  0.00  0.00    -0.005 A 
ATOM     24  C   UNL     1       1.429   7.179   0.000  0.00  0.00    +0.000 A 
ATOM     25  C   UNL     1       1.429   8.004   0.000  0.00  0.00    +0.037 A 
BRANCH   3   2
ATOM      1  C   UNL     1       1.429   9.654   0.000  0.00  0.00    +0.252 C 
ATOM      2  O   UNL     1       2.143   9.241   0.000  0.00  0.00    -0.471 OA
ENDBRANCH   3   2
ENDBRANCH   7   6
ENDBRANCH   8   7
ENDBRANCH   9   8
BRANCH  12  13
ATOM     13  C   UNL     1       0.531   2.767   0.000  0.00  0.00    +0.147 C 
BRANCH  13  14
ATOM     14  N   UNL     1      -0.289   2.853   0.000  0.00  0.00    -0.203 NA
ATOM     15  C   UNL     1      -0.774   2.185   0.000  0.00  0.00    +0.241 C 
ATOM     16  O   UNL     1      -0.438   1.432   0.000  0.00  0.00    -0.273 OA
BRANCH  15  17
ATOM     17  C   UNL     1      -1.594   2.272   0.000  0.00  0.00    +0.087 C 
BRANCH  17  18
ATOM     18  C   UNL     1      -2.079   1.604   0.000  0.00  0.00    +0.009 C 
ATOM     19  C   UNL     1      -2.564   0.937   0.000  0.00  0.00    +0.000 C 
ATOM     20  C   UNL     1      -2.747   2.089   0.000  0.00  0.00    +0.000 C 
ATOM     21  C   UNL     1      -1.412   1.119   0.000  0.00  0.00    +0.000 C 
ENDBRANCH  17  18
ENDBRANCH  15  17
ENDBRANCH  13  14
ENDBRANCH  12  13
TORSDOF 8
