MODEL 1
REMARK VINA RESULT:     -11.1      0.000      0.000
REMARK  Name = 
REMARK  4 active torsions:
REMARK  status: ('A' for Active; 'I' for Inactive)
REMARK    1  A    between atoms: O_2  and  C_3
REMARK    2  A    between atoms: C_6  and  C_7
REMARK    3  A    between atoms: C_7  and  N_8
REMARK    4  A    between atoms: N_14  and  C_17
REMARK                            x       y       z     vdW  Elec       q    Type
REMARK                         _______ _______ _______ _____ _____    ______ ____
ROOT
ATOM      8  N   UNL     1      -4.206   0.920  25.008  0.00  0.00    -0.266 NA
ATOM      9  C   UNL     1      -4.627   1.352  24.446  0.00  0.00    +0.094 C 
ATOM     10  C   UNL     1      -4.350   2.089  24.200  0.00  0.00    +0.112 C 
ATOM     11  N   UNL     1      -3.652   2.394  24.515  0.00  0.00    -0.261 N 
ATOM     12  C   UNL     1      -3.230   1.962  25.077  0.00  0.00    +0.113 C 
ATOM     13  C   UNL     1      -2.564   2.400  25.289  0.00  0.00    +0.121 C 
ATOM     14  N   UNL     1      -2.574   3.103  24.858  0.00  0.00    -0.241 N 
ATOM     15  C   UNL     1      -3.246   3.099  24.380  0.00  0.00    +0.311 C 
ATOM     16  O   UNL     1      -3.473   3.696  23.857  0.00  0.00    -0.252 OA
ATOM     23  C   UNL     1      -3.507   1.224  25.324  0.00  0.00    +0.094 C 
ENDROOT
BRANCH  14  17
ATOM     17  C   UNL     1      -2.011   3.704  24.898  0.00  0.00    +0.055 A 
ATOM     18  C   UNL     1      -1.263   3.592  24.566  0.00  0.00    +0.015 A 
ATOM     19  C   UNL     1      -0.699   4.193  24.606  0.00  0.00    +0.001 A 
ATOM     20  C   UNL     1      -0.884   4.907  24.977  0.00  0.00    +0.000 A 
ATOM     21  C   UNL     1      -1.630   5.019  25.308  0.00  0.00    +0.001 A 
ATOM     22  C   UNL     1      -2.194   4.418  25.268  0.00  0.00    +0.015 A 
ENDBRANCH  14  17
BRANCH   8   7
ATOM      7  C   UNL     1      -4.483   0.183  25.255  0.00  0.00    +0.101 C 
BRANCH   7   6
ATOM      3  C   UNL     1      -3.298  -1.877  24.564  0.00  0.00    +0.225 A 
ATOM      4  C   UNL     1      -3.828  -1.514  24.049  0.00  0.00    +0.057 A 
ATOM      5  C   UNL     1      -4.224  -0.828  24.278  0.00  0.00    +0.003 A 
ATOM      6  C   UNL     1      -4.088  -0.504  25.025  0.00  0.00    +0.013 A 
ATOM     24  C   UNL     1      -3.557  -0.867  25.542  0.00  0.00    +0.099 A 
ATOM     25  N   UNL     1      -3.162  -1.553  25.311  0.00  0.00    -0.210 NA
BRANCH   3   2
ATOM      1  C   UNL     1      -2.079  -2.600  24.377  0.00  0.00    +0.254 C 
ATOM      2  O   UNL     1      -2.902  -2.564  24.335  0.00  0.00    -0.456 OA
ENDBRANCH   3   2
ENDBRANCH   7   6
ENDBRANCH   8   7
TORSDOF 4
ENDMDL
MODEL 2
REMARK VINA RESULT:     -11.0      1.192      5.131
REMARK  Name = 
REMARK  4 active torsions:
REMARK  status: ('A' for Active; 'I' for Inactive)
REMARK    1  A    between atoms: O_2  and  C_3
REMARK    2  A    between atoms: C_6  and  C_7
REMARK    3  A    between atoms: C_7  and  N_8
REMARK    4  A    between atoms: N_14  and  C_17
REMARK                            x       y       z     vdW  Elec       q    Type
REMARK                         _______ _______ _______ _____ _____    ______ ____
ROOT
ATOM      8  N   UNL     1      -3.832   2.242  24.353  0.00  0.00    -0.266 NA
ATOM      9  C   UNL     1      -4.350   2.155  24.989  0.00  0.00    +0.094 C 
ATOM     10  C   UNL     1      -4.543   1.402  25.263  0.00  0.00    +0.112 C 
ATOM     11  N   UNL     1      -4.218   0.735  24.901  0.00  0.00    -0.261 N 
ATOM     12  C   UNL     1      -3.700   0.822  24.265  0.00  0.00    +0.113 C 
ATOM     13  C   UNL     1      -3.468   0.070  24.020  0.00  0.00    +0.121 C 
ATOM     14  N   UNL     1      -3.842  -0.483  24.504  0.00  0.00    -0.241 N 
ATOM     15  C   UNL     1      -4.306  -0.071  25.048  0.00  0.00    +0.311 C 
ATOM     16  O   UNL     1      -4.775  -0.408  25.638  0.00  0.00    -0.252 OA
ATOM     23  C   UNL     1      -3.506   1.576  23.991  0.00  0.00    +0.094 C 
ENDROOT
BRANCH  14  17
ATOM     17  C   UNL     1      -3.766  -1.303  24.454  0.00  0.00    +0.055 A 
ATOM     18  C   UNL     1      -4.226  -1.727  23.915  0.00  0.00    +0.015 A 
ATOM     19  C   UNL     1      -4.150  -2.547  23.864  0.00  0.00    +0.001 A 
ATOM     20  C   UNL     1      -3.614  -2.943  24.352  0.00  0.00    +0.000 A 
ATOM     21  C   UNL     1      -3.155  -2.519  24.889  0.00  0.00    +0.001 A 
ATOM     22  C   UNL     1      -3.231  -1.699  24.940  0.00  0.00    +0.015 A 
ENDBRANCH  14  17
BRANCH   8   7
ATOM      7  C   UNL     1      -3.638   2.997  24.079  0.00  0.00    +0.101 C 
BRANCH   7   6
ATOM      3  C   UNL     1      -1.694   4.196  25.032  0.00  0.00    +0.225 A 
ATOM      4  C   UNL     1      -2.454   4.359  25.306  0.00  0.00    +0.057 A 
ATOM      5  C   UNL     1      -3.103   3.960  24.989  0.00  0.00    +0.003 A 
ATOM      6  C   UNL     1      -2.990   3.397  24.397  0.00  0.00    +0.013 A 
ATOM     24  C   UNL     1      -2.229   3.232  24.122  0.00  0.00    +0.099 A 
ATOM     25  N   UNL     1      -1.582   3.632  24.440  0.00  0.00    -0.210 NA
BRANCH   3   2
ATOM      1  C   UNL     1      -0.695   5.213  24.930  0.00  0.00    +0.254 C 
ATOM      2  O   UNL     1      -1.045   4.595  25.349  0.00  0.00    -0.456 OA
ENDBRANCH   3   2
ENDBRANCH   7   6
ENDBRANCH   8   7
TORSDOF 4
ENDMDL
MODEL 3
REMARK VINA RESULT:     -10.9      1.774      2.194
REMARK  Name = 
REMARK  4 active torsions:
REMARK  status: ('A' for Active; 'I' for Inactive)
REMARK    1  A    between atoms: O_2  and  C_3
REMARK    2  A    between atoms: C_6  and  C_7
REMARK    3  A    between atoms: C_7  and  N_8
REMARK    4  A    between atoms: N_14  and  C_17
REMARK                            x       y       z     vdW  Elec       q    Type
REMARK                         _______ _______ _______ _____ _____    ______ ____
ROOT
ATOM      8  N   UNL     1      -1.058  -0.034  25.095  0.00  0.00    -0.266 NA
ATOM      9  C   UNL     1      -0.760   0.073  24.333  0.00  0.00    +0.094 C 
ATOM     10  C   UNL     1      -0.702   0.832  24.016  0.00  0.00    +0.112 C 
ATOM     11  N   UNL     1      -0.941   1.485  24.461  0.00  0.00    -0.261 N 
ATOM     12  C   UNL     1      -1.240   1.378  25.222  0.00  0.00    +0.113 C 
ATOM     13  C   UNL     1      -1.432   2.119  25.528  0.00  0.00    +0.121 C 
ATOM     14  N   UNL     1      -1.252   2.685  24.955  0.00  0.00    -0.241 N 
ATOM     15  C   UNL     1      -0.949   2.292  24.296  0.00  0.00    +0.311 C 
ATOM     16  O   UNL     1      -0.698   2.646  23.594  0.00  0.00    -0.252 OA
ATOM     23  C   UNL     1      -1.298   0.618  25.540  0.00  0.00    +0.094 C 
ENDROOT
BRANCH  14  17
ATOM     17  C   UNL     1      -1.357   3.500  25.029  0.00  0.00    +0.055 A 
ATOM     18  C   UNL     1      -0.707   4.006  24.978  0.00  0.00    +0.015 A 
ATOM     19  C   UNL     1      -0.812   4.821  25.052  0.00  0.00    +0.001 A 
ATOM     20  C   UNL     1      -1.567   5.130  25.176  0.00  0.00    +0.000 A 
ATOM     21  C   UNL     1      -2.216   4.624  25.227  0.00  0.00    +0.001 A 
ATOM     22  C   UNL     1      -2.111   3.809  25.153  0.00  0.00    +0.015 A 
ENDBRANCH  14  17
BRANCH   8   7
ATOM      7  C   UNL     1      -1.116  -0.794  25.412  0.00  0.00    +0.101 C 
BRANCH   7   6
ATOM      3  C   UNL     1      -2.961  -2.288  24.710  0.00  0.00    +0.225 A 
ATOM      4  C   UNL     1      -3.093  -1.712  25.286  0.00  0.00    +0.057 A 
ATOM      5  C   UNL     1      -2.478  -1.214  25.520  0.00  0.00    +0.003 A 
ATOM      6  C   UNL     1      -1.731  -1.292  25.178  0.00  0.00    +0.013 A 
ATOM     24  C   UNL     1      -1.599  -1.868  24.602  0.00  0.00    +0.099 A 
ATOM     25  N   UNL     1      -2.214  -2.365  24.368  0.00  0.00    -0.210 NA
BRANCH   3   2
ATOM      1  C   UNL     1      -4.167  -2.505  23.976  0.00  0.00    +0.254 C 
ATOM      2  O   UNL     1      -3.575  -2.786  24.476  0.00  0.00    -0.456 OA
ENDBRANCH   3   2
ENDBRANCH   7   6
ENDBRANCH   8   7
TORSDOF 4
ENDMDL
MODEL 4
REMARK VINA RESULT:     -10.7      1.763      5.471
REMARK  Name = 
REMARK  4 active torsions:
REMARK  status: ('A' for Active; 'I' for Inactive)
REMARK    1  A    between atoms: O_2  and  C_3
REMARK    2  A    between atoms: C_6  and  C_7
REMARK    3  A    between atoms: C_7  and  N_8
REMARK    4  A    between atoms: N_14  and  C_17
REMARK                            x       y       z     vdW  Elec       q    Type
REMARK                         _______ _______ _______ _____ _____    ______ ____
ROOT
ATOM      8  N   UNL     1      -0.773   1.206  25.454  0.00  0.00    -0.266 NA
ATOM      9  C   UNL     1      -0.257   0.839  24.925  0.00  0.00    +0.094 C 
ATOM     10  C   UNL     1      -0.489   0.150  24.536  0.00  0.00    +0.112 C 
ATOM     11  N   UNL     1      -1.235  -0.172  24.674  0.00  0.00    -0.261 N 
ATOM     12  C   UNL     1      -1.751   0.195  25.203  0.00  0.00    +0.113 C 
ATOM     13  C   UNL     1      -2.447  -0.246  25.229  0.00  0.00    +0.121 C 
ATOM     14  N   UNL     1      -2.362  -0.886  24.716  0.00  0.00    -0.241 N 
ATOM     15  C   UNL     1      -1.613  -0.840  24.374  0.00  0.00    +0.311 C 
ATOM     16  O   UNL     1      -1.297  -1.370  23.826  0.00  0.00    -0.252 OA
ATOM     23  C   UNL     1      -1.520   0.885  25.594  0.00  0.00    +0.094 C 
ENDROOT
BRANCH  14  17
ATOM     17  C   UNL     1      -2.927  -1.470  24.571  0.00  0.00    +0.055 A 
ATOM     18  C   UNL     1      -3.564  -1.312  24.071  0.00  0.00    +0.015 A 
ATOM     19  C   UNL     1      -4.129  -1.896  23.926  0.00  0.00    +0.001 A 
ATOM     20  C   UNL     1      -4.056  -2.637  24.282  0.00  0.00    +0.000 A 
ATOM     21  C   UNL     1      -3.420  -2.794  24.782  0.00  0.00    +0.001 A 
ATOM     22  C   UNL     1      -2.855  -2.211  24.927  0.00  0.00    +0.015 A 
ENDBRANCH  14  17
BRANCH   8   7
ATOM      7  C   UNL     1      -0.541   1.896  25.845  0.00  0.00    +0.101 C 
BRANCH   7   6
ATOM      3  C   UNL     1      -1.382   4.093  25.074  0.00  0.00    +0.225 A 
ATOM      4  C   UNL     1      -1.712   3.736  25.740  0.00  0.00    +0.057 A 
ATOM      5  C   UNL     1      -1.432   3.003  25.997  0.00  0.00    +0.003 A 
ATOM      6  C   UNL     1      -0.822   2.628  25.588  0.00  0.00    +0.013 A 
ATOM     24  C   UNL     1      -0.491   2.986  24.921  0.00  0.00    +0.099 A 
ATOM     25  N   UNL     1      -0.772   3.718  24.664  0.00  0.00    -0.210 NA
BRANCH   3   2
ATOM      1  C   UNL     1      -1.262   5.516  25.024  0.00  0.00    +0.254 C 
ATOM      2  O   UNL     1      -1.662   4.825  24.816  0.00  0.00    -0.456 OA
ENDBRANCH   3   2
ENDBRANCH   7   6
ENDBRANCH   8   7
TORSDOF 4
ENDMDL
MODEL 5
REMARK VINA RESULT:     -10.0      1.642      5.144
REMARK  Name = 
REMARK  4 active torsions:
REMARK  status: ('A' for Active; 'I' for Inactive)
REMARK    1  A    between atoms: O_2  and  C_3
REMARK    2  A    between atoms: C_6  and  C_7
REMARK    3  A    between atoms: C_7  and  N_8
REMARK    4  A    between atoms: N_14  and  C_17
REMARK                            x       y       z     vdW  Elec       q    Type
REMARK                         _______ _______ _______ _____ _____    ______ ____
ROOT
ATOM      8  N   UNL     1      -1.979   1.931  24.741  0.00  0.00    -0.266 NA
ATOM      9  C   UNL     1      -1.390   1.741  25.287  0.00  0.00    +0.094 C 
ATOM     10  C   UNL     1      -1.268   0.955  25.504  0.00  0.00    +0.112 C 
ATOM     11  N   UNL     1      -1.734   0.358  25.176  0.00  0.00    -0.261 N 
ATOM     12  C   UNL     1      -2.322   0.548  24.630  0.00  0.00    +0.113 C 
ATOM     13  C   UNL     1      -2.693  -0.152  24.401  0.00  0.00    +0.121 C 
ATOM     14  N   UNL     1      -2.334  -0.775  24.805  0.00  0.00    -0.241 N 
ATOM     15  C   UNL     1      -1.741  -0.459  25.284  0.00  0.00    +0.311 C 
ATOM     16  O   UNL     1      -1.242  -0.886  25.783  0.00  0.00    -0.252 OA
ATOM     23  C   UNL     1      -2.445   1.335  24.412  0.00  0.00    +0.094 C 
ENDROOT
BRANCH  14  17
ATOM     17  C   UNL     1      -2.532  -1.573  24.741  0.00  0.00    +0.055 A 
ATOM     18  C   UNL     1      -3.242  -1.849  25.058  0.00  0.00    +0.015 A 
ATOM     19  C   UNL     1      -3.441  -2.647  24.994  0.00  0.00    +0.001 A 
ATOM     20  C   UNL     1      -2.928  -3.170  24.613  0.00  0.00    +0.000 A 
ATOM     21  C   UNL     1      -2.219  -2.895  24.296  0.00  0.00    +0.001 A 
ATOM     22  C   UNL     1      -2.021  -2.096  24.360  0.00  0.00    +0.015 A 
ENDBRANCH  14  17
BRANCH   8   7
ATOM      7  C   UNL     1      -2.102   2.717  24.523  0.00  0.00    +0.101 C 
BRANCH   7   6
ATOM      3  C   UNL     1      -4.206   3.859  25.151  0.00  0.00    +0.225 A 
ATOM      4  C   UNL     1      -4.100   3.584  24.381  0.00  0.00    +0.057 A 
ATOM      5  C   UNL     1      -3.399   3.204  24.171  0.00  0.00    +0.003 A 
ATOM      6  C   UNL     1      -2.803   3.098  24.732  0.00  0.00    +0.013 A 
ATOM     24  C   UNL     1      -2.909   3.373  25.503  0.00  0.00    +0.099 A 
ATOM     25  N   UNL     1      -3.610   3.753  25.712  0.00  0.00    -0.210 NA
BRANCH   3   2
ATOM      1  C   UNL     1      -5.566   3.798  25.587  0.00  0.00    +0.254 C 
ATOM      2  O   UNL     1      -4.907   4.240  25.361  0.00  0.00    -0.456 OA
ENDBRANCH   3   2
ENDBRANCH   7   6
ENDBRANCH   8   7
TORSDOF 4
ENDMDL
