MODEL 1
REMARK VINA RESULT:     -11.2      0.000      0.000
REMARK  Name = 
REMARK  8 active torsions:
REMARK  status: ('A' for Active; 'I' for Inactive)
REMARK    1  A    between atoms: C_2  and  C_4
REMARK    2  A    between atoms: C_6  and  C_7
REMARK    3  A    between atoms: C_7  and  C_8
REMARK    4  A    between atoms: N_10  and  C_11
REMARK    5  A    between atoms: C_11  and  C_12
REMARK    6  A    between atoms: C_17  and  C_18
REMARK    7  A    between atoms: C_18  and  N_19
REMARK    8  A    between atoms: C_20  and  C_22
REMARK                            x       y       z     vdW  Elec       q    Type
REMARK                         _______ _______ _______ _____ _____    ______ ____
ROOT
ATOM      4  C   UNL     1      -2.904   2.048  24.780  0.00  0.00    +0.006 C 
ATOM      5  C   UNL     1      -2.253   2.517  24.971  0.00  0.00    +0.005 C 
ATOM      6  C   UNL     1      -1.541   2.164  25.192  0.00  0.00    +0.027 C 
ATOM     14  C   UNL     1      -1.480   1.342  25.222  0.00  0.00    -0.048 C 
ATOM     15  C   UNL     1      -0.767   0.989  25.443  0.00  0.00    +0.026 C 
ATOM     16  C   UNL     1      -2.131   0.873  25.032  0.00  0.00    -0.033 C 
ATOM     17  C   UNL     1      -2.844   1.226  24.811  0.00  0.00    +0.043 C 
ENDROOT
BRANCH   4   2
ATOM      1  C   UNL     1      -4.164   2.620  25.135  0.00  0.00    +0.000 C 
ATOM      2  C   UNL     1      -3.616   2.401  24.559  0.00  0.00    +0.000 C 
ATOM      3  C   UNL     1      -3.780   2.534  23.762  0.00  0.00    +0.000 C 
ENDBRANCH   4   2
BRANCH   6   7
ATOM      7  C   UNL     1      -0.889   2.633  25.382  0.00  0.00    +0.091 C 
BRANCH   7   8
ATOM      8  C   UNL     1      -0.719   3.305  24.935  0.00  0.00    +0.243 C 
ATOM      9  O   UNL     1      -0.402   3.226  24.178  0.00  0.00    -0.273 OA
ATOM     10  N   UNL     1      -0.864   4.055  25.245  0.00  0.00    -0.191 NA
BRANCH  10  11
ATOM     11  C   UNL     1      -0.694   4.727  24.799  0.00  0.00    +0.191 C 
BRANCH  11  12
ATOM     12  C   UNL     1      -1.144   5.412  24.893  0.00  0.00    -0.054 C 
ATOM     13  C   UNL     1      -1.595   6.096  24.986  0.00  0.00    -0.012 C 
ENDBRANCH  11  12
ENDBRANCH  10  11
ENDBRANCH   7   8
ENDBRANCH   6   7
BRANCH  17  18
ATOM     18  C   UNL     1      -3.494   0.756  24.620  0.00  0.00    +0.120 C 
BRANCH  18  19
ATOM     19  N   UNL     1      -3.402  -0.059  24.536  0.00  0.00    -0.201 NA
ATOM     20  C   UNL     1      -4.066  -0.551  24.533  0.00  0.00    +0.265 C 
ATOM     21  O   UNL     1      -4.820  -0.226  24.614  0.00  0.00    -0.268 OA
BRANCH  20  22
ATOM     22  C   UNL     1      -3.974  -1.367  24.448  0.00  0.00    +0.057 A 
ATOM     23  C   UNL     1      -4.202  -1.736  23.747  0.00  0.00    +0.005 A 
ATOM     24  C   UNL     1      -4.110  -2.552  23.663  0.00  0.00    +0.002 A 
ATOM     25  C   UNL     1      -3.792  -2.997  24.280  0.00  0.00    +0.030 A 
ATOM     26  C   UNL     1      -3.565  -2.627  24.981  0.00  0.00    +0.140 A 
ATOM     27  F   UNL     1      -3.246  -3.073  25.598  0.00  0.00    -0.204 F 
ATOM     28  C   UNL     1      -3.656  -1.812  25.066  0.00  0.00    +0.034 A 
ENDBRANCH  20  22
ENDBRANCH  18  19
ENDBRANCH  17  18
TORSDOF 8
ENDMDL
MODEL 2
REMARK VINA RESULT:     -10.8      1.394      2.002
REMARK  Name = 
REMARK  8 active torsions:
REMARK  status: ('A' for Active; 'I' for Inactive)
REMARK    1  A    between atoms: C_2  and  C_4
REMARK    2  A    between atoms: C_6  and  C_7
REMARK    3  A    between atoms: C_7  and  C_8
REMARK    4  A    between atoms: N_10  and  C_11
REMARK    5  A    between atoms: C_11  and  C_12
REMARK    6  A    between atoms: C_17  and  C_18
REMARK    7  A    between atoms: C_18  and  N_19
REMARK    8  A    between atoms: C_20  and  C_22
REMARK                            x       y       z     vdW  Elec       q    Type
REMARK                         _______ _______ _______ _____ _____    ______ ____
ROOT
ATOM      4  C   UNL     1      -3.118   2.020  23.783  0.00  0.00    +0.006 C 
ATOM      5  C   UNL     1      -3.163   2.776  24.111  0.00  0.00    +0.005 C 
ATOM      6  C   UNL     1      -3.732   2.944  24.683  0.00  0.00    +0.027 C 
ATOM     14  C   UNL     1      -4.256   2.357  24.929  0.00  0.00    -0.048 C 
ATOM     15  C   UNL     1      -4.826   2.525  25.502  0.00  0.00    +0.026 C 
ATOM     16  C   UNL     1      -4.212   1.601  24.602  0.00  0.00    -0.033 C 
ATOM     17  C   UNL     1      -3.643   1.433  24.028  0.00  0.00    +0.043 C 
ENDROOT
BRANCH   4   2
ATOM      1  C   UNL     1      -2.726   1.952  22.411  0.00  0.00    +0.000 C 
ATOM      2  C   UNL     1      -2.549   1.852  23.210  0.00  0.00    +0.000 C 
ATOM      3  C   UNL     1      -1.803   1.583  23.437  0.00  0.00    +0.000 C 
ENDBRANCH   4   2
BRANCH   6   7
ATOM      7  C   UNL     1      -3.777   3.700  25.012  0.00  0.00    +0.091 C 
BRANCH   7   8
ATOM      8  C   UNL     1      -3.137   4.007  25.430  0.00  0.00    +0.243 C 
ATOM      9  O   UNL     1      -3.001   3.771  26.209  0.00  0.00    -0.273 OA
ATOM     10  N   UNL     1      -2.631   4.552  25.071  0.00  0.00    -0.191 NA
BRANCH  10  11
ATOM     11  C   UNL     1      -1.991   4.859  25.490  0.00  0.00    +0.191 C 
BRANCH  11  12
ATOM     12  C   UNL     1      -1.332   5.146  25.085  0.00  0.00    -0.054 C 
ATOM     13  C   UNL     1      -0.673   5.435  24.681  0.00  0.00    -0.012 C 
ENDBRANCH  11  12
ENDBRANCH  10  11
ENDBRANCH   7   8
ENDBRANCH   6   7
BRANCH  17  18
ATOM     18  C   UNL     1      -3.599   0.677  23.701  0.00  0.00    +0.120 C 
BRANCH  18  19
ATOM     19  N   UNL     1      -3.500   0.021  24.192  0.00  0.00    -0.201 NA
ATOM     20  C   UNL     1      -3.754  -0.723  23.942  0.00  0.00    +0.265 C 
ATOM     21  O   UNL     1      -4.107  -0.811  23.201  0.00  0.00    -0.268 OA
BRANCH  20  22
ATOM     22  C   UNL     1      -3.656  -1.380  24.433  0.00  0.00    +0.057 A 
ATOM     23  C   UNL     1      -3.454  -1.274  25.226  0.00  0.00    +0.005 A 
ATOM     24  C   UNL     1      -3.355  -1.930  25.716  0.00  0.00    +0.002 A 
ATOM     25  C   UNL     1      -3.458  -2.691  25.413  0.00  0.00    +0.030 A 
ATOM     26  C   UNL     1      -3.660  -2.795  24.621  0.00  0.00    +0.140 A 
ATOM     27  F   UNL     1      -3.763  -3.556  24.319  0.00  0.00    -0.204 F 
ATOM     28  C   UNL     1      -3.759  -2.140  24.130  0.00  0.00    +0.034 A 
ENDBRANCH  20  22
ENDBRANCH  18  19
ENDBRANCH  17  18
TORSDOF 8
ENDMDL
MODEL 3
REMARK VINA RESULT:     -10.8      1.568      1.946
REMARK  Name = 
REMARK  8 active torsions:
REMARK  status: ('A' for Active; 'I' for Inactive)
REMARK    1  A    between atoms: C_2  and  C_4
REMARK    2  A    between atoms: C_6  and  C_7
REMARK    3  A    between atoms: C_7  and  C_8
REMARK    4  A    between atoms: N_10  and  C_11
REMARK    5  A    between atoms: C_11  and  C_12
REMARK    6  A    between atoms: C_17  and  C_18
REMARK    7  A    between atoms: C_18  and  N_19
REMARK    8  A    between atoms: C_20  and  C_22
REMARK                            x       y       z     vdW  Elec       q    Type
REMARK                         _______ _______ _______ _____ _____    ______ ____
ROOT
ATOM      4  C   UNL     1      -4.672   1.759  24.717  0.00  0.00    +0.006 C 
ATOM      5  C   UNL     1      -4.450   2.492  24.411  0.00  0.00    +0.005 C 
ATOM      6  C   UNL     1      -3.784   2.553  23.928  0.00  0.00    +0.027 C 
ATOM     14  C   UNL     1      -3.340   1.881  23.751  0.00  0.00    -0.048 C 
ATOM     15  C   UNL     1      -2.673   1.942  23.268  0.00  0.00    +0.026 C 
ATOM     16  C   UNL     1      -3.561   1.148  24.056  0.00  0.00    -0.033 C 
ATOM     17  C   UNL     1      -4.228   1.086  24.540  0.00  0.00    +0.043 C 
ENDROOT
BRANCH   4   2
ATOM      1  C   UNL     1      -6.075   1.541  24.867  0.00  0.00    +0.000 C 
ATOM      2  C   UNL     1      -5.338   1.697  25.200  0.00  0.00    +0.000 C 
ATOM      3  C   UNL     1      -5.265   1.793  26.016  0.00  0.00    +0.000 C 
ENDBRANCH   4   2
BRANCH   6   7
ATOM      7  C   UNL     1      -3.562   3.287  23.622  0.00  0.00    +0.091 C 
BRANCH   7   8
ATOM      8  C   UNL     1      -3.402   3.915  24.131  0.00  0.00    +0.243 C 
ATOM      9  O   UNL     1      -4.006   4.431  24.353  0.00  0.00    -0.273 OA
ATOM     10  N   UNL     1      -2.637   4.029  24.418  0.00  0.00    -0.191 NA
BRANCH  10  11
ATOM     11  C   UNL     1      -2.476   4.658  24.927  0.00  0.00    +0.191 C 
BRANCH  11  12
ATOM     12  C   UNL     1      -1.699   4.914  25.035  0.00  0.00    -0.054 C 
ATOM     13  C   UNL     1      -0.922   5.169  25.144  0.00  0.00    -0.012 C 
ENDBRANCH  11  12
ENDBRANCH  10  11
ENDBRANCH   7   8
ENDBRANCH   6   7
BRANCH  17  18
ATOM     18  C   UNL     1      -4.449   0.353  24.845  0.00  0.00    +0.120 C 
BRANCH  18  19
ATOM     19  N   UNL     1      -4.115  -0.337  24.541  0.00  0.00    -0.201 NA
ATOM     20  C   UNL     1      -3.974  -0.981  25.038  0.00  0.00    +0.265 C 
ATOM     21  O   UNL     1      -4.167  -0.934  25.839  0.00  0.00    -0.268 OA
BRANCH  20  22
ATOM     22  C   UNL     1      -3.639  -1.672  24.734  0.00  0.00    +0.057 A 
ATOM     23  C   UNL     1      -4.103  -2.197  24.299  0.00  0.00    +0.005 A 
ATOM     24  C   UNL     1      -3.769  -2.887  23.995  0.00  0.00    +0.002 A 
ATOM     25  C   UNL     1      -2.971  -3.052  24.126  0.00  0.00    +0.030 A 
ATOM     26  C   UNL     1      -2.508  -2.527  24.562  0.00  0.00    +0.140 A 
ATOM     27  F   UNL     1      -1.711  -2.691  24.693  0.00  0.00    -0.204 F 
ATOM     28  C   UNL     1      -2.842  -1.837  24.866  0.00  0.00    +0.034 A 
ENDBRANCH  20  22
ENDBRANCH  18  19
ENDBRANCH  17  18
TORSDOF 8
ENDMDL
MODEL 4
REMARK VINA RESULT:     -10.8      2.004      5.768
REMARK  Name = 
REMARK  8 active torsions:
REMARK  status: ('A' for Active; 'I' for Inactive)
REMARK    1  A    between atoms: C_2  and  C_4
REMARK    2  A    between atoms: C_6  and  C_7
REMARK    3  A    between atoms: C_7  and  C_8
REMARK    4  A    between atoms: N_10  and  C_11
REMARK    5  A    between atoms: C_11  and  C_12
REMARK    6  A    between atoms: C_17  and  C_18
REMARK    7  A    between atoms: C_18  and  N_19
REMARK    8  A    between atoms: C_20  and  C_22
REMARK                            x       y       z     vdW  Elec       q    Type
REMARK                         _______ _______ _______ _____ _____    ______ ____
ROOT
ATOM      4  C   UNL     1      -2.287   0.491  24.947  0.00  0.00    +0.006 C 
ATOM      5  C   UNL     1      -2.915  -0.001  24.737  0.00  0.00    +0.005 C 
ATOM      6  C   UNL     1      -3.672   0.312  24.645  0.00  0.00    +0.027 C 
ATOM     14  C   UNL     1      -3.802   1.118  24.763  0.00  0.00    -0.048 C 
ATOM     15  C   UNL     1      -4.561   1.432  24.671  0.00  0.00    +0.026 C 
ATOM     16  C   UNL     1      -3.176   1.611  24.974  0.00  0.00    -0.033 C 
ATOM     17  C   UNL     1      -2.417   1.297  25.066  0.00  0.00    +0.043 C 
ENDROOT
BRANCH   4   2
ATOM      1  C   UNL     1      -1.002   0.182  24.406  0.00  0.00    +0.000 C 
ATOM      2  C   UNL     1      -1.530   0.179  25.039  0.00  0.00    +0.000 C 
ATOM      3  C   UNL     1      -1.300  -0.139  25.766  0.00  0.00    +0.000 C 
ENDBRANCH   4   2
BRANCH   6   7
ATOM      7  C   UNL     1      -4.300  -0.180  24.434  0.00  0.00    +0.091 C 
BRANCH   7   8
ATOM      8  C   UNL     1      -4.160  -0.862  23.992  0.00  0.00    +0.243 C 
ATOM      9  O   UNL     1      -3.982  -0.804  23.189  0.00  0.00    -0.273 OA
ATOM     10  N   UNL     1      -4.197  -1.603  24.353  0.00  0.00    -0.191 NA
BRANCH  10  11
ATOM     11  C   UNL     1      -4.057  -2.285  23.912  0.00  0.00    +0.191 C 
BRANCH  11  12
ATOM     12  C   UNL     1      -3.710  -2.944  24.268  0.00  0.00    -0.054 C 
ATOM     13  C   UNL     1      -3.363  -3.602  24.623  0.00  0.00    -0.012 C 
ENDBRANCH  11  12
ENDBRANCH  10  11
ENDBRANCH   7   8
ENDBRANCH   6   7
BRANCH  17  18
ATOM     18  C   UNL     1      -1.791   1.790  25.277  0.00  0.00    +0.120 C 
BRANCH  18  19
ATOM     19  N   UNL     1      -1.829   2.598  25.112  0.00  0.00    -0.201 NA
ATOM     20  C   UNL     1      -1.359   3.128  25.537  0.00  0.00    +0.265 C 
ATOM     21  O   UNL     1      -0.852   2.850  26.125  0.00  0.00    -0.268 OA
BRANCH  20  22
ATOM     22  C   UNL     1      -1.398   3.936  25.372  0.00  0.00    +0.057 A 
ATOM     23  C   UNL     1      -2.048   4.377  25.622  0.00  0.00    +0.005 A 
ATOM     24  C   UNL     1      -2.086   5.184  25.457  0.00  0.00    +0.002 A 
ATOM     25  C   UNL     1      -1.474   5.550  25.043  0.00  0.00    +0.030 A 
ATOM     26  C   UNL     1      -0.824   5.109  24.794  0.00  0.00    +0.140 A 
ATOM     27  F   UNL     1      -0.211   5.475  24.379  0.00  0.00    -0.204 F 
ATOM     28  C   UNL     1      -0.785   4.302  24.958  0.00  0.00    +0.034 A 
ENDBRANCH  20  22
ENDBRANCH  18  19
ENDBRANCH  17  18
TORSDOF 8
ENDMDL
MODEL 5
REMARK VINA RESULT:     -10.2      1.998      5.502
REMARK  Name = 
REMARK  8 active torsions:
REMARK  status: ('A' for Active; 'I' for Inactive)
REMARK    1  A    between atoms: C_2  and  C_4
REMARK    2  A    between atoms: C_6  and  C_7
REMARK    3  A    between atoms: C_7  and  C_8
REMARK    4  A    between atoms: N_10  and  C_11
REMARK    5  A    between atoms: C_11  and  C_12
REMARK    6  A    between atoms: C_17  and  C_18
REMARK    7  A    between atoms: C_18  and  N_19
REMARK    8  A    between atoms: C_20  and  C_22
REMARK                            x       y       z     vdW  Elec       q    Type
REMARK                         _______ _______ _______ _____ _____    ______ ____
ROOT
ATOM      4  C   UNL     1      -4.368   1.480  24.715  0.00  0.00    +0.006 C 
ATOM      5  C   UNL     1      -4.405   0.752  24.328  0.00  0.00    +0.005 C 
ATOM      6  C   UNL     1      -3.736   0.448  23.955  0.00  0.00    +0.027 C 
ATOM     14  C   UNL     1      -3.028   0.872  23.968  0.00  0.00    -0.048 C 
ATOM     15  C   UNL     1      -2.357   0.568  23.594  0.00  0.00    +0.026 C 
ATOM     16  C   UNL     1      -2.990   1.600  24.354  0.00  0.00    -0.033 C 
ATOM     17  C   UNL     1      -3.661   1.904  24.728  0.00  0.00    +0.043 C 
ENDROOT
BRANCH   4   2
ATOM      1  C   UNL     1      -5.539   2.296  24.682  0.00  0.00    +0.000 C 
ATOM      2  C   UNL     1      -5.038   1.783  25.088  0.00  0.00    +0.000 C 
ATOM      3  C   UNL     1      -5.206   1.574  25.868  0.00  0.00    +0.000 C 
ENDBRANCH   4   2
BRANCH   6   7
ATOM      7  C   UNL     1      -3.772  -0.280  23.569  0.00  0.00    +0.091 C 
BRANCH   7   8
ATOM      8  C   UNL     1      -4.083  -0.938  23.956  0.00  0.00    +0.243 C 
ATOM      9  O   UNL     1      -4.900  -1.041  24.004  0.00  0.00    -0.273 OA
ATOM     10  N   UNL     1      -3.577  -1.494  24.297  0.00  0.00    -0.191 NA
BRANCH  10  11
ATOM     11  C   UNL     1      -3.888  -2.152  24.684  0.00  0.00    +0.191 C 
BRANCH  11  12
ATOM     12  C   UNL     1      -3.383  -2.704  25.033  0.00  0.00    -0.054 C 
ATOM     13  C   UNL     1      -2.876  -3.254  25.382  0.00  0.00    -0.012 C 
ENDBRANCH  11  12
ENDBRANCH  10  11
ENDBRANCH   7   8
ENDBRANCH   6   7
BRANCH  17  18
ATOM     18  C   UNL     1      -3.623   2.632  25.114  0.00  0.00    +0.120 C 
BRANCH  18  19
ATOM     19  N   UNL     1      -2.999   3.149  24.957  0.00  0.00    -0.201 NA
ATOM     20  C   UNL     1      -2.818   3.750  25.492  0.00  0.00    +0.265 C 
ATOM     21  O   UNL     1      -3.260   3.835  26.184  0.00  0.00    -0.268 OA
BRANCH  20  22
ATOM     22  C   UNL     1      -2.194   4.268  25.336  0.00  0.00    +0.057 A 
ATOM     23  C   UNL     1      -2.343   5.071  25.226  0.00  0.00    +0.005 A 
ATOM     24  C   UNL     1      -1.719   5.588  25.069  0.00  0.00    +0.002 A 
ATOM     25  C   UNL     1      -0.947   5.301  25.024  0.00  0.00    +0.030 A 
ATOM     26  C   UNL     1      -0.798   4.497  25.134  0.00  0.00    +0.140 A 
ATOM     27  F   UNL     1      -0.026   4.210  25.088  0.00  0.00    -0.204 F 
ATOM     28  C   UNL     1      -1.421   3.981  25.290  0.00  0.00    +0.034 A 
ENDBRANCH  20  22
ENDBRANCH  18  19
ENDBRANCH  17  18
TORSDOF 8
ENDMDL
MODEL 6
REMARK VINA RESULT:      -9.8      2.540      4.350
REMARK  Name = 
REMARK  8 active torsions:
REMARK  status: ('A' for Active; 'I' for Inactive)
REMARK    1  A    between atoms: C_2  and  C_4
REMARK    2  A    between atoms: C_6  and  C_7
REMARK    3  A    between atoms: C_7  and  C_8
REMARK    4  A    between atoms: N_10  and  C_11
REMARK    5  A    between atoms: C_11  and  C_12
REMARK    6  A    between atoms: C_17  and  C_18
REMARK    7  A    between atoms: C_18  and  N_19
REMARK    8  A    between atoms: C_20  and  C_22
REMARK                            x       y       z     vdW  Elec       q    Type
REMARK                         _______ _______ _______ _____ _____    ______ ____
ROOT
ATOM      4  C   UNL     1      -2.865  -0.694  24.751  0.00  0.00    +0.006 C 
ATOM      5  C   UNL     1      -2.072  -0.919  24.784  0.00  0.00    +0.005 C 
ATOM      6  C   UNL     1      -1.497  -0.374  25.011  0.00  0.00    +0.027 C 
ATOM     14  C   UNL     1      -1.714   0.398  25.204  0.00  0.00    -0.048 C 
ATOM     15  C   UNL     1      -1.138   0.945  25.431  0.00  0.00    +0.026 C 
ATOM     16  C   UNL     1      -2.506   0.625  25.171  0.00  0.00    -0.033 C 
ATOM     17  C   UNL     1      -3.082   0.078  24.944  0.00  0.00    +0.043 C 
ENDROOT
BRANCH   4   2
ATOM      1  C   UNL     1      -3.695  -1.268  23.741  0.00  0.00    +0.000 C 
ATOM      2  C   UNL     1      -3.440  -1.239  24.524  0.00  0.00    +0.000 C 
ATOM      3  C   UNL     1      -3.760  -1.756  25.082  0.00  0.00    +0.000 C 
ENDBRANCH   4   2
BRANCH   6   7
ATOM      7  C   UNL     1      -0.703  -0.599  25.045  0.00  0.00    +0.091 C 
BRANCH   7   8
ATOM      8  C   UNL     1      -0.327  -0.888  24.371  0.00  0.00    +0.243 C 
ATOM      9  O   UNL     1      -0.439  -1.672  24.140  0.00  0.00    -0.273 OA
ATOM     10  N   UNL     1       0.161  -0.394  23.926  0.00  0.00    -0.191 NA
BRANCH  10  11
ATOM     11  C   UNL     1       0.537  -0.683  23.251  0.00  0.00    +0.191 C 
BRANCH  11  12
ATOM     12  C   UNL     1       1.158  -0.259  22.911  0.00  0.00    -0.054 C 
ATOM     13  C   UNL     1       1.779   0.164  22.570  0.00  0.00    -0.012 C 
ENDBRANCH  11  12
ENDBRANCH  10  11
ENDBRANCH   7   8
ENDBRANCH   6   7
BRANCH  17  18
ATOM     18  C   UNL     1      -3.874   0.305  24.910  0.00  0.00    +0.120 C 
BRANCH  18  19
ATOM     19  N   UNL     1      -4.091   1.074  25.116  0.00  0.00    -0.201 NA
ATOM     20  C   UNL     1      -4.861   1.336  24.975  0.00  0.00    +0.265 C 
ATOM     21  O   UNL     1      -5.413   0.830  24.628  0.00  0.00    -0.268 OA
BRANCH  20  22
ATOM     22  C   UNL     1      -5.079   2.106  25.181  0.00  0.00    +0.057 A 
ATOM     23  C   UNL     1      -5.680   2.230  25.732  0.00  0.00    +0.005 A 
ATOM     24  C   UNL     1      -5.897   2.999  25.937  0.00  0.00    +0.002 A 
ATOM     25  C   UNL     1      -5.514   3.643  25.592  0.00  0.00    +0.030 A 
ATOM     26  C   UNL     1      -4.913   3.517  25.041  0.00  0.00    +0.140 A 
ATOM     27  F   UNL     1      -4.530   4.161  24.696  0.00  0.00    -0.204 F 
ATOM     28  C   UNL     1      -4.696   2.749  24.836  0.00  0.00    +0.034 A 
ENDBRANCH  20  22
ENDBRANCH  18  19
ENDBRANCH  17  18
TORSDOF 8
ENDMDL
