MODEL 1
REMARK VINA RESULT:     -12.9      0.000      0.000
REMARK  Name = 
REMARK  4 active torsions:
REMARK  status: ('A' for Active; 'I' for Inactive)
REMARK    1  A    between atoms: O_2  and  C_3
REMARK    2  A    between atoms: C_6  and  C_7
REMARK    3  A    between atoms: C_7  and  N_8
REMARK    4  A    between atoms: C_15  and  C_22
REMARK                            x       y       z     vdW  Elec       q    Type
REMARK                         _______ _______ _______ _____ _____    ______ ____
ROOT
ATOM      8  N   UNL     1      -3.584   1.484  24.506  0.00  0.00    -0.269 NA
ATOM      9  C   UNL     1      -4.248   1.921  24.248  0.00  0.00    +0.074 C 
ATOM     10  C   UNL     1      -3.896   2.838  24.359  0.00  0.00    +0.039 C 
ATOM     11  C   UNL     1      -3.759   3.640  24.393  0.00  0.00    +0.011 C 
ATOM     12  C   UNL     1      -3.411   3.048  24.537  0.00  0.00    +0.055 C 
ATOM     13  C   UNL     1      -3.765   2.168  24.423  0.00  0.00    +0.078 C 
ATOM     14  C   UNL     1      -2.601   2.745  24.847  0.00  0.00    +0.041 A 
ATOM     15  C   UNL     1      -1.872   3.025  25.115  0.00  0.00    +0.018 A 
ATOM     16  C   UNL     1      -1.286   2.493  25.346  0.00  0.00    +0.006 A 
ATOM     17  C   UNL     1      -1.429   1.681  25.311  0.00  0.00    +0.061 A 
ATOM     18  C   UNL     1      -2.157   1.401  25.044  0.00  0.00    +0.261 A 
ATOM     19  O   UNL     1      -2.299   0.589  25.009  0.00  0.00    -0.267 OA
ATOM     20  N   UNL     1      -2.743   1.933  24.812  0.00  0.00    -0.299 N 
ATOM     21  C   UNL     1      -3.053   2.513  24.683  0.00  0.00    +0.110 C 
ENDROOT
BRANCH  15  22
ATOM     22  C   UNL     1      -1.730   3.837  25.150  0.00  0.00    +0.031 A 
ATOM     23  C   UNL     1      -2.054   4.363  25.697  0.00  0.00    +0.007 A 
ATOM     24  C   UNL     1      -1.763   5.116  25.530  0.00  0.00    +0.007 A 
ATOM     25  C   UNL     1      -1.259   5.056  24.879  0.00  0.00    +0.035 A 
ATOM     26  S   UNL     1      -1.239   4.266  24.644  0.00  0.00    -0.086 S 
ENDBRANCH  15  22
BRANCH   8   7
ATOM      7  C   UNL     1      -3.121   0.828  24.695  0.00  0.00    +0.099 C 
BRANCH   7   6
ATOM      3  C   UNL     1      -4.003  -1.455  24.332  0.00  0.00    +0.139 A 
ATOM      4  C   UNL     1      -3.965  -1.145  25.094  0.00  0.00    +0.037 A 
ATOM      5  C   UNL     1      -3.671  -0.383  25.216  0.00  0.00    +0.000 A 
ATOM      6  C   UNL     1      -3.415   0.067  24.574  0.00  0.00    -0.006 A 
ATOM     27  C   UNL     1      -3.453  -0.244  23.811  0.00  0.00    +0.000 A 
ATOM     28  C   UNL     1      -3.748  -1.005  23.689  0.00  0.00    +0.037 A 
BRANCH   3   2
ATOM      1  C   UNL     1      -3.800  -2.870  24.291  0.00  0.00    +0.252 C 
ATOM      2  O   UNL     1      -4.298  -2.217  24.210  0.00  0.00    -0.471 OA
ENDBRANCH   3   2
ENDBRANCH   7   6
ENDBRANCH   8   7
TORSDOF 4
ENDMDL
MODEL 2
REMARK VINA RESULT:     -12.9      1.816      4.649
REMARK  Name = 
REMARK  4 active torsions:
REMARK  status: ('A' for Active; 'I' for Inactive)
REMARK    1  A    between atoms: O_2  and  C_3
REMARK    2  A    between atoms: C_6  and  C_7
REMARK    3  A    between atoms: C_7  and  N_8
REMARK    4  A    between atoms: C_15  and  C_22
REMARK                            x       y       z     vdW  Elec       q    Type
REMARK                         _______ _______ _______ _____ _____    ______ ____
ROOT
ATOM      8  N   UNL     1      -2.521   1.440  24.582  0.00  0.00    -0.269 NA
ATOM      9  C   UNL     1      -3.212   1.546  24.126  0.00  0.00    +0.074 C 
ATOM     10  C   UNL     1      -3.532   0.612  24.091  0.00  0.00    +0.039 C 
ATOM     11  C   UNL     1      -3.923  -0.093  23.970  0.00  0.00    +0.011 C 
ATOM     12  C   UNL     1      -3.343   0.129  24.297  0.00  0.00    +0.055 C 
ATOM     13  C   UNL     1      -3.047   1.037  24.322  0.00  0.00    +0.078 C 
ATOM     14  C   UNL     1      -2.636  -0.176  24.799  0.00  0.00    +0.041 A 
ATOM     15  C   UNL     1      -2.331  -0.873  25.117  0.00  0.00    +0.018 A 
ATOM     16  C   UNL     1      -1.633  -0.855  25.556  0.00  0.00    +0.006 A 
ATOM     17  C   UNL     1      -1.240  -0.139  25.676  0.00  0.00    +0.061 A 
ATOM     18  C   UNL     1      -1.545   0.558  25.358  0.00  0.00    +0.261 A 
ATOM     19  O   UNL     1      -1.152   1.273  25.478  0.00  0.00    -0.267 OA
ATOM     20  N   UNL     1      -2.243   0.539  24.919  0.00  0.00    -0.299 N 
ATOM     21  C   UNL     1      -2.791   0.302  24.616  0.00  0.00    +0.110 C 
ENDROOT
BRANCH  15  22
ATOM     22  C   UNL     1      -2.724  -1.589  24.997  0.00  0.00    +0.031 A 
ATOM     23  C   UNL     1      -3.361  -1.872  25.437  0.00  0.00    +0.007 A 
ATOM     24  C   UNL     1      -3.580  -2.604  25.128  0.00  0.00    +0.007 A 
ATOM     25  C   UNL     1      -3.077  -2.774  24.496  0.00  0.00    +0.035 A 
ATOM     26  S   UNL     1      -2.549  -2.147  24.415  0.00  0.00    -0.086 S 
ENDBRANCH  15  22
BRANCH   8   7
ATOM      7  C   UNL     1      -1.828   1.635  24.986  0.00  0.00    +0.099 C 
BRANCH   7   6
ATOM      3  C   UNL     1      -1.044   3.982  25.037  0.00  0.00    +0.139 A 
ATOM      4  C   UNL     1      -0.748   3.461  24.470  0.00  0.00    +0.037 A 
ATOM      5  C   UNL     1      -1.009   2.678  24.453  0.00  0.00    +0.000 A 
ATOM      6  C   UNL     1      -1.567   2.417  25.003  0.00  0.00    -0.006 A 
ATOM     27  C   UNL     1      -1.862   2.939  25.570  0.00  0.00    +0.000 A 
ATOM     28  C   UNL     1      -1.600   3.721  25.587  0.00  0.00    +0.037 A 
BRANCH   3   2
ATOM      1  C   UNL     1      -1.328   5.383  25.035  0.00  0.00    +0.252 C 
ATOM      2  O   UNL     1      -0.782   4.765  25.054  0.00  0.00    -0.471 OA
ENDBRANCH   3   2
ENDBRANCH   7   6
ENDBRANCH   8   7
TORSDOF 4
ENDMDL
