MODEL 1
REMARK VINA RESULT:     -10.5      0.000      0.000
REMARK  Name = 
REMARK  8 active torsions:
REMARK  status: ('A' for Active; 'I' for Inactive)
REMARK    1  A    between atoms: C_2  and  C_4
REMARK    2  A    between atoms: C_6  and  C_7
REMARK    3  A    between atoms: C_7  and  C_8
REMARK    4  A    between atoms: N_10  and  C_12
REMARK    5  A    between atoms: C_12  and  C_13
REMARK    6  A    between atoms: C_22  and  C_23
REMARK    7  A    between atoms: C_23  and  N_24
REMARK    8  A    between atoms: C_25  and  C_27
REMARK                            x       y       z     vdW  Elec       q    Type
REMARK                         _______ _______ _______ _____ _____    ______ ____
ROOT
ATOM      4  C   UNL     1      -2.006   1.557  24.667  0.00  0.00    +0.006 C 
ATOM      5  C   UNL     1      -2.630   1.056  24.461  0.00  0.00    +0.005 C 
ATOM      6  C   UNL     1      -3.383   1.367  24.332  0.00  0.00    +0.027 C 
ATOM     19  C   UNL     1      -3.513   2.178  24.410  0.00  0.00    -0.048 C 
ATOM     20  C   UNL     1      -4.266   2.489  24.282  0.00  0.00    +0.026 C 
ATOM     21  C   UNL     1      -2.891   2.678  24.616  0.00  0.00    -0.033 C 
ATOM     22  C   UNL     1      -2.137   2.368  24.745  0.00  0.00    +0.043 C 
ENDROOT
BRANCH   4   2
ATOM      1  C   UNL     1      -0.736   1.145  24.160  0.00  0.00    +0.000 C 
ATOM      2  C   UNL     1      -1.253   1.245  24.795  0.00  0.00    +0.000 C 
ATOM      3  C   UNL     1      -1.018   1.034  25.556  0.00  0.00    +0.000 C 
ENDBRANCH   4   2
BRANCH   6   7
ATOM      7  C   UNL     1      -4.005   0.867  24.127  0.00  0.00    +0.089 C 
BRANCH   7   8
ATOM      8  C   UNL     1      -4.185   0.215  24.601  0.00  0.00    +0.226 C 
ATOM      9  O   UNL     1      -4.327   0.318  25.407  0.00  0.00    -0.275 OA
ATOM     10  N   UNL     1      -4.221  -0.540  24.268  0.00  0.00    -0.274 N 
ATOM     11  C   UNL     1      -4.079  -0.643  23.463  0.00  0.00    +0.115 C 
BRANCH  10  12
ATOM     12  C   UNL     1      -4.400  -1.190  24.743  0.00  0.00    +0.120 C 
BRANCH  12  13
ATOM     13  C   UNL     1      -3.989  -1.898  24.642  0.00  0.00    -0.002 A 
ATOM     14  C   UNL     1      -4.166  -2.391  24.005  0.00  0.00    -0.003 A 
ATOM     15  C   UNL     1      -3.755  -3.099  23.904  0.00  0.00    -0.000 A 
ATOM     16  C   UNL     1      -3.167  -3.314  24.441  0.00  0.00    -0.000 A 
ATOM     17  C   UNL     1      -2.990  -2.822  25.078  0.00  0.00    -0.000 A 
ATOM     18  C   UNL     1      -3.401  -2.114  25.179  0.00  0.00    -0.003 A 
ENDBRANCH  12  13
ENDBRANCH  10  12
ENDBRANCH   7   8
ENDBRANCH   6   7
BRANCH  22  23
ATOM     23  C   UNL     1      -1.514   2.867  24.951  0.00  0.00    +0.119 C 
BRANCH  23  24
ATOM     24  N   UNL     1      -1.567   3.677  24.800  0.00  0.00    -0.205 NA
ATOM     25  C   UNL     1      -1.015   4.194  25.127  0.00  0.00    +0.241 C 
ATOM     26  O   UNL     1      -0.408   3.902  25.605  0.00  0.00    -0.273 OA
BRANCH  25  27
ATOM     27  C   UNL     1      -1.067   5.004  24.977  0.00  0.00    +0.078 C 
ATOM     28  C   UNL     1      -0.763   5.688  24.630  0.00  0.00    +0.010 C 
ATOM     29  C   UNL     1      -1.463   5.722  25.065  0.00  0.00    +0.010 C 
ENDBRANCH  25  27
ENDBRANCH  23  24
ENDBRANCH  22  23
TORSDOF 8
ENDMDL
MODEL 2
REMARK VINA RESULT:     -10.5      1.047      5.788
REMARK  Name = 
REMARK  8 active torsions:
REMARK  status: ('A' for Active; 'I' for Inactive)
REMARK    1  A    between atoms: C_2  and  C_4
REMARK    2  A    between atoms: C_6  and  C_7
REMARK    3  A    between atoms: C_7  and  C_8
REMARK    4  A    between atoms: N_10  and  C_12
REMARK    5  A    between atoms: C_12  and  C_13
REMARK    6  A    between atoms: C_22  and  C_23
REMARK    7  A    between atoms: C_23  and  N_24
REMARK    8  A    between atoms: C_25  and  C_27
REMARK                            x       y       z     vdW  Elec       q    Type
REMARK                         _______ _______ _______ _____ _____    ______ ____
ROOT
ATOM      4  C   UNL     1      -2.752   0.781  24.422  0.00  0.00    +0.006 C 
ATOM      5  C   UNL     1      -2.090   1.270  24.498  0.00  0.00    +0.005 C 
ATOM      6  C   UNL     1      -1.340   0.937  24.578  0.00  0.00    +0.027 C 
ATOM     19  C   UNL     1      -1.250   0.116  24.581  0.00  0.00    -0.048 C 
ATOM     20  C   UNL     1      -0.500  -0.216  24.661  0.00  0.00    +0.026 C 
ATOM     21  C   UNL     1      -1.911  -0.371  24.504  0.00  0.00    -0.033 C 
ATOM     22  C   UNL     1      -2.662  -0.039  24.425  0.00  0.00    +0.043 C 
ENDROOT
BRANCH   4   2
ATOM      1  C   UNL     1      -3.754   1.393  23.606  0.00  0.00    +0.000 C 
ATOM      2  C   UNL     1      -3.502   1.115  24.342  0.00  0.00    +0.000 C 
ATOM      3  C   UNL     1      -4.000   1.170  24.996  0.00  0.00    +0.000 C 
ENDBRANCH   4   2
BRANCH   6   7
ATOM      7  C   UNL     1      -0.679   1.425  24.654  0.00  0.00    +0.089 C 
BRANCH   7   8
ATOM      8  C   UNL     1      -0.682   2.039  25.206  0.00  0.00    +0.226 C 
ATOM      9  O   UNL     1      -0.860   1.883  25.996  0.00  0.00    -0.275 OA
ATOM     10  N   UNL     1      -0.508   2.810  24.966  0.00  0.00    -0.274 N 
ATOM     11  C   UNL     1      -0.331   2.965  24.177  0.00  0.00    +0.115 C 
BRANCH  10  12
ATOM     12  C   UNL     1      -0.511   3.423  25.518  0.00  0.00    +0.120 C 
BRANCH  12  13
ATOM     13  C   UNL     1      -0.908   4.126  25.348  0.00  0.00    -0.002 A 
ATOM     14  C   UNL     1      -0.532   4.718  24.916  0.00  0.00    -0.003 A 
ATOM     15  C   UNL     1      -0.929   5.422  24.747  0.00  0.00    -0.000 A 
ATOM     16  C   UNL     1      -1.702   5.532  25.011  0.00  0.00    -0.000 A 
ATOM     17  C   UNL     1      -2.079   4.940  25.444  0.00  0.00    -0.000 A 
ATOM     18  C   UNL     1      -1.682   4.236  25.613  0.00  0.00    -0.003 A 
ENDBRANCH  12  13
ENDBRANCH  10  12
ENDBRANCH   7   8
ENDBRANCH   6   7
BRANCH  22  23
ATOM     23  C   UNL     1      -3.323  -0.526  24.348  0.00  0.00    +0.119 C 
BRANCH  23  24
ATOM     24  N   UNL     1      -3.245  -1.343  24.426  0.00  0.00    -0.205 NA
ATOM     25  C   UNL     1      -3.871  -1.839  24.222  0.00  0.00    +0.241 C 
ATOM     26  O   UNL     1      -4.576  -1.518  23.940  0.00  0.00    -0.273 OA
BRANCH  25  27
ATOM     27  C   UNL     1      -3.793  -2.657  24.301  0.00  0.00    +0.078 C 
ATOM     28  C   UNL     1      -3.937  -3.419  24.020  0.00  0.00    +0.010 C 
ATOM     29  C   UNL     1      -3.513  -3.310  24.718  0.00  0.00    +0.010 C 
ENDBRANCH  25  27
ENDBRANCH  23  24
ENDBRANCH  22  23
TORSDOF 8
ENDMDL
MODEL 3
REMARK VINA RESULT:     -10.5      1.204      5.505
REMARK  Name = 
REMARK  8 active torsions:
REMARK  status: ('A' for Active; 'I' for Inactive)
REMARK    1  A    between atoms: C_2  and  C_4
REMARK    2  A    between atoms: C_6  and  C_7
REMARK    3  A    between atoms: C_7  and  C_8
REMARK    4  A    between atoms: N_10  and  C_12
REMARK    5  A    between atoms: C_12  and  C_13
REMARK    6  A    between atoms: C_22  and  C_23
REMARK    7  A    between atoms: C_23  and  N_24
REMARK    8  A    between atoms: C_25  and  C_27
REMARK                            x       y       z     vdW  Elec       q    Type
REMARK                         _______ _______ _______ _____ _____    ______ ____
ROOT
ATOM      4  C   UNL     1      -2.766   0.621  24.906  0.00  0.00    +0.006 C 
ATOM      5  C   UNL     1      -2.945   1.427  24.870  0.00  0.00    +0.005 C 
ATOM      6  C   UNL     1      -3.732   1.673  24.856  0.00  0.00    +0.027 C 
ATOM     19  C   UNL     1      -4.340   1.116  24.878  0.00  0.00    -0.048 C 
ATOM     20  C   UNL     1      -5.126   1.364  24.864  0.00  0.00    +0.026 C 
ATOM     21  C   UNL     1      -4.161   0.312  24.913  0.00  0.00    -0.033 C 
ATOM     22  C   UNL     1      -3.374   0.064  24.927  0.00  0.00    +0.043 C 
ENDROOT
BRANCH   4   2
ATOM      1  C   UNL     1      -1.621   0.181  25.638  0.00  0.00    +0.000 C 
ATOM      2  C   UNL     1      -1.979   0.374  24.919  0.00  0.00    +0.000 C 
ATOM      3  C   UNL     1      -1.552   0.320  24.217  0.00  0.00    +0.000 C 
ENDBRANCH   4   2
BRANCH   6   7
ATOM      7  C   UNL     1      -3.910   2.478  24.821  0.00  0.00    +0.089 C 
BRANCH   7   8
ATOM      8  C   UNL     1      -3.528   3.007  25.326  0.00  0.00    +0.226 C 
ATOM      9  O   UNL     1      -3.509   2.863  26.138  0.00  0.00    -0.275 OA
ATOM     10  N   UNL     1      -3.164   3.682  25.018  0.00  0.00    -0.274 N 
ATOM     11  C   UNL     1      -3.183   3.827  24.207  0.00  0.00    +0.115 C 
BRANCH  10  12
ATOM     12  C   UNL     1      -2.782   4.211  25.523  0.00  0.00    +0.120 C 
BRANCH  12  13
ATOM     13  C   UNL     1      -2.056   4.535  25.306  0.00  0.00    -0.002 A 
ATOM     14  C   UNL     1      -1.377   4.068  25.312  0.00  0.00    -0.003 A 
ATOM     15  C   UNL     1      -0.650   4.393  25.095  0.00  0.00    -0.000 A 
ATOM     16  C   UNL     1      -0.603   5.185  24.871  0.00  0.00    -0.000 A 
ATOM     17  C   UNL     1      -1.282   5.653  24.866  0.00  0.00    -0.000 A 
ATOM     18  C   UNL     1      -2.009   5.328  25.083  0.00  0.00    -0.003 A 
ENDBRANCH  12  13
ENDBRANCH  10  12
ENDBRANCH   7   8
ENDBRANCH   6   7
BRANCH  22  23
ATOM     23  C   UNL     1      -3.196  -0.740  24.963  0.00  0.00    +0.119 C 
BRANCH  23  24
ATOM     24  N   UNL     1      -3.582  -1.272  24.464  0.00  0.00    -0.205 NA
ATOM     25  C   UNL     1      -3.594  -2.075  24.647  0.00  0.00    +0.241 C 
ATOM     26  O   UNL     1      -3.219  -2.349  25.329  0.00  0.00    -0.273 OA
BRANCH  25  27
ATOM     27  C   UNL     1      -3.980  -2.607  24.148  0.00  0.00    +0.078 C 
ATOM     28  C   UNL     1      -4.112  -3.380  23.891  0.00  0.00    +0.010 C 
ATOM     29  C   UNL     1      -4.518  -2.754  23.541  0.00  0.00    +0.010 C 
ENDBRANCH  25  27
ENDBRANCH  23  24
ENDBRANCH  22  23
TORSDOF 8
ENDMDL
MODEL 4
REMARK VINA RESULT:     -10.3      1.041      1.969
REMARK  Name = 
REMARK  8 active torsions:
REMARK  status: ('A' for Active; 'I' for Inactive)
REMARK    1  A    between atoms: C_2  and  C_4
REMARK    2  A    between atoms: C_6  and  C_7
REMARK    3  A    between atoms: C_7  and  C_8
REMARK    4  A    between atoms: N_10  and  C_12
REMARK    5  A    between atoms: C_12  and  C_13
REMARK    6  A    between atoms: C_22  and  C_23
REMARK    7  A    between atoms: C_23  and  N_24
REMARK    8  A    between atoms: C_25  and  C_27
REMARK                            x       y       z     vdW  Elec       q    Type
REMARK                         _______ _______ _______ _____ _____    ______ ____
ROOT
ATOM      4  C   UNL     1      -2.666   1.843  24.778  0.00  0.00    +0.006 C 
ATOM      5  C   UNL     1      -2.457   1.045  24.796  0.00  0.00    +0.005 C 
ATOM      6  C   UNL     1      -1.737   0.814  25.127  0.00  0.00    +0.027 C 
ATOM     19  C   UNL     1      -1.227   1.382  25.440  0.00  0.00    -0.048 C 
ATOM     20  C   UNL     1      -0.508   1.151  25.771  0.00  0.00    +0.026 C 
ATOM     21  C   UNL     1      -1.435   2.179  25.422  0.00  0.00    -0.033 C 
ATOM     22  C   UNL     1      -2.155   2.410  25.091  0.00  0.00    +0.043 C 
ENDROOT
BRANCH   4   2
ATOM      1  C   UNL     1      -4.051   2.163  24.929  0.00  0.00    +0.000 C 
ATOM      2  C   UNL     1      -3.386   2.073  24.447  0.00  0.00    +0.000 C 
ATOM      3  C   UNL     1      -3.441   2.214  23.637  0.00  0.00    +0.000 C 
ENDBRANCH   4   2
BRANCH   6   7
ATOM      7  C   UNL     1      -1.529   0.016  25.145  0.00  0.00    +0.089 C 
BRANCH   7   8
ATOM      8  C   UNL     1      -2.071  -0.545  25.416  0.00  0.00    +0.226 C 
ATOM      9  O   UNL     1      -2.489  -0.411  26.115  0.00  0.00    -0.275 OA
ATOM     10  N   UNL     1      -2.193  -1.240  24.989  0.00  0.00    -0.274 N 
ATOM     11  C   UNL     1      -1.776  -1.375  24.291  0.00  0.00    +0.115 C 
BRANCH  10  12
ATOM     12  C   UNL     1      -2.734  -1.801  25.261  0.00  0.00    +0.120 C 
BRANCH  12  13
ATOM     13  C   UNL     1      -3.273  -2.140  24.737  0.00  0.00    -0.002 A 
ATOM     14  C   UNL     1      -3.192  -2.930  24.515  0.00  0.00    -0.003 A 
ATOM     15  C   UNL     1      -3.732  -3.269  23.990  0.00  0.00    -0.000 A 
ATOM     16  C   UNL     1      -4.352  -2.817  23.689  0.00  0.00    -0.000 A 
ATOM     17  C   UNL     1      -4.433  -2.028  23.910  0.00  0.00    -0.000 A 
ATOM     18  C   UNL     1      -3.894  -1.688  24.434  0.00  0.00    -0.003 A 
ENDBRANCH  12  13
ENDBRANCH  10  12
ENDBRANCH   7   8
ENDBRANCH   6   7
BRANCH  22  23
ATOM     23  C   UNL     1      -2.364   3.208  25.074  0.00  0.00    +0.119 C 
BRANCH  23  24
ATOM     24  N   UNL     1      -1.797   3.780  24.894  0.00  0.00    -0.205 NA
ATOM     25  C   UNL     1      -1.892   4.554  25.161  0.00  0.00    +0.241 C 
ATOM     26  O   UNL     1      -2.556   4.757  25.607  0.00  0.00    -0.273 OA
BRANCH  25  27
ATOM     27  C   UNL     1      -1.325   5.126  24.981  0.00  0.00    +0.078 C 
ATOM     28  C   UNL     1      -1.104   5.918  24.919  0.00  0.00    +0.010 C 
ATOM     29  C   UNL     1      -0.564   5.323  24.733  0.00  0.00    +0.010 C 
ENDBRANCH  25  27
ENDBRANCH  23  24
ENDBRANCH  22  23
TORSDOF 8
ENDMDL
MODEL 5
REMARK VINA RESULT:      -9.7      2.187      4.336
REMARK  Name = 
REMARK  8 active torsions:
REMARK  status: ('A' for Active; 'I' for Inactive)
REMARK    1  A    between atoms: C_2  and  C_4
REMARK    2  A    between atoms: C_6  and  C_7
REMARK    3  A    between atoms: C_7  and  C_8
REMARK    4  A    between atoms: N_10  and  C_12
REMARK    5  A    between atoms: C_12  and  C_13
REMARK    6  A    between atoms: C_22  and  C_23
REMARK    7  A    between atoms: C_23  and  N_24
REMARK    8  A    between atoms: C_25  and  C_27
REMARK                            x       y       z     vdW  Elec       q    Type
REMARK                         _______ _______ _______ _____ _____    ______ ____
ROOT
ATOM      4  C   UNL     1      -1.488   0.990  24.701  0.00  0.00    +0.006 C 
ATOM      5  C   UNL     1      -1.939   1.652  24.904  0.00  0.00    +0.005 C 
ATOM      6  C   UNL     1      -1.657   2.409  24.738  0.00  0.00    +0.027 C 
ATOM     19  C   UNL     1      -0.925   2.506  24.371  0.00  0.00    -0.048 C 
ATOM     20  C   UNL     1      -0.643   3.263  24.206  0.00  0.00    +0.026 C 
ATOM     21  C   UNL     1      -0.475   1.845  24.168  0.00  0.00    -0.033 C 
ATOM     22  C   UNL     1      -0.756   1.087  24.333  0.00  0.00    +0.043 C 
ENDROOT
BRANCH   4   2
ATOM      1  C   UNL     1      -1.572  -0.134  25.579  0.00  0.00    +0.000 C 
ATOM      2  C   UNL     1      -1.771   0.233  24.866  0.00  0.00    +0.000 C 
ATOM      3  C   UNL     1      -2.251  -0.156  24.322  0.00  0.00    +0.000 C 
ENDBRANCH   4   2
BRANCH   6   7
ATOM      7  C   UNL     1      -2.108   3.069  24.941  0.00  0.00    +0.089 C 
BRANCH   7   8
ATOM      8  C   UNL     1      -2.868   3.160  24.631  0.00  0.00    +0.226 C 
ATOM      9  O   UNL     1      -3.002   3.044  23.825  0.00  0.00    -0.275 OA
ATOM     10  N   UNL     1      -3.494   3.368  25.128  0.00  0.00    -0.274 N 
ATOM     11  C   UNL     1      -3.360   3.484  25.933  0.00  0.00    +0.115 C 
BRANCH  10  12
ATOM     12  C   UNL     1      -4.253   3.458  24.818  0.00  0.00    +0.120 C 
BRANCH  12  13
ATOM     13  C   UNL     1      -4.872   2.996  25.105  0.00  0.00    -0.002 A 
ATOM     14  C   UNL     1      -5.204   3.161  25.841  0.00  0.00    -0.003 A 
ATOM     15  C   UNL     1      -5.824   2.697  26.128  0.00  0.00    -0.000 A 
ATOM     16  C   UNL     1      -6.111   2.069  25.678  0.00  0.00    -0.000 A 
ATOM     17  C   UNL     1      -5.779   1.904  24.942  0.00  0.00    -0.000 A 
ATOM     18  C   UNL     1      -5.160   2.367  24.655  0.00  0.00    -0.003 A 
ENDBRANCH  12  13
ENDBRANCH  10  12
ENDBRANCH   7   8
ENDBRANCH   6   7
BRANCH  22  23
ATOM     23  C   UNL     1      -0.306   0.427  24.131  0.00  0.00    +0.119 C 
BRANCH  23  24
ATOM     24  N   UNL     1       0.292   0.491  23.566  0.00  0.00    -0.205 NA
ATOM     25  C   UNL     1       0.766  -0.160  23.391  0.00  0.00    +0.241 C 
ATOM     26  O   UNL     1       0.643  -0.877  23.780  0.00  0.00    -0.273 OA
BRANCH  25  27
ATOM     27  C   UNL     1       1.364  -0.096  22.826  0.00  0.00    +0.078 C 
ATOM     28  C   UNL     1       1.631  -0.200  22.052  0.00  0.00    +0.010 C 
ATOM     29  C   UNL     1       2.133   0.120  22.623  0.00  0.00    +0.010 C 
ENDBRANCH  25  27
ENDBRANCH  23  24
ENDBRANCH  22  23
TORSDOF 8
ENDMDL
