MODEL 1
REMARK VINA RESULT:     -11.5      0.000      0.000
REMARK  Name = 
REMARK  5 active torsions:
REMARK  status: ('A' for Active; 'I' for Inactive)
REMARK    1  A    between atoms: C_5  and  C_8
REMARK    2  A    between atoms: N_10  and  C_11
REMARK    3  A    between atoms: C_11  and  C_12
REMARK    4  A    between atoms: C_19  and  C_20
REMARK    5  A    between atoms: C_22  and  C_27
REMARK                            x       y       z     vdW  Elec       q    Type
REMARK                         _______ _______ _______ _____ _____    ______ ____
ROOT
ATOM     12  C   UNL     1       0.291   0.205  23.486  0.00  0.00    +0.079 C 
ATOM     13  C   UNL     1       0.012   0.191  24.212  0.00  0.00    +0.018 C 
ATOM     14  C   UNL     1      -0.738   0.403  24.432  0.00  0.00    +0.010 C 
ATOM     15  C   UNL     1      -0.863   0.316  25.316  0.00  0.00    +0.018 C 
ATOM     16  C   UNL     1      -0.527   0.287  24.757  0.00  0.00    +0.072 C 
ATOM     17  N   UNL     1      -0.471   0.419  23.719  0.00  0.00    -0.272 NA
ATOM     18  C   UNL     1      -1.192   0.720  23.246  0.00  0.00    +0.078 C 
ATOM     19  C   UNL     1      -1.427   0.692  23.972  0.00  0.00    +0.056 C 
ENDROOT
BRANCH  19  20
ATOM     20  C   UNL     1      -2.173   0.892  24.262  0.00  0.00    +0.063 A 
ATOM     21  C   UNL     1      -2.351   1.679  24.436  0.00  0.00    +0.034 A 
ATOM     22  C   UNL     1      -3.096   1.879  24.726  0.00  0.00    +0.084 A 
ATOM     23  N   UNL     1      -3.665   1.292  24.843  0.00  0.00    -0.231 NA
ATOM     24  C   UNL     1      -3.487   0.506  24.670  0.00  0.00    +0.139 A 
ATOM     25  C   UNL     1      -4.055  -0.081  24.787  0.00  0.00    +0.074 C 
ATOM     26  N   UNL     1      -2.741   0.306  24.379  0.00  0.00    -0.235 NA
BRANCH  22  27
ATOM     27  C   UNL     1      -3.275   2.666  24.899  0.00  0.00    +0.024 A 
ATOM     28  C   UNL     1      -3.669   3.131  24.343  0.00  0.00    +0.036 A 
ATOM     29 BR   UNL     1      -3.886   2.810  23.615  0.00  0.00    -0.049 Br
ATOM     30  C   UNL     1      -3.848   3.917  24.516  0.00  0.00    +0.007 A 
ATOM     31  C   UNL     1      -3.632   4.239  25.245  0.00  0.00    +0.001 A 
ATOM     32  C   UNL     1      -3.237   3.774  25.800  0.00  0.00    +0.000 A 
ATOM     33  C   UNL     1      -3.058   2.987  25.627  0.00  0.00    +0.002 A 
ENDBRANCH  22  27
ENDBRANCH  19  20
BRANCH  12  11
ATOM     11  C   UNL     1       0.884   0.093  22.924  0.00  0.00    +0.131 C 
BRANCH  11  10
ATOM      8  C   UNL     1       2.269   0.074  22.573  0.00  0.00    +0.265 C 
ATOM      9  O   UNL     1       2.069  -0.094  21.791  0.00  0.00    -0.268 OA
ATOM     10  N   UNL     1       1.677   0.168  23.140  0.00  0.00    -0.200 NA
BRANCH   8   5
ATOM      1  C   UNL     1       5.440   0.372  23.437  0.00  0.00    +0.031 C 
ATOM      2  C   UNL     1       4.647   0.298  23.221  0.00  0.00    -0.022 A 
ATOM      3  C   UNL     1       4.249  -0.413  23.353  0.00  0.00    -0.004 A 
ATOM      4  C   UNL     1       3.456  -0.488  23.137  0.00  0.00    +0.004 A 
ATOM      5  C   UNL     1       3.062   0.149  22.789  0.00  0.00    +0.055 A 
ATOM      6  C   UNL     1       3.460   0.859  22.657  0.00  0.00    +0.004 A 
ATOM      7  C   UNL     1       4.253   0.933  22.873  0.00  0.00    -0.004 A 
ENDBRANCH   8   5
ENDBRANCH  11  10
ENDBRANCH  12  11
TORSDOF 5
ENDMDL
MODEL 2
REMARK VINA RESULT:     -11.4      0.979      1.535
REMARK  Name = 
REMARK  5 active torsions:
REMARK  status: ('A' for Active; 'I' for Inactive)
REMARK    1  A    between atoms: C_5  and  C_8
REMARK    2  A    between atoms: N_10  and  C_11
REMARK    3  A    between atoms: C_11  and  C_12
REMARK    4  A    between atoms: C_19  and  C_20
REMARK    5  A    between atoms: C_22  and  C_27
REMARK                            x       y       z     vdW  Elec       q    Type
REMARK                         _______ _______ _______ _____ _____    ______ ____
ROOT
ATOM     12  C   UNL     1       0.247   0.451  23.651  0.00  0.00    +0.079 C 
ATOM     13  C   UNL     1      -0.122   0.352  24.329  0.00  0.00    +0.018 C 
ATOM     14  C   UNL     1      -0.696   0.837  24.629  0.00  0.00    +0.010 C 
ATOM     15  C   UNL     1      -0.995   0.549  25.424  0.00  0.00    +0.018 C 
ATOM     16  C   UNL     1      -0.627   0.532  24.885  0.00  0.00    +0.072 C 
ATOM     17  N   UNL     1      -0.340   0.941  23.963  0.00  0.00    -0.272 NA
ATOM     18  C   UNL     1      -0.728   1.705  23.649  0.00  0.00    +0.078 C 
ATOM     19  C   UNL     1      -1.066   1.571  24.321  0.00  0.00    +0.056 C 
ENDROOT
BRANCH  19  20
ATOM     20  C   UNL     1      -1.655   2.023  24.682  0.00  0.00    +0.063 A 
ATOM     21  C   UNL     1      -2.448   1.815  24.590  0.00  0.00    +0.034 A 
ATOM     22  C   UNL     1      -3.036   2.267  24.951  0.00  0.00    +0.084 A 
ATOM     23  N   UNL     1      -2.832   2.926  25.403  0.00  0.00    -0.231 NA
ATOM     24  C   UNL     1      -2.039   3.133  25.495  0.00  0.00    +0.139 A 
ATOM     25  C   UNL     1      -1.834   3.792  25.947  0.00  0.00    +0.074 C 
ATOM     26  N   UNL     1      -1.450   2.681  25.134  0.00  0.00    -0.235 NA
BRANCH  22  27
ATOM     27  C   UNL     1      -3.830   2.060  24.859  0.00  0.00    +0.024 A 
ATOM     28  C   UNL     1      -4.308   2.483  24.336  0.00  0.00    +0.036 A 
ATOM     29 BR   UNL     1      -3.993   3.112  23.905  0.00  0.00    -0.049 Br
ATOM     30  C   UNL     1      -5.101   2.277  24.244  0.00  0.00    +0.007 A 
ATOM     31  C   UNL     1      -5.416   1.647  24.676  0.00  0.00    +0.001 A 
ATOM     32  C   UNL     1      -4.938   1.226  25.198  0.00  0.00    +0.000 A 
ATOM     33  C   UNL     1      -4.144   1.431  25.290  0.00  0.00    +0.002 A 
ENDBRANCH  22  27
ENDBRANCH  19  20
BRANCH  12  11
ATOM     11  C   UNL     1       0.794   0.236  23.073  0.00  0.00    +0.131 C 
BRANCH  11  10
ATOM      8  C   UNL     1       2.150   0.105  22.641  0.00  0.00    +0.265 C 
ATOM      9  O   UNL     1       1.890  -0.106  21.887  0.00  0.00    -0.268 OA
ATOM     10  N   UNL     1       1.602   0.276  23.234  0.00  0.00    -0.200 NA
BRANCH   8   5
ATOM      1  C   UNL     1       5.382   0.264  23.286  0.00  0.00    +0.031 C 
ATOM      2  C   UNL     1       4.574   0.225  23.124  0.00  0.00    -0.022 A 
ATOM      3  C   UNL     1       4.153  -0.465  23.292  0.00  0.00    -0.004 A 
ATOM      4  C   UNL     1       3.346  -0.505  23.131  0.00  0.00    +0.004 A 
ATOM      5  C   UNL     1       2.958   0.145  22.802  0.00  0.00    +0.055 A 
ATOM      6  C   UNL     1       3.378   0.834  22.635  0.00  0.00    +0.004 A 
ATOM      7  C   UNL     1       4.186   0.874  22.796  0.00  0.00    -0.004 A 
ENDBRANCH   8   5
ENDBRANCH  11  10
ENDBRANCH  12  11
TORSDOF 5
ENDMDL
MODEL 3
REMARK VINA RESULT:     -11.0      2.152      2.936
REMARK  Name = 
REMARK  5 active torsions:
REMARK  status: ('A' for Active; 'I' for Inactive)
REMARK    1  A    between atoms: C_5  and  C_8
REMARK    2  A    between atoms: N_10  and  C_11
REMARK    3  A    between atoms: C_11  and  C_12
REMARK    4  A    between atoms: C_19  and  C_20
REMARK    5  A    between atoms: C_22  and  C_27
REMARK                            x       y       z     vdW  Elec       q    Type
REMARK                         _______ _______ _______ _____ _____    ______ ____
ROOT
ATOM     12  C   UNL     1       0.862   0.223  23.123  0.00  0.00    +0.079 C 
ATOM     13  C   UNL     1       0.306   0.654  23.456  0.00  0.00    +0.018 C 
ATOM     14  C   UNL     1      -0.287   0.374  23.930  0.00  0.00    +0.010 C 
ATOM     15  C   UNL     1      -0.826   1.032  24.215  0.00  0.00    +0.018 C 
ATOM     16  C   UNL     1      -0.321   0.775  23.890  0.00  0.00    +0.072 C 
ATOM     17  N   UNL     1       0.254  -0.055  23.607  0.00  0.00    -0.272 NA
ATOM     18  C   UNL     1       0.039  -0.893  23.897  0.00  0.00    +0.078 C 
ATOM     19  C   UNL     1      -0.488  -0.435  24.205  0.00  0.00    +0.056 C 
ENDROOT
BRANCH  19  20
ATOM     20  C   UNL     1      -1.115  -0.655  24.695  0.00  0.00    +0.063 A 
ATOM     21  C   UNL     1      -1.821  -0.926  24.363  0.00  0.00    +0.034 A 
ATOM     22  C   UNL     1      -2.447  -1.146  24.852  0.00  0.00    +0.084 A 
ATOM     23  N   UNL     1      -2.370  -1.094  25.672  0.00  0.00    -0.231 NA
ATOM     24  C   UNL     1      -1.664  -0.823  26.003  0.00  0.00    +0.139 A 
ATOM     25  C   UNL     1      -1.586  -0.771  26.822  0.00  0.00    +0.074 C 
ATOM     26  N   UNL     1      -1.037  -0.603  25.513  0.00  0.00    -0.235 NA
BRANCH  22  27
ATOM     27  C   UNL     1      -3.154  -1.417  24.522  0.00  0.00    +0.024 A 
ATOM     28  C   UNL     1      -3.273  -2.227  24.416  0.00  0.00    +0.036 A 
ATOM     29 BR   UNL     1      -2.689  -2.764  24.638  0.00  0.00    -0.049 Br
ATOM     30  C   UNL     1      -3.979  -2.499  24.086  0.00  0.00    +0.007 A 
ATOM     31  C   UNL     1      -4.564  -1.961  23.862  0.00  0.00    +0.001 A 
ATOM     32  C   UNL     1      -4.443  -1.153  23.969  0.00  0.00    +0.000 A 
ATOM     33  C   UNL     1      -3.738  -0.880  24.299  0.00  0.00    +0.002 A 
ENDBRANCH  22  27
ENDBRANCH  19  20
BRANCH  12  11
ATOM     11  C   UNL     1       1.532   0.122  22.654  0.00  0.00    +0.131 C 
BRANCH  11  10
ATOM      8  C   UNL     1       2.955   0.128  22.521  0.00  0.00    +0.265 C 
ATOM      9  O   UNL     1       2.878   0.117  21.700  0.00  0.00    -0.268 OA
ATOM     10  N   UNL     1       2.282   0.130  22.998  0.00  0.00    -0.200 NA
BRANCH   8   5
ATOM      1  C   UNL     1       5.953   0.160  23.898  0.00  0.00    +0.031 C 
ATOM      2  C   UNL     1       5.203   0.151  23.554  0.00  0.00    -0.022 A 
ATOM      3  C   UNL     1       4.914   0.828  23.182  0.00  0.00    -0.004 A 
ATOM      4  C   UNL     1       4.164   0.820  22.837  0.00  0.00    +0.004 A 
ATOM      5  C   UNL     1       3.704   0.135  22.865  0.00  0.00    +0.055 A 
ATOM      6  C   UNL     1       3.995  -0.541  23.237  0.00  0.00    +0.004 A 
ATOM      7  C   UNL     1       4.744  -0.533  23.581  0.00  0.00    -0.004 A 
ENDBRANCH   8   5
ENDBRANCH  11  10
ENDBRANCH  12  11
TORSDOF 5
ENDMDL
MODEL 4
REMARK VINA RESULT:      -9.4      2.895      4.286
REMARK  Name = 
REMARK  5 active torsions:
REMARK  status: ('A' for Active; 'I' for Inactive)
REMARK    1  A    between atoms: C_5  and  C_8
REMARK    2  A    between atoms: N_10  and  C_11
REMARK    3  A    between atoms: C_11  and  C_12
REMARK    4  A    between atoms: C_19  and  C_20
REMARK    5  A    between atoms: C_22  and  C_27
REMARK                            x       y       z     vdW  Elec       q    Type
REMARK                         _______ _______ _______ _____ _____    ______ ____
ROOT
ATOM     12  C   UNL     1      -0.597   0.447  25.198  0.00  0.00    +0.079 C 
ATOM     13  C   UNL     1      -0.422   1.054  25.652  0.00  0.00    +0.018 C 
ATOM     14  C   UNL     1      -0.759   1.789  25.608  0.00  0.00    +0.010 C 
ATOM     15  C   UNL     1      -0.418   2.350  26.219  0.00  0.00    +0.018 C 
ATOM     16  C   UNL     1      -0.482   1.782  25.903  0.00  0.00    +0.072 C 
ATOM     17  N   UNL     1      -0.936   1.199  25.159  0.00  0.00    -0.272 NA
ATOM     18  C   UNL     1      -1.580   1.551  24.617  0.00  0.00    +0.078 C 
ATOM     19  C   UNL     1      -1.379   2.121  25.083  0.00  0.00    +0.056 C 
ENDROOT
BRANCH  19  20
ATOM     20  C   UNL     1      -1.681   2.890  25.091  0.00  0.00    +0.063 A 
ATOM     21  C   UNL     1      -2.483   3.015  25.235  0.00  0.00    +0.034 A 
ATOM     22  C   UNL     1      -2.785   3.783  25.243  0.00  0.00    +0.084 A 
ATOM     23  N   UNL     1      -2.284   4.425  25.107  0.00  0.00    -0.231 NA
ATOM     24  C   UNL     1      -1.482   4.298  24.963  0.00  0.00    +0.139 A 
ATOM     25  C   UNL     1      -0.981   4.940  24.827  0.00  0.00    +0.074 C 
ATOM     26  N   UNL     1      -1.180   3.530  24.955  0.00  0.00    -0.235 NA
BRANCH  22  27
ATOM     27  C   UNL     1      -3.587   3.910  25.387  0.00  0.00    +0.024 A 
ATOM     28  C   UNL     1      -4.124   3.909  24.760  0.00  0.00    +0.036 A 
ATOM     29 BR   UNL     1      -3.858   3.781  23.990  0.00  0.00    -0.049 Br
ATOM     30  C   UNL     1      -4.926   4.035  24.904  0.00  0.00    +0.007 A 
ATOM     31  C   UNL     1      -5.192   4.163  25.675  0.00  0.00    +0.001 A 
ATOM     32  C   UNL     1      -4.656   4.164  26.301  0.00  0.00    +0.000 A 
ATOM     33  C   UNL     1      -3.853   4.037  26.158  0.00  0.00    +0.002 A 
ENDBRANCH  22  27
ENDBRANCH  19  20
BRANCH  12  11
ATOM     11  C   UNL     1      -0.513  -0.335  24.949  0.00  0.00    +0.131 C 
BRANCH  11  10
ATOM      8  C   UNL     1      -1.192  -1.592  24.950  0.00  0.00    +0.265 C 
ATOM      9  O   UNL     1      -0.537  -1.945  25.305  0.00  0.00    -0.268 OA
ATOM     10  N   UNL     1      -1.180  -0.786  24.772  0.00  0.00    -0.200 NA
BRANCH   8   5
ATOM      1  C   UNL     1      -3.860  -3.398  24.239  0.00  0.00    +0.031 C 
ATOM      2  C   UNL     1      -3.193  -2.946  24.417  0.00  0.00    -0.022 A 
ATOM      3  C   UNL     1      -2.488  -3.074  24.008  0.00  0.00    -0.004 A 
ATOM      4  C   UNL     1      -1.821  -2.622  24.185  0.00  0.00    +0.004 A 
ATOM      5  C   UNL     1      -1.859  -2.043  24.772  0.00  0.00    +0.055 A 
ATOM      6  C   UNL     1      -2.564  -1.916  25.181  0.00  0.00    +0.004 A 
ATOM      7  C   UNL     1      -3.231  -2.367  25.004  0.00  0.00    -0.004 A 
ENDBRANCH   8   5
ENDBRANCH  11  10
ENDBRANCH  12  11
TORSDOF 5
ENDMDL
MODEL 5
REMARK VINA RESULT:      -9.2      2.829      5.000
REMARK  Name = 
REMARK  5 active torsions:
REMARK  status: ('A' for Active; 'I' for Inactive)
REMARK    1  A    between atoms: C_5  and  C_8
REMARK    2  A    between atoms: N_10  and  C_11
REMARK    3  A    between atoms: C_11  and  C_12
REMARK    4  A    between atoms: C_19  and  C_20
REMARK    5  A    between atoms: C_22  and  C_27
REMARK                            x       y       z     vdW  Elec       q    Type
REMARK                         _______ _______ _______ _____ _____    ______ ____
ROOT
ATOM     12  C   UNL     1       0.087   1.443  24.450  0.00  0.00    +0.079 C 
ATOM     13  C   UNL     1       0.073   0.857  23.938  0.00  0.00    +0.018 C 
ATOM     14  C   UNL     1      -0.268   0.133  24.060  0.00  0.00    +0.010 C 
ATOM     15  C   UNL     1      -0.177  -0.403  23.346  0.00  0.00    +0.018 C 
ATOM     16  C   UNL     1      -0.104   0.148  23.690  0.00  0.00    +0.072 C 
ATOM     17  N   UNL     1      -0.257   0.702  24.566  0.00  0.00    -0.272 NA
ATOM     18  C   UNL     1      -0.703   0.342  25.276  0.00  0.00    +0.078 C 
ATOM     19  C   UNL     1      -0.696  -0.208  24.746  0.00  0.00    +0.056 C 
ENDROOT
BRANCH  19  20
ATOM     20  C   UNL     1      -1.022  -0.964  24.806  0.00  0.00    +0.063 A 
ATOM     21  C   UNL     1      -1.812  -1.088  24.604  0.00  0.00    +0.034 A 
ATOM     22  C   UNL     1      -2.138  -1.844  24.664  0.00  0.00    +0.084 A 
ATOM     23  N   UNL     1      -1.674  -2.474  24.925  0.00  0.00    -0.231 NA
ATOM     24  C   UNL     1      -0.884  -2.349  25.127  0.00  0.00    +0.139 A 
ATOM     25  C   UNL     1      -0.420  -2.978  25.389  0.00  0.00    +0.074 C 
ATOM     26  N   UNL     1      -0.558  -1.593  25.067  0.00  0.00    -0.235 NA
BRANCH  22  27
ATOM     27  C   UNL     1      -2.928  -1.970  24.462  0.00  0.00    +0.024 A 
ATOM     28  C   UNL     1      -3.527  -1.731  24.976  0.00  0.00    +0.036 A 
ATOM     29 BR   UNL     1      -3.338  -1.367  25.691  0.00  0.00    -0.049 Br
ATOM     30  C   UNL     1      -4.317  -1.857  24.774  0.00  0.00    +0.007 A 
ATOM     31  C   UNL     1      -4.508  -2.222  24.059  0.00  0.00    +0.001 A 
ATOM     32  C   UNL     1      -3.908  -2.460  23.546  0.00  0.00    +0.000 A 
ATOM     33  C   UNL     1      -3.118  -2.334  23.747  0.00  0.00    +0.002 A 
ENDBRANCH  22  27
ENDBRANCH  19  20
BRANCH  12  11
ATOM     11  C   UNL     1       0.289   2.206  24.689  0.00  0.00    +0.131 C 
BRANCH  11  10
ATOM      8  C   UNL     1      -0.222   3.433  25.215  0.00  0.00    +0.265 C 
ATOM      9  O   UNL     1       0.403   3.463  25.751  0.00  0.00    -0.268 OA
ATOM     10  N   UNL     1      -0.279   2.804  24.683  0.00  0.00    -0.200 NA
BRANCH   8   5
ATOM      1  C   UNL     1      -2.495   5.825  25.191  0.00  0.00    +0.031 C 
ATOM      2  C   UNL     1      -1.927   5.226  25.197  0.00  0.00    -0.022 A 
ATOM      3  C   UNL     1      -1.184   5.360  24.863  0.00  0.00    -0.004 A 
ATOM      4  C   UNL     1      -0.616   4.762  24.868  0.00  0.00    +0.004 A 
ATOM      5  C   UNL     1      -0.790   4.031  25.209  0.00  0.00    +0.055 A 
ATOM      6  C   UNL     1      -1.532   3.898  25.543  0.00  0.00    +0.004 A 
ATOM      7  C   UNL     1      -2.100   4.496  25.537  0.00  0.00    -0.004 A 
ENDBRANCH   8   5
ENDBRANCH  11  10
ENDBRANCH  12  11
TORSDOF 5
ENDMDL
