MODEL 1
REMARK VINA RESULT:     -12.6      0.000      0.000
REMARK  Name = 
REMARK  8 active torsions:
REMARK  status: ('A' for Active; 'I' for Inactive)
REMARK    1  A    between atoms: C_2  and  N_3
REMARK    2  A    between atoms: C_4  and  O_6
REMARK    3  A    between atoms: O_6  and  C_7
REMARK    4  A    between atoms: C_12  and  C_13
REMARK    5  A    between atoms: C_13  and  C_14
REMARK    6  A    between atoms: N_16  and  C_17
REMARK    7  A    between atoms: C_17  and  C_18
REMARK    8  A    between atoms: C_28  and  C_30
REMARK                            x       y       z     vdW  Elec       q    Type
REMARK                         _______ _______ _______ _____ _____    ______ ____
ROOT
ATOM      7  C   UNL     1      -2.479   3.183  25.283  0.00  0.00    +0.173 C 
ATOM      8  C   UNL     1      -2.421   2.452  24.904  0.00  0.00    +0.044 C 
ATOM      9  C   UNL     1      -3.104   2.026  24.724  0.00  0.00    +0.004 C 
ATOM     10  C   UNL     1      -3.845   2.330  24.922  0.00  0.00    +0.003 C 
ATOM     11  C   UNL     1      -3.787   1.599  24.543  0.00  0.00    +0.000 C 
ATOM     12  C   UNL     1      -4.528   1.904  24.741  0.00  0.00    +0.040 C 
ATOM     23  C   UNL     1      -5.268   2.208  24.939  0.00  0.00    +0.152 C 
ATOM     24  O   UNL     1      -5.951   1.782  24.758  0.00  0.00    -0.223 OA
ATOM     25  C   UNL     1      -5.327   2.939  25.317  0.00  0.00    +0.033 C 
ATOM     26  C   UNL     1      -4.644   3.366  25.498  0.00  0.00    +0.003 C 
ATOM     27  C   UNL     1      -3.903   3.061  25.300  0.00  0.00    +0.006 C 
ATOM     28  C   UNL     1      -3.221   3.488  25.481  0.00  0.00    +0.068 C 
ATOM     29  C   UNL     1      -3.657   4.100  25.819  0.00  0.00    +0.006 C 
ENDROOT
BRANCH  28  30
ATOM     30  C   UNL     1      -2.885   4.166  25.810  0.00  0.00    +0.185 C 
ATOM     31  O   UNL     1      -3.343   4.667  26.278  0.00  0.00    -0.220 OA
ENDBRANCH  28  30
BRANCH   7   6
ATOM      6  O   UNL     1      -1.797   3.610  25.464  0.00  0.00    -0.437 OA
BRANCH   6   4
ATOM      3  N   UNL     1      -0.666   2.984  26.074  0.00  0.00    -0.169 NA
ATOM      4  C   UNL     1      -1.056   3.250  25.398  0.00  0.00    +0.421 C 
ATOM      5  O   UNL     1      -0.708   3.157  24.656  0.00  0.00    -0.225 OA
BRANCH   3   2
ATOM      1  C   UNL     1       0.496   2.423  26.689  0.00  0.00    +0.025 C 
ATOM      2  C   UNL     1       0.074   2.626  26.009  0.00  0.00    +0.119 C 
ENDBRANCH   3   2
ENDBRANCH   6   4
ENDBRANCH   7   6
BRANCH  12  13
ATOM     13  C   UNL     1      -4.470   1.172  24.363  0.00  0.00    +0.089 C 
BRANCH  13  14
ATOM     14  C   UNL     1      -4.504   0.476  24.803  0.00  0.00    +0.242 C 
ATOM     15  O   UNL     1      -4.834   0.483  25.559  0.00  0.00    -0.273 OA
ATOM     16  N   UNL     1      -4.207  -0.226  24.489  0.00  0.00    -0.200 NA
BRANCH  16  17
ATOM     17  C   UNL     1      -4.240  -0.922  24.930  0.00  0.00    +0.148 C 
BRANCH  17  18
ATOM     18  C   UNL     1      -3.935  -1.623  24.619  0.00  0.00    +0.029 A 
ATOM     19  C   UNL     1      -4.208  -2.016  23.949  0.00  0.00    +0.004 A 
ATOM     20  C   UNL     1      -3.745  -2.690  23.841  0.00  0.00    +0.007 A 
ATOM     21  C   UNL     1      -3.184  -2.714  24.446  0.00  0.00    +0.035 A 
ATOM     22  S   UNL     1      -3.302  -2.054  24.927  0.00  0.00    -0.089 S 
ENDBRANCH  17  18
ENDBRANCH  16  17
ENDBRANCH  13  14
ENDBRANCH  12  13
TORSDOF 8
ENDMDL
MODEL 2
REMARK VINA RESULT:     -11.9      1.624      3.259
REMARK  Name = 
REMARK  8 active torsions:
REMARK  status: ('A' for Active; 'I' for Inactive)
REMARK    1  A    between atoms: C_2  and  N_3
REMARK    2  A    between atoms: C_4  and  O_6
REMARK    3  A    between atoms: O_6  and  C_7
REMARK    4  A    between atoms: C_12  and  C_13
REMARK    5  A    between atoms: C_13  and  C_14
REMARK    6  A    between atoms: N_16  and  C_17
REMARK    7  A    between atoms: C_17  and  C_18
REMARK    8  A    between atoms: C_28  and  C_30
REMARK                            x       y       z     vdW  Elec       q    Type
REMARK                         _______ _______ _______ _____ _____    ______ ____
ROOT
ATOM      7  C   UNL     1      -2.758   3.322  25.021  0.00  0.00    +0.173 C 
ATOM      8  C   UNL     1      -2.948   2.576  24.724  0.00  0.00    +0.044 C 
ATOM      9  C   UNL     1      -2.349   2.031  24.564  0.00  0.00    +0.004 C 
ATOM     10  C   UNL     1      -1.561   2.231  24.702  0.00  0.00    +0.003 C 
ATOM     11  C   UNL     1      -1.751   1.485  24.405  0.00  0.00    +0.000 C 
ATOM     12  C   UNL     1      -0.963   1.686  24.543  0.00  0.00    +0.040 C 
ATOM     23  C   UNL     1      -0.175   1.886  24.681  0.00  0.00    +0.152 C 
ATOM     24  O   UNL     1       0.423   1.342  24.522  0.00  0.00    -0.223 OA
ATOM     25  C   UNL     1       0.015   2.632  24.978  0.00  0.00    +0.033 C 
ATOM     26  C   UNL     1      -0.583   3.178  25.137  0.00  0.00    +0.003 C 
ATOM     27  C   UNL     1      -1.371   2.977  24.999  0.00  0.00    +0.006 C 
ATOM     28  C   UNL     1      -1.969   3.523  25.159  0.00  0.00    +0.068 C 
ATOM     29  C   UNL     1      -1.426   4.087  25.415  0.00  0.00    +0.006 C 
ENDROOT
BRANCH  28  30
ATOM     30  C   UNL     1      -2.178   4.274  25.427  0.00  0.00    +0.185 C 
ATOM     31  O   UNL     1      -1.610   4.871  25.467  0.00  0.00    -0.220 OA
ENDBRANCH  28  30
BRANCH   7   6
ATOM      6  O   UNL     1      -3.356   3.867  25.180  0.00  0.00    -0.437 OA
BRANCH   6   4
ATOM      3  N   UNL     1      -4.649   3.460  25.633  0.00  0.00    -0.169 NA
ATOM      4  C   UNL     1      -4.143   3.676  25.019  0.00  0.00    +0.421 C 
ATOM      5  O   UNL     1      -4.422   3.700  24.243  0.00  0.00    -0.225 OA
BRANCH   3   2
ATOM      1  C   UNL     1      -5.875   2.836  26.020  0.00  0.00    +0.025 C 
ATOM      2  C   UNL     1      -5.434   3.268  25.472  0.00  0.00    +0.119 C 
ENDBRANCH   3   2
ENDBRANCH   6   4
ENDBRANCH   7   6
BRANCH  12  13
ATOM     13  C   UNL     1      -1.153   0.940  24.246  0.00  0.00    +0.089 C 
BRANCH  13  14
ATOM     14  C   UNL     1      -1.197   0.292  24.754  0.00  0.00    +0.242 C 
ATOM     15  O   UNL     1      -0.761   0.288  25.455  0.00  0.00    -0.273 OA
ATOM     16  N   UNL     1      -1.677  -0.350  24.564  0.00  0.00    -0.200 NA
BRANCH  16  17
ATOM     17  C   UNL     1      -1.722  -0.998  25.073  0.00  0.00    +0.148 C 
BRANCH  17  18
ATOM     18  C   UNL     1      -2.262  -1.604  24.924  0.00  0.00    +0.029 A 
ATOM     19  C   UNL     1      -3.049  -1.624  25.169  0.00  0.00    +0.004 A 
ATOM     20  C   UNL     1      -3.382  -2.329  24.901  0.00  0.00    +0.007 A 
ATOM     21  C   UNL     1      -2.801  -2.746  24.489  0.00  0.00    +0.035 A 
ATOM     22  S   UNL     1      -2.108  -2.298  24.504  0.00  0.00    -0.089 S 
ENDBRANCH  17  18
ENDBRANCH  16  17
ENDBRANCH  13  14
ENDBRANCH  12  13
TORSDOF 8
ENDMDL
MODEL 3
REMARK VINA RESULT:     -11.5      2.493      4.508
REMARK  Name = 
REMARK  8 active torsions:
REMARK  status: ('A' for Active; 'I' for Inactive)
REMARK    1  A    between atoms: C_2  and  N_3
REMARK    2  A    between atoms: C_4  and  O_6
REMARK    3  A    between atoms: O_6  and  C_7
REMARK    4  A    between atoms: C_12  and  C_13
REMARK    5  A    between atoms: C_13  and  C_14
REMARK    6  A    between atoms: N_16  and  C_17
REMARK    7  A    between atoms: C_17  and  C_18
REMARK    8  A    between atoms: C_28  and  C_30
REMARK                            x       y       z     vdW  Elec       q    Type
REMARK                         _______ _______ _______ _____ _____    ______ ____
ROOT
ATOM      7  C   UNL     1      -1.322  -0.893  24.431  0.00  0.00    +0.173 C 
ATOM      8  C   UNL     1      -1.654  -0.143  24.338  0.00  0.00    +0.044 C 
ATOM      9  C   UNL     1      -2.473  -0.059  24.284  0.00  0.00    +0.004 C 
ATOM     10  C   UNL     1      -2.960  -0.723  24.323  0.00  0.00    +0.003 C 
ATOM     11  C   UNL     1      -3.292   0.026  24.229  0.00  0.00    +0.000 C 
ATOM     12  C   UNL     1      -3.779  -0.639  24.269  0.00  0.00    +0.040 C 
ATOM     23  C   UNL     1      -4.266  -1.303  24.308  0.00  0.00    +0.152 C 
ATOM     24  O   UNL     1      -5.084  -1.219  24.254  0.00  0.00    -0.223 OA
ATOM     25  C   UNL     1      -3.934  -2.053  24.401  0.00  0.00    +0.033 C 
ATOM     26  C   UNL     1      -3.115  -2.138  24.456  0.00  0.00    +0.003 C 
ATOM     27  C   UNL     1      -2.628  -1.473  24.416  0.00  0.00    +0.006 C 
ATOM     28  C   UNL     1      -1.809  -1.558  24.471  0.00  0.00    +0.068 C 
ATOM     29  C   UNL     1      -1.870  -2.377  24.549  0.00  0.00    +0.006 C 
ENDROOT
BRANCH  28  30
ATOM     30  C   UNL     1      -1.162  -2.062  24.557  0.00  0.00    +0.185 C 
ATOM     31  O   UNL     1      -1.276  -2.846  24.786  0.00  0.00    -0.220 OA
ENDBRANCH  28  30
BRANCH   7   6
ATOM      6  O   UNL     1      -0.503  -0.978  24.486  0.00  0.00    -0.437 OA
BRANCH   6   4
ATOM      3  N   UNL     1       0.453  -0.483  23.546  0.00  0.00    -0.169 NA
ATOM      4  C   UNL     1      -0.007  -0.373  24.221  0.00  0.00    +0.421 C 
ATOM      5  O   UNL     1       0.027   0.341  24.633  0.00  0.00    -0.225 OA
BRANCH   3   2
ATOM      1  C   UNL     1       1.504  -0.030  22.690  0.00  0.00    +0.025 C 
ATOM      2  C   UNL     1       0.948   0.121  23.282  0.00  0.00    +0.119 C 
ENDBRANCH   3   2
ENDBRANCH   6   4
ENDBRANCH   7   6
BRANCH  12  13
ATOM     13  C   UNL     1      -4.111   0.111  24.175  0.00  0.00    +0.089 C 
BRANCH  13  14
ATOM     14  C   UNL     1      -4.424   0.507  24.826  0.00  0.00    +0.242 C 
ATOM     15  O   UNL     1      -4.596   0.092  25.518  0.00  0.00    -0.273 OA
ATOM     16  N   UNL     1      -4.566   1.319  24.787  0.00  0.00    -0.200 NA
BRANCH  16  17
ATOM     17  C   UNL     1      -4.880   1.716  25.439  0.00  0.00    +0.148 C 
BRANCH  17  18
ATOM     18  C   UNL     1      -4.946   2.538  25.430  0.00  0.00    +0.029 A 
ATOM     19  C   UNL     1      -4.327   3.074  25.336  0.00  0.00    +0.004 A 
ATOM     20  C   UNL     1      -4.642   3.836  25.361  0.00  0.00    +0.007 A 
ATOM     21  C   UNL     1      -5.458   3.771  25.471  0.00  0.00    +0.035 A 
ATOM     22  S   UNL     1      -5.645   2.968  25.514  0.00  0.00    -0.089 S 
ENDBRANCH  17  18
ENDBRANCH  16  17
ENDBRANCH  13  14
ENDBRANCH  12  13
TORSDOF 8
ENDMDL
MODEL 4
REMARK VINA RESULT:     -11.5      2.170      4.133
REMARK  Name = 
REMARK  8 active torsions:
REMARK  status: ('A' for Active; 'I' for Inactive)
REMARK    1  A    between atoms: C_2  and  N_3
REMARK    2  A    between atoms: C_4  and  O_6
REMARK    3  A    between atoms: O_6  and  C_7
REMARK    4  A    between atoms: C_12  and  C_13
REMARK    5  A    between atoms: C_13  and  C_14
REMARK    6  A    between atoms: N_16  and  C_17
REMARK    7  A    between atoms: C_17  and  C_18
REMARK    8  A    between atoms: C_28  and  C_30
REMARK                            x       y       z     vdW  Elec       q    Type
REMARK                         _______ _______ _______ _____ _____    ______ ____
ROOT
ATOM      7  C   UNL     1      -0.701   1.367  25.007  0.00  0.00    +0.173 C 
ATOM      8  C   UNL     1      -1.429   1.432  25.388  0.00  0.00    +0.044 C 
ATOM      9  C   UNL     1      -1.762   2.176  25.517  0.00  0.00    +0.004 C 
ATOM     10  C   UNL     1      -1.368   2.854  25.265  0.00  0.00    +0.003 C 
ATOM     11  C   UNL     1      -2.096   2.919  25.646  0.00  0.00    +0.000 C 
ATOM     12  C   UNL     1      -1.700   3.598  25.394  0.00  0.00    +0.040 C 
ATOM     23  C   UNL     1      -1.306   4.277  25.142  0.00  0.00    +0.152 C 
ATOM     24  O   UNL     1      -1.639   5.020  25.271  0.00  0.00    -0.223 OA
ATOM     25  C   UNL     1      -0.577   4.212  24.761  0.00  0.00    +0.033 C 
ATOM     26  C   UNL     1      -0.243   3.469  24.631  0.00  0.00    +0.003 C 
ATOM     27  C   UNL     1      -0.639   2.790  24.884  0.00  0.00    +0.006 C 
ATOM     28  C   UNL     1      -0.305   2.046  24.754  0.00  0.00    +0.068 C 
ATOM     29  C   UNL     1       0.355   2.375  24.385  0.00  0.00    +0.006 C 
ENDROOT
BRANCH  28  30
ATOM     30  C   UNL     1       0.321   1.603  24.451  0.00  0.00    +0.185 C 
ATOM     31  O   UNL     1       0.987   1.983  24.146  0.00  0.00    -0.220 OA
ENDBRANCH  28  30
BRANCH   7   6
ATOM      6  O   UNL     1      -0.367   0.624  24.877  0.00  0.00    -0.437 OA
BRANCH   6   4
ATOM      3  N   UNL     1      -0.986  -0.643  24.641  0.00  0.00    -0.169 NA
ATOM      4  C   UNL     1      -0.743  -0.052  25.164  0.00  0.00    +0.421 C 
ATOM      5  O   UNL     1      -0.876  -0.138  25.974  0.00  0.00    -0.225 OA
BRANCH   3   2
ATOM      1  C   UNL     1      -1.488  -1.964  24.429  0.00  0.00    +0.025 C 
ATOM      2  C   UNL     1      -1.362  -1.318  24.928  0.00  0.00    +0.119 C 
ENDBRANCH   3   2
ENDBRANCH   6   4
ENDBRANCH   7   6
BRANCH  12  13
ATOM     13  C   UNL     1      -2.430   3.663  25.776  0.00  0.00    +0.089 C 
BRANCH  13  14
ATOM     14  C   UNL     1      -3.121   3.739  25.333  0.00  0.00    +0.242 C 
ATOM     15  O   UNL     1      -3.129   4.215  24.659  0.00  0.00    -0.273 OA
ATOM     16  N   UNL     1      -3.805   3.340  25.564  0.00  0.00    -0.200 NA
BRANCH  16  17
ATOM     17  C   UNL     1      -4.497   3.416  25.121  0.00  0.00    +0.148 C 
BRANCH  17  18
ATOM     18  C   UNL     1      -5.117   2.882  25.228  0.00  0.00    +0.029 A 
ATOM     19  C   UNL     1      -5.319   2.265  24.719  0.00  0.00    +0.004 A 
ATOM     20  C   UNL     1      -5.970   1.874  25.039  0.00  0.00    +0.007 A 
ATOM     21  C   UNL     1      -6.172   2.248  25.746  0.00  0.00    +0.035 A 
ATOM     22  S   UNL     1      -5.644   2.871  25.863  0.00  0.00    -0.089 S 
ENDBRANCH  17  18
ENDBRANCH  16  17
ENDBRANCH  13  14
ENDBRANCH  12  13
TORSDOF 8
ENDMDL
MODEL 5
REMARK VINA RESULT:     -11.4      2.349      4.392
REMARK  Name = 
REMARK  8 active torsions:
REMARK  status: ('A' for Active; 'I' for Inactive)
REMARK    1  A    between atoms: C_2  and  N_3
REMARK    2  A    between atoms: C_4  and  O_6
REMARK    3  A    between atoms: O_6  and  C_7
REMARK    4  A    between atoms: C_12  and  C_13
REMARK    5  A    between atoms: C_13  and  C_14
REMARK    6  A    between atoms: N_16  and  C_17
REMARK    7  A    between atoms: C_17  and  C_18
REMARK    8  A    between atoms: C_28  and  C_30
REMARK                            x       y       z     vdW  Elec       q    Type
REMARK                         _______ _______ _______ _____ _____    ______ ____
ROOT
ATOM      7  C   UNL     1      -2.570  -0.210  24.717  0.00  0.00    +0.173 C 
ATOM      8  C   UNL     1      -2.300   0.530  24.472  0.00  0.00    +0.044 C 
ATOM      9  C   UNL     1      -2.822   1.169  24.440  0.00  0.00    +0.004 C 
ATOM     10  C   UNL     1      -3.612   1.068  24.653  0.00  0.00    +0.003 C 
ATOM     11  C   UNL     1      -3.343   1.808  24.407  0.00  0.00    +0.000 C 
ATOM     12  C   UNL     1      -4.134   1.706  24.621  0.00  0.00    +0.040 C 
ATOM     23  C   UNL     1      -4.924   1.605  24.834  0.00  0.00    +0.152 C 
ATOM     24  O   UNL     1      -5.445   2.243  24.802  0.00  0.00    -0.223 OA
ATOM     25  C   UNL     1      -5.193   0.865  25.079  0.00  0.00    +0.033 C 
ATOM     26  C   UNL     1      -4.673   0.226  25.112  0.00  0.00    +0.003 C 
ATOM     27  C   UNL     1      -3.881   0.328  24.898  0.00  0.00    +0.006 C 
ATOM     28  C   UNL     1      -3.361  -0.311  24.931  0.00  0.00    +0.068 C 
ATOM     29  C   UNL     1      -3.954  -0.819  25.197  0.00  0.00    +0.006 C 
ENDROOT
BRANCH  28  30
ATOM     30  C   UNL     1      -3.243  -1.110  25.098  0.00  0.00    +0.185 C 
ATOM     31  O   UNL     1      -3.889  -1.613  25.194  0.00  0.00    -0.220 OA
ENDBRANCH  28  30
BRANCH   7   6
ATOM      6  O   UNL     1      -2.049  -0.849  24.750  0.00  0.00    -0.437 OA
BRANCH   6   4
ATOM      3  N   UNL     1      -0.779  -0.837  24.095  0.00  0.00    -0.169 NA
ATOM      4  C   UNL     1      -1.235  -0.716  24.772  0.00  0.00    +0.421 C 
ATOM      5  O   UNL     1      -0.877  -0.463  25.471  0.00  0.00    -0.225 OA
BRANCH   3   2
ATOM      1  C   UNL     1       0.462  -0.639  23.413  0.00  0.00    +0.025 C 
ATOM      2  C   UNL     1       0.035  -0.704  24.117  0.00  0.00    +0.119 C 
ENDBRANCH   3   2
ENDBRANCH   6   4
ENDBRANCH   7   6
BRANCH  12  13
ATOM     13  C   UNL     1      -3.864   2.447  24.375  0.00  0.00    +0.089 C 
BRANCH  13  14
ATOM     14  C   UNL     1      -3.625   3.005  24.933  0.00  0.00    +0.242 C 
ATOM     15  O   UNL     1      -4.043   3.086  25.640  0.00  0.00    -0.273 OA
ATOM     16  N   UNL     1      -2.968   3.481  24.786  0.00  0.00    -0.200 NA
BRANCH  16  17
ATOM     17  C   UNL     1      -2.728   4.039  25.344  0.00  0.00    +0.148 C 
BRANCH  17  18
ATOM     18  C   UNL     1      -2.047   4.486  25.216  0.00  0.00    +0.029 A 
ATOM     19  C   UNL     1      -1.276   4.196  25.177  0.00  0.00    +0.004 A 
ATOM     20  C   UNL     1      -0.770   4.833  25.041  0.00  0.00    +0.007 A 
ATOM     21  C   UNL     1      -1.228   5.518  24.997  0.00  0.00    +0.035 A 
ATOM     22  S   UNL     1      -2.017   5.303  25.105  0.00  0.00    -0.089 S 
ENDBRANCH  17  18
ENDBRANCH  16  17
ENDBRANCH  13  14
ENDBRANCH  12  13
TORSDOF 8
ENDMDL
MODEL 6
REMARK VINA RESULT:     -10.9      2.222      5.181
REMARK  Name = 
REMARK  8 active torsions:
REMARK  status: ('A' for Active; 'I' for Inactive)
REMARK    1  A    between atoms: C_2  and  N_3
REMARK    2  A    between atoms: C_4  and  O_6
REMARK    3  A    between atoms: O_6  and  C_7
REMARK    4  A    between atoms: C_12  and  C_13
REMARK    5  A    between atoms: C_13  and  C_14
REMARK    6  A    between atoms: N_16  and  C_17
REMARK    7  A    between atoms: C_17  and  C_18
REMARK    8  A    between atoms: C_28  and  C_30
REMARK                            x       y       z     vdW  Elec       q    Type
REMARK                         _______ _______ _______ _____ _____    ______ ____
ROOT
ATOM      7  C   UNL     1      -3.998  -0.286  24.734  0.00  0.00    +0.173 C 
ATOM      8  C   UNL     1      -3.462   0.207  25.121  0.00  0.00    +0.044 C 
ATOM      9  C   UNL     1      -2.693  -0.055  25.268  0.00  0.00    +0.004 C 
ATOM     10  C   UNL     1      -2.461  -0.809  25.028  0.00  0.00    +0.003 C 
ATOM     11  C   UNL     1      -1.925  -0.316  25.415  0.00  0.00    +0.000 C 
ATOM     12  C   UNL     1      -1.693  -1.071  25.175  0.00  0.00    +0.040 C 
ATOM     23  C   UNL     1      -1.460  -1.825  24.936  0.00  0.00    +0.152 C 
ATOM     24  O   UNL     1      -0.692  -2.086  25.083  0.00  0.00    -0.223 OA
ATOM     25  C   UNL     1      -1.997  -2.318  24.549  0.00  0.00    +0.033 C 
ATOM     26  C   UNL     1      -2.765  -2.057  24.402  0.00  0.00    +0.003 C 
ATOM     27  C   UNL     1      -2.997  -1.302  24.642  0.00  0.00    +0.006 C 
ATOM     28  C   UNL     1      -3.766  -1.041  24.494  0.00  0.00    +0.068 C 
ATOM     29  C   UNL     1      -3.968  -1.752  24.128  0.00  0.00    +0.006 C 
ENDROOT
BRANCH  28  30
ATOM     30  C   UNL     1      -4.511  -1.201  24.178  0.00  0.00    +0.185 C 
ATOM     31  O   UNL     1      -4.653  -1.918  23.797  0.00  0.00    -0.220 OA
ENDBRANCH  28  30
BRANCH   7   6
ATOM      6  O   UNL     1      -4.767  -0.026  24.586  0.00  0.00    -0.437 OA
BRANCH   6   4
ATOM      3  N   UNL     1      -5.494   1.020  25.236  0.00  0.00    -0.169 NA
ATOM      4  C   UNL     1      -4.952   0.775  24.664  0.00  0.00    +0.421 C 
ATOM      5  O   UNL     1      -4.595   1.330  24.169  0.00  0.00    -0.225 OA
BRANCH   3   2
ATOM      1  C   UNL     1      -6.195   2.068  25.909  0.00  0.00    +0.025 C 
ATOM      2  C   UNL     1      -5.679   1.819  25.313  0.00  0.00    +0.119 C 
ENDBRANCH   3   2
ENDBRANCH   6   4
ENDBRANCH   7   6
BRANCH  12  13
ATOM     13  C   UNL     1      -1.156  -0.577  25.563  0.00  0.00    +0.089 C 
BRANCH  13  14
ATOM     14  C   UNL     1      -0.666  -0.078  25.126  0.00  0.00    +0.242 C 
ATOM     15  O   UNL     1      -0.267  -0.367  24.464  0.00  0.00    -0.273 OA
ATOM     16  N   UNL     1      -0.575   0.710  25.350  0.00  0.00    -0.200 NA
BRANCH  16  17
ATOM     17  C   UNL     1      -0.085   1.210  24.914  0.00  0.00    +0.148 C 
BRANCH  17  18
ATOM     18  C   UNL     1      -0.109   2.026  25.039  0.00  0.00    +0.029 A 
ATOM     19  C   UNL     1       0.005   2.409  25.759  0.00  0.00    +0.004 A 
ATOM     20  C   UNL     1      -0.066   3.221  25.630  0.00  0.00    +0.007 A 
ATOM     21  C   UNL     1      -0.224   3.339  24.828  0.00  0.00    +0.035 A 
ATOM     22  S   UNL     1      -0.251   2.600  24.463  0.00  0.00    -0.089 S 
ENDBRANCH  17  18
ENDBRANCH  16  17
ENDBRANCH  13  14
ENDBRANCH  12  13
TORSDOF 8
ENDMDL
