MODEL 1
REMARK VINA RESULT:     -16.9      0.000      0.000
REMARK  Name = 
REMARK  3 active torsions:
REMARK  status: ('A' for Active; 'I' for Inactive)
REMARK    1  A    between atoms: O_2  and  C_3
REMARK    2  A    between atoms: C_8  and  N_9
REMARK    3  A    between atoms: C_21  and  C_22
REMARK                            x       y       z     vdW  Elec       q    Type
REMARK                         _______ _______ _______ _____ _____    ______ ____
ROOT
ATOM      9  N   UNL     1      -2.350   2.342  24.595  0.00  0.00    -0.159 NA
ATOM     10  C   UNL     1      -3.147   2.301  24.803  0.00  0.00    +0.328 C 
ATOM     11  O   UNL     1      -3.522   1.567  24.862  0.00  0.00    -0.250 OA
ATOM     12  N   UNL     1      -3.571   2.993  24.954  0.00  0.00    -0.262 N 
ATOM     13  C   UNL     1      -3.723   3.810  25.039  0.00  0.00    +0.097 C 
ATOM     14  C   UNL     1      -4.678   3.775  25.290  0.00  0.00    +0.043 C 
ATOM     15  C   UNL     1      -5.452   3.916  25.502  0.00  0.00    +0.011 C 
ATOM     16  C   UNL     1      -5.044   3.362  25.363  0.00  0.00    +0.058 C 
ATOM     17  C   UNL     1      -4.122   3.412  25.123  0.00  0.00    +0.101 C 
ATOM     18  C   UNL     1      -5.067   2.444  25.318  0.00  0.00    +0.041 A 
ATOM     19  C   UNL     1      -5.585   1.810  25.420  0.00  0.00    +0.013 A 
ATOM     20  C   UNL     1      -5.318   1.038  25.307  0.00  0.00    +0.006 A 
ATOM     21  C   UNL     1      -4.534   0.899  25.092  0.00  0.00    +0.062 A 
ATOM     31  C   UNL     1      -4.016   1.533  24.990  0.00  0.00    +0.261 A 
ATOM     32  O   UNL     1      -3.315   1.150  24.784  0.00  0.00    -0.267 OA
ATOM     33  N   UNL     1      -4.282   2.305  25.103  0.00  0.00    -0.299 N 
ATOM     34  C   UNL     1      -4.692   2.817  25.240  0.00  0.00    +0.110 C 
ENDROOT
BRANCH  21  22
ATOM     22  C   UNL     1      -4.268   0.127  24.979  0.00  0.00    +0.034 A 
ATOM     23  C   UNL     1      -3.900  -0.348  25.544  0.00  0.00    +0.007 A 
ATOM     24  C   UNL     1      -3.729  -1.075  25.195  0.00  0.00    +0.006 A 
ATOM     25  C   UNL     1      -3.992  -1.050  24.412  0.00  0.00    +0.029 A 
ATOM     26  S   UNL     1      -4.325  -0.308  24.280  0.00  0.00    -0.087 S 
ATOM     27  C   UNL     1      -3.893  -1.708  23.923  0.00  0.00    +0.006 A 
ATOM     28  C   UNL     1      -3.532  -2.389  24.215  0.00  0.00    +0.001 A 
ATOM     29  C   UNL     1      -3.269  -2.414  24.997  0.00  0.00    +0.000 A 
ATOM     30  C   UNL     1      -3.368  -1.757  25.486  0.00  0.00    +0.001 A 
ENDBRANCH  21  22
BRANCH   9   8
ATOM      3  C   UNL     1      -1.373   1.377  24.993  0.00  0.00    +0.154 A 
ATOM      4  C   UNL     1      -0.950   0.685  24.842  0.00  0.00    +0.038 A 
ATOM      5  C   UNL     1      -1.082   0.264  24.144  0.00  0.00    +0.003 A 
ATOM      6  C   UNL     1      -1.635   0.537  23.597  0.00  0.00    +0.002 A 
ATOM      7  C   UNL     1      -2.059   1.229  23.747  0.00  0.00    +0.020 A 
ATOM      8  C   UNL     1      -1.927   1.649  24.445  0.00  0.00    +0.109 A 
BRANCH   3   2
ATOM      1  C   UNL     1      -0.491   1.804  26.033  0.00  0.00    +0.253 C 
ATOM      2  O   UNL     1      -1.242   1.797  25.690  0.00  0.00    -0.470 OA
ENDBRANCH   3   2
ENDBRANCH   9   8
TORSDOF 3
ENDMDL
MODEL 2
REMARK VINA RESULT:     -16.7      1.599      3.974
REMARK  Name = 
REMARK  3 active torsions:
REMARK  status: ('A' for Active; 'I' for Inactive)
REMARK    1  A    between atoms: O_2  and  C_3
REMARK    2  A    between atoms: C_8  and  N_9
REMARK    3  A    between atoms: C_21  and  C_22
REMARK                            x       y       z     vdW  Elec       q    Type
REMARK                         _______ _______ _______ _____ _____    ______ ____
ROOT
ATOM      9  N   UNL     1      -1.113  -0.508  24.932  0.00  0.00    -0.159 NA
ATOM     10  C   UNL     1      -1.877  -0.765  24.761  0.00  0.00    +0.328 C 
ATOM     11  O   UNL     1      -2.476  -0.215  24.617  0.00  0.00    -0.250 OA
ATOM     12  N   UNL     1      -2.044  -1.573  24.733  0.00  0.00    -0.262 N 
ATOM     13  C   UNL     1      -1.914  -2.397  24.773  0.00  0.00    +0.097 C 
ATOM     14  C   UNL     1      -2.826  -2.719  24.569  0.00  0.00    +0.043 C 
ATOM     15  C   UNL     1      -3.508  -3.138  24.418  0.00  0.00    +0.011 C 
ATOM     16  C   UNL     1      -3.310  -2.465  24.455  0.00  0.00    +0.058 C 
ATOM     17  C   UNL     1      -2.424  -2.170  24.654  0.00  0.00    +0.101 C 
ATOM     18  C   UNL     1      -3.638  -1.611  24.369  0.00  0.00    +0.041 A 
ATOM     19  C   UNL     1      -4.338  -1.208  24.204  0.00  0.00    +0.013 A 
ATOM     20  C   UNL     1      -4.346  -0.383  24.192  0.00  0.00    +0.006 A 
ATOM     21  C   UNL     1      -3.653   0.038  24.345  0.00  0.00    +0.062 A 
ATOM     31  C   UNL     1      -2.953  -0.365  24.510  0.00  0.00    +0.261 A 
ATOM     32  O   UNL     1      -2.420   0.254  24.624  0.00  0.00    -0.267 OA
ATOM     33  N   UNL     1      -2.945  -1.190  24.522  0.00  0.00    -0.299 N 
ATOM     34  C   UNL     1      -3.160  -1.823  24.481  0.00  0.00    +0.110 C 
ENDROOT
BRANCH  21  22
ATOM     22  C   UNL     1      -3.661   0.863  24.332  0.00  0.00    +0.034 A 
ATOM     23  C   UNL     1      -3.475   1.340  23.686  0.00  0.00    +0.007 A 
ATOM     24  C   UNL     1      -3.556   2.128  23.919  0.00  0.00    +0.006 A 
ATOM     25  C   UNL     1      -3.793   2.136  24.710  0.00  0.00    +0.029 A 
ATOM     26  S   UNL     1      -3.857   1.355  24.965  0.00  0.00    -0.087 S 
ATOM     27  C   UNL     1      -3.918   2.856  25.095  0.00  0.00    +0.006 A 
ATOM     28  C   UNL     1      -3.807   3.565  24.689  0.00  0.00    +0.001 A 
ATOM     29  C   UNL     1      -3.571   3.557  23.899  0.00  0.00    +0.000 A 
ATOM     30  C   UNL     1      -3.446   2.838  23.514  0.00  0.00    +0.001 A 
ENDBRANCH  21  22
BRANCH   9   8
ATOM      3  C   UNL     1      -0.524   0.656  24.346  0.00  0.00    +0.154 A 
ATOM      4  C   UNL     1      -0.357   1.463  24.375  0.00  0.00    +0.038 A 
ATOM      5  C   UNL     1      -0.612   1.915  25.016  0.00  0.00    +0.003 A 
ATOM      6  C   UNL     1      -1.034   1.559  25.629  0.00  0.00    +0.002 A 
ATOM      7  C   UNL     1      -1.201   0.752  25.602  0.00  0.00    +0.020 A 
ATOM      8  C   UNL     1      -0.946   0.300  24.960  0.00  0.00    +0.109 A 
BRANCH   3   2
ATOM      1  C   UNL     1       0.405   0.428  23.285  0.00  0.00    +0.253 C 
ATOM      2  O   UNL     1      -0.269   0.204  23.705  0.00  0.00    -0.470 OA
ENDBRANCH   3   2
ENDBRANCH   9   8
TORSDOF 3
ENDMDL
MODEL 3
REMARK VINA RESULT:     -16.6      1.484      4.251
REMARK  Name = 
REMARK  3 active torsions:
REMARK  status: ('A' for Active; 'I' for Inactive)
REMARK    1  A    between atoms: O_2  and  C_3
REMARK    2  A    between atoms: C_8  and  N_9
REMARK    3  A    between atoms: C_21  and  C_22
REMARK                            x       y       z     vdW  Elec       q    Type
REMARK                         _______ _______ _______ _____ _____    ______ ____
ROOT
ATOM      9  N   UNL     1      -4.019   0.395  23.905  0.00  0.00    -0.159 NA
ATOM     10  C   UNL     1      -3.537  -0.223  24.161  0.00  0.00    +0.328 C 
ATOM     11  O   UNL     1      -2.778  -0.065  24.444  0.00  0.00    -0.250 OA
ATOM     12  N   UNL     1      -3.815  -1.000  24.135  0.00  0.00    -0.262 N 
ATOM     13  C   UNL     1      -4.339  -1.636  23.997  0.00  0.00    +0.097 C 
ATOM     14  C   UNL     1      -3.772  -2.386  24.301  0.00  0.00    +0.043 C 
ATOM     15  C   UNL     1      -3.439  -3.100  24.509  0.00  0.00    +0.011 C 
ATOM     16  C   UNL     1      -3.256  -2.422  24.509  0.00  0.00    +0.058 C 
ATOM     17  C   UNL     1      -3.815  -1.708  24.211  0.00  0.00    +0.101 C 
ATOM     18  C   UNL     1      -2.558  -1.864  24.724  0.00  0.00    +0.041 A 
ATOM     19  C   UNL     1      -1.792  -1.885  25.028  0.00  0.00    +0.013 A 
ATOM     20  C   UNL     1      -1.366  -1.185  25.121  0.00  0.00    +0.006 A 
ATOM     21  C   UNL     1      -1.706  -0.464  24.909  0.00  0.00    +0.062 A 
ATOM     31  C   UNL     1      -2.472  -0.443  24.605  0.00  0.00    +0.261 A 
ATOM     32  O   UNL     1      -2.583   0.364  24.474  0.00  0.00    -0.267 OA
ATOM     33  N   UNL     1      -2.898  -1.143  24.512  0.00  0.00    -0.299 N 
ATOM     34  C   UNL     1      -3.048  -1.795  24.523  0.00  0.00    +0.110 C 
ENDROOT
BRANCH  21  22
ATOM     22  C   UNL     1      -1.280   0.236  25.002  0.00  0.00    +0.034 A 
ATOM     23  C   UNL     1      -1.299   0.732  25.661  0.00  0.00    +0.007 A 
ATOM     24  C   UNL     1      -0.790   1.365  25.518  0.00  0.00    +0.006 A 
ATOM     25  C   UNL     1      -0.455   1.260  24.770  0.00  0.00    +0.029 A 
ATOM     26  S   UNL     1      -0.758   0.563  24.452  0.00  0.00    -0.087 S 
ATOM     27  C   UNL     1       0.081   1.815  24.477  0.00  0.00    +0.006 A 
ATOM     28  C   UNL     1       0.284   2.473  24.930  0.00  0.00    +0.001 A 
ATOM     29  C   UNL     1      -0.050   2.578  25.677  0.00  0.00    +0.000 A 
ATOM     30  C   UNL     1      -0.586   2.024  25.971  0.00  0.00    +0.001 A 
ENDBRANCH  21  22
BRANCH   9   8
ATOM      3  C   UNL     1      -4.024   1.692  24.506  0.00  0.00    +0.154 A 
ATOM      4  C   UNL     1      -3.746   2.469  24.531  0.00  0.00    +0.038 A 
ATOM      5  C   UNL     1      -3.186   2.725  23.982  0.00  0.00    +0.003 A 
ATOM      6  C   UNL     1      -2.904   2.205  23.407  0.00  0.00    +0.002 A 
ATOM      7  C   UNL     1      -3.181   1.429  23.381  0.00  0.00    +0.020 A 
ATOM      8  C   UNL     1      -3.741   1.172  23.931  0.00  0.00    +0.109 A 
BRANCH   3   2
ATOM      1  C   UNL     1      -5.107   1.976  25.393  0.00  0.00    +0.253 C 
ATOM      2  O   UNL     1      -4.583   1.436  25.054  0.00  0.00    -0.470 OA
ENDBRANCH   3   2
ENDBRANCH   9   8
TORSDOF 3
ENDMDL
MODEL 4
REMARK VINA RESULT:     -15.6      1.506      3.006
REMARK  Name = 
REMARK  3 active torsions:
REMARK  status: ('A' for Active; 'I' for Inactive)
REMARK    1  A    between atoms: O_2  and  C_3
REMARK    2  A    between atoms: C_8  and  N_9
REMARK    3  A    between atoms: C_21  and  C_22
REMARK                            x       y       z     vdW  Elec       q    Type
REMARK                         _______ _______ _______ _____ _____    ______ ____
ROOT
ATOM      9  N   UNL     1      -3.551   2.343  24.322  0.00  0.00    -0.159 NA
ATOM     10  C   UNL     1      -2.839   2.632  24.622  0.00  0.00    +0.328 C 
ATOM     11  O   UNL     1      -2.228   2.110  24.809  0.00  0.00    -0.250 OA
ATOM     12  N   UNL     1      -2.738   3.443  24.734  0.00  0.00    -0.262 N 
ATOM     13  C   UNL     1      -2.922   4.258  24.738  0.00  0.00    +0.097 C 
ATOM     14  C   UNL     1      -2.074   4.618  25.096  0.00  0.00    +0.043 C 
ATOM     15  C   UNL     1      -1.453   5.064  25.375  0.00  0.00    +0.011 C 
ATOM     16  C   UNL     1      -1.593   4.387  25.259  0.00  0.00    +0.058 C 
ATOM     17  C   UNL     1      -2.419   4.055  24.912  0.00  0.00    +0.101 C 
ATOM     18  C   UNL     1      -1.218   3.551  25.327  0.00  0.00    +0.041 A 
ATOM     19  C   UNL     1      -0.520   3.179  25.562  0.00  0.00    +0.013 A 
ATOM     20  C   UNL     1      -0.453   2.358  25.512  0.00  0.00    +0.006 A 
ATOM     21  C   UNL     1      -1.084   1.909  25.229  0.00  0.00    +0.062 A 
ATOM     31  C   UNL     1      -1.783   2.280  24.995  0.00  0.00    +0.261 A 
ATOM     32  O   UNL     1      -2.246   1.641  24.759  0.00  0.00    -0.267 OA
ATOM     33  N   UNL     1      -1.849   3.101  25.044  0.00  0.00    -0.299 N 
ATOM     34  C   UNL     1      -1.690   3.740  25.163  0.00  0.00    +0.110 C 
ENDROOT
BRANCH  21  22
ATOM     22  C   UNL     1      -1.017   1.089  25.180  0.00  0.00    +0.034 A 
ATOM     23  C   UNL     1      -1.265   0.546  25.750  0.00  0.00    +0.007 A 
ATOM     24  C   UNL     1      -1.091  -0.211  25.474  0.00  0.00    +0.006 A 
ATOM     25  C   UNL     1      -0.733  -0.137  24.734  0.00  0.00    +0.029 A 
ATOM     26  S   UNL     1      -0.688   0.666  24.553  0.00  0.00    -0.087 S 
ATOM     27  C   UNL     1      -0.496  -0.812  24.321  0.00  0.00    +0.006 A 
ATOM     28  C   UNL     1      -0.616  -1.559  24.648  0.00  0.00    +0.001 A 
ATOM     29  C   UNL     1      -0.972  -1.633  25.388  0.00  0.00    +0.000 A 
ATOM     30  C   UNL     1      -1.210  -0.959  25.801  0.00  0.00    +0.001 A 
ENDBRANCH  21  22
BRANCH   9   8
ATOM      3  C   UNL     1      -4.145   1.103  24.715  0.00  0.00    +0.154 A 
ATOM      4  C   UNL     1      -4.245   0.292  24.601  0.00  0.00    +0.038 A 
ATOM      5  C   UNL     1      -3.854  -0.091  23.983  0.00  0.00    +0.003 A 
ATOM      6  C   UNL     1      -3.362   0.338  23.479  0.00  0.00    +0.002 A 
ATOM      7  C   UNL     1      -3.261   1.149  23.591  0.00  0.00    +0.020 A 
ATOM      8  C   UNL     1      -3.652   1.532  24.209  0.00  0.00    +0.109 A 
BRANCH   3   2
ATOM      1  C   UNL     1      -5.294   1.245  25.551  0.00  0.00    +0.253 C 
ATOM      2  O   UNL     1      -4.535   1.485  25.331  0.00  0.00    -0.470 OA
ENDBRANCH   3   2
ENDBRANCH   9   8
TORSDOF 3
ENDMDL
MODEL 5
REMARK VINA RESULT:     -14.6      1.122      3.027
REMARK  Name = 
REMARK  3 active torsions:
REMARK  status: ('A' for Active; 'I' for Inactive)
REMARK    1  A    between atoms: O_2  and  C_3
REMARK    2  A    between atoms: C_8  and  N_9
REMARK    3  A    between atoms: C_21  and  C_22
REMARK                            x       y       z     vdW  Elec       q    Type
REMARK                         _______ _______ _______ _____ _____    ______ ____
ROOT
ATOM      9  N   UNL     1      -4.339  -0.166  25.382  0.00  0.00    -0.159 NA
ATOM     10  C   UNL     1      -4.314   0.642  25.219  0.00  0.00    +0.328 C 
ATOM     11  O   UNL     1      -3.615   0.988  24.949  0.00  0.00    -0.250 OA
ATOM     12  N   UNL     1      -4.989   1.105  25.324  0.00  0.00    -0.262 N 
ATOM     13  C   UNL     1      -5.779   1.299  25.515  0.00  0.00    +0.097 C 
ATOM     14  C   UNL     1      -5.764   2.268  25.323  0.00  0.00    +0.043 C 
ATOM     15  C   UNL     1      -5.913   3.061  25.212  0.00  0.00    +0.011 C 
ATOM     16  C   UNL     1      -5.372   2.620  25.141  0.00  0.00    +0.058 C 
ATOM     17  C   UNL     1      -5.403   1.685  25.331  0.00  0.00    +0.101 C 
ATOM     18  C   UNL     1      -4.488   2.599  24.889  0.00  0.00    +0.041 A 
ATOM     19  C   UNL     1      -3.887   3.096  24.619  0.00  0.00    +0.013 A 
ATOM     20  C   UNL     1      -3.138   2.788  24.462  0.00  0.00    +0.006 A 
ATOM     21  C   UNL     1      -2.990   1.984  24.575  0.00  0.00    +0.062 A 
ATOM     31  C   UNL     1      -3.590   1.488  24.845  0.00  0.00    +0.261 A 
ATOM     32  O   UNL     1      -3.209   0.758  24.876  0.00  0.00    -0.267 OA
ATOM     33  N   UNL     1      -4.340   1.796  25.002  0.00  0.00    -0.299 N 
ATOM     34  C   UNL     1      -4.840   2.236  25.062  0.00  0.00    +0.110 C 
ENDROOT
BRANCH  21  22
ATOM     22  C   UNL     1      -2.240   1.678  24.418  0.00  0.00    +0.034 A 
ATOM     23  C   UNL     1      -1.996   1.332  23.710  0.00  0.00    +0.007 A 
ATOM     24  C   UNL     1      -1.208   1.104  23.796  0.00  0.00    +0.006 A 
ATOM     25  C   UNL     1      -0.965   1.309  24.558  0.00  0.00    +0.029 A 
ATOM     26  S   UNL     1      -1.603   1.663  24.941  0.00  0.00    -0.087 S 
ATOM     27  C   UNL     1      -0.194   1.145  24.802  0.00  0.00    +0.006 A 
ATOM     28  C   UNL     1       0.333   0.778  24.286  0.00  0.00    +0.001 A 
ATOM     29  C   UNL     1       0.091   0.573  23.525  0.00  0.00    +0.000 A 
ATOM     30  C   UNL     1      -0.680   0.736  23.280  0.00  0.00    +0.001 A 
ENDBRANCH  21  22
BRANCH   9   8
ATOM      3  C   UNL     1      -3.615  -1.148  24.637  0.00  0.00    +0.154 A 
ATOM      4  C   UNL     1      -2.940  -1.611  24.532  0.00  0.00    +0.038 A 
ATOM      5  C   UNL     1      -2.314  -1.554  25.067  0.00  0.00    +0.003 A 
ATOM      6  C   UNL     1      -2.363  -1.035  25.705  0.00  0.00    +0.002 A 
ATOM      7  C   UNL     1      -3.037  -0.572  25.811  0.00  0.00    +0.020 A 
ATOM      8  C   UNL     1      -3.664  -0.629  25.277  0.00  0.00    +0.109 A 
BRANCH   3   2
ATOM      1  C   UNL     1      -4.363  -1.904  23.682  0.00  0.00    +0.253 C 
ATOM      2  O   UNL     1      -4.241  -1.204  24.104  0.00  0.00    -0.470 OA
ENDBRANCH   3   2
ENDBRANCH   9   8
TORSDOF 3
ENDMDL
MODEL 6
REMARK VINA RESULT:     -14.3      1.483      2.502
REMARK  Name = 
REMARK  3 active torsions:
REMARK  status: ('A' for Active; 'I' for Inactive)
REMARK    1  A    between atoms: O_2  and  C_3
REMARK    2  A    between atoms: C_8  and  N_9
REMARK    3  A    between atoms: C_21  and  C_22
REMARK                            x       y       z     vdW  Elec       q    Type
REMARK                         _______ _______ _______ _____ _____    ______ ____
ROOT
ATOM      9  N   UNL     1      -2.668   3.546  25.843  0.00  0.00    -0.159 NA
ATOM     10  C   UNL     1      -3.203   3.008  25.520  0.00  0.00    +0.328 C 
ATOM     11  O   UNL     1      -2.927   2.331  25.137  0.00  0.00    -0.250 OA
ATOM     12  N   UNL     1      -4.015   3.146  25.581  0.00  0.00    -0.262 N 
ATOM     13  C   UNL     1      -4.726   3.533  25.787  0.00  0.00    +0.097 C 
ATOM     14  C   UNL     1      -5.378   2.896  25.405  0.00  0.00    +0.043 C 
ATOM     15  C   UNL     1      -6.030   2.481  25.150  0.00  0.00    +0.011 C 
ATOM     16  C   UNL     1      -5.332   2.414  25.128  0.00  0.00    +0.058 C 
ATOM     17  C   UNL     1      -4.715   3.039  25.503  0.00  0.00    +0.101 C 
ATOM     18  C   UNL     1      -4.670   1.855  24.821  0.00  0.00    +0.041 A 
ATOM     19  C   UNL     1      -4.570   1.144  24.415  0.00  0.00    +0.013 A 
ATOM     20  C   UNL     1      -3.811   0.857  24.267  0.00  0.00    +0.006 A 
ATOM     21  C   UNL     1      -3.152   1.281  24.527  0.00  0.00    +0.062 A 
ATOM     31  C   UNL     1      -3.252   1.991  24.934  0.00  0.00    +0.261 A 
ATOM     32  O   UNL     1      -2.473   2.216  25.082  0.00  0.00    -0.267 OA
ATOM     33  N   UNL     1      -4.012   2.278  25.081  0.00  0.00    -0.299 N 
ATOM     34  C   UNL     1      -4.680   2.318  25.088  0.00  0.00    +0.110 C 
ENDROOT
BRANCH  21  22
ATOM     22  C   UNL     1      -2.393   0.993  24.379  0.00  0.00    +0.034 A 
ATOM     23  C   UNL     1      -1.905   1.212  23.751  0.00  0.00    +0.007 A 
ATOM     24  C   UNL     1      -1.199   0.790  23.818  0.00  0.00    +0.006 A 
ATOM     25  C   UNL     1      -1.251   0.310  24.488  0.00  0.00    +0.029 A 
ATOM     26  S   UNL     1      -1.989   0.436  24.834  0.00  0.00    -0.087 S 
ATOM     27  C   UNL     1      -0.619  -0.179  24.695  0.00  0.00    +0.006 A 
ATOM     28  C   UNL     1       0.063  -0.189  24.233  0.00  0.00    +0.001 A 
ATOM     29  C   UNL     1       0.115   0.291  23.563  0.00  0.00    +0.000 A 
ATOM     30  C   UNL     1      -0.516   0.780  23.356  0.00  0.00    +0.001 A 
ENDBRANCH  21  22
BRANCH   9   8
ATOM      3  C   UNL     1      -1.396   3.869  25.276  0.00  0.00    +0.154 A 
ATOM      4  C   UNL     1      -0.585   3.730  25.216  0.00  0.00    +0.038 A 
ATOM      5  C   UNL     1      -0.234   3.130  25.662  0.00  0.00    +0.003 A 
ATOM      6  C   UNL     1      -0.695   2.670  26.167  0.00  0.00    +0.002 A 
ATOM      7  C   UNL     1      -1.506   2.807  26.228  0.00  0.00    +0.020 A 
ATOM      8  C   UNL     1      -1.857   3.407  25.782  0.00  0.00    +0.109 A 
BRANCH   3   2
ATOM      1  C   UNL     1      -1.326   5.159  24.667  0.00  0.00    +0.253 C 
ATOM      2  O   UNL     1      -1.746   4.468  24.832  0.00  0.00    -0.470 OA
ENDBRANCH   3   2
ENDBRANCH   9   8
TORSDOF 3
ENDMDL
