MODEL 1
REMARK VINA RESULT:     -12.0      0.000      0.000
REMARK  Name = 
REMARK  4 active torsions:
REMARK  status: ('A' for Active; 'I' for Inactive)
REMARK    1  A    between atoms: O_2  and  C_3
REMARK    2  A    between atoms: C_4  and  C_10
REMARK    3  A    between atoms: C_25  and  C_27
REMARK    4  A    between atoms: C_27  and  C_28
REMARK                            x       y       z     vdW  Elec       q    Type
REMARK                         _______ _______ _______ _____ _____    ______ ____
ROOT
ATOM     10  C   UNL     1      -1.197   3.141  25.404  0.00  0.00    +0.003 A 
ATOM     11  C   UNL     1      -1.748   2.608  25.101  0.00  0.00    +0.006 A 
ATOM     12  C   UNL     1      -1.644   1.797  25.219  0.00  0.00    +0.069 A 
ATOM     13  C   UNL     1      -0.991   1.522  25.640  0.00  0.00    +0.078 A 
ATOM     14  N   UNL     1      -0.786   0.743  25.819  0.00  0.00    -0.178 NA
ATOM     15  C   UNL     1      -1.184   0.047  25.621  0.00  0.00    +0.265 C 
ATOM     16  O   UNL     1      -0.834  -0.652  25.883  0.00  0.00    -0.271 OA
ATOM     17  C   UNL     1      -1.884  -0.041  25.195  0.00  0.00    +0.174 C 
ATOM     18  C   UNL     1      -2.094  -0.836  25.119  0.00  0.00    +0.123 C 
ATOM     19  N   UNL     1      -2.779  -1.044  24.711  0.00  0.00    -0.276 N 
ATOM     20  C   UNL     1      -3.255  -0.460  24.378  0.00  0.00    +0.115 C 
ATOM     21  C   UNL     1      -3.047   0.336  24.453  0.00  0.00    +0.116 C 
ATOM     22  N   UNL     1      -2.361   0.544  24.862  0.00  0.00    -0.266 N 
ATOM     23  C   UNL     1      -2.254   1.363  24.872  0.00  0.00    +0.251 C 
ATOM     24  O   UNL     1      -2.833   1.804  24.485  0.00  0.00    -0.270 OA
ATOM     25  C   UNL     1      -2.988  -1.839  24.636  0.00  0.00    +0.226 C 
ATOM     26  O   UNL     1      -2.511  -2.424  24.969  0.00  0.00    -0.275 OA
ATOM     32  C   UNL     1      -0.441   2.056  25.943  0.00  0.00    +0.017 A 
ATOM     33  C   UNL     1      -0.543   2.866  25.826  0.00  0.00    +0.001 A 
ENDROOT
BRANCH  10   4
ATOM      3  C   UNL     1      -1.911   4.350  25.669  0.00  0.00    +0.139 A 
ATOM      4  C   UNL     1      -1.299   3.951  25.286  0.00  0.00    +0.035 A 
ATOM      5  C   UNL     1      -0.789   4.363  24.785  0.00  0.00    +0.014 A 
ATOM      6  C   UNL     1      -0.891   5.173  24.667  0.00  0.00    +0.058 A 
ATOM      7 CL   UNL     1      -0.381   5.584  24.166  0.00  0.00    -0.082 Cl
ATOM      8  C   UNL     1      -1.503   5.572  25.050  0.00  0.00    +0.015 A 
ATOM      9  C   UNL     1      -2.014   5.160  25.552  0.00  0.00    +0.038 A 
BRANCH   3   2
ATOM      1  C   UNL     1      -3.045   4.333  26.539  0.00  0.00    +0.252 C 
ATOM      2  O   UNL     1      -2.421   3.939  26.170  0.00  0.00    -0.471 OA
ENDBRANCH   3   2
ENDBRANCH  10   4
BRANCH  25  27
ATOM     27  C   UNL     1      -3.673  -2.048  24.227  0.00  0.00    +0.085 C 
BRANCH  27  28
ATOM     28  C   UNL     1      -3.869  -2.844  24.130  0.00  0.00    +0.009 C 
ATOM     29  C   UNL     1      -4.065  -3.639  24.032  0.00  0.00    +0.000 C 
ATOM     30  C   UNL     1      -3.714  -2.980  24.928  0.00  0.00    +0.000 C 
ATOM     31  C   UNL     1      -4.024  -2.708  23.330  0.00  0.00    +0.000 C 
ENDBRANCH  27  28
ENDBRANCH  25  27
TORSDOF 4
ENDMDL
MODEL 2
REMARK VINA RESULT:     -12.0      2.098      6.043
REMARK  Name = 
REMARK  4 active torsions:
REMARK  status: ('A' for Active; 'I' for Inactive)
REMARK    1  A    between atoms: O_2  and  C_3
REMARK    2  A    between atoms: C_4  and  C_10
REMARK    3  A    between atoms: C_25  and  C_27
REMARK    4  A    between atoms: C_27  and  C_28
REMARK                            x       y       z     vdW  Elec       q    Type
REMARK                         _______ _______ _______ _____ _____    ______ ____
ROOT
ATOM     10  C   UNL     1      -4.051  -0.624  24.700  0.00  0.00    +0.003 A 
ATOM     11  C   UNL     1      -3.404  -0.112  24.697  0.00  0.00    +0.006 A 
ATOM     12  C   UNL     1      -3.522   0.700  24.785  0.00  0.00    +0.069 A 
ATOM     13  C   UNL     1      -4.285   0.999  24.876  0.00  0.00    +0.078 A 
ATOM     14  N   UNL     1      -4.523   1.783  24.971  0.00  0.00    -0.178 NA
ATOM     15  C   UNL     1      -4.055   2.463  24.999  0.00  0.00    +0.265 C 
ATOM     16  O   UNL     1      -4.461   3.173  25.101  0.00  0.00    -0.271 OA
ATOM     17  C   UNL     1      -3.235   2.525  24.938  0.00  0.00    +0.174 C 
ATOM     18  C   UNL     1      -2.987   3.310  24.994  0.00  0.00    +0.123 C 
ATOM     19  N   UNL     1      -2.185   3.494  24.946  0.00  0.00    -0.276 N 
ATOM     20  C   UNL     1      -1.629   2.893  24.843  0.00  0.00    +0.115 C 
ATOM     21  C   UNL     1      -1.876   2.107  24.787  0.00  0.00    +0.116 C 
ATOM     22  N   UNL     1      -2.679   1.924  24.835  0.00  0.00    -0.266 N 
ATOM     23  C   UNL     1      -2.807   1.112  24.766  0.00  0.00    +0.251 C 
ATOM     24  O   UNL     1      -2.131   0.650  24.667  0.00  0.00    -0.270 OA
ATOM     25  C   UNL     1      -1.937   4.279  25.002  0.00  0.00    +0.226 C 
ATOM     26  O   UNL     1      -2.493   4.880  25.106  0.00  0.00    -0.275 OA
ATOM     32  C   UNL     1      -4.931   0.486  24.879  0.00  0.00    +0.017 A 
ATOM     33  C   UNL     1      -4.814  -0.326  24.791  0.00  0.00    +0.001 A 
ENDROOT
BRANCH  10   4
ATOM      3  C   UNL     1      -3.627  -1.879  25.236  0.00  0.00    +0.139 A 
ATOM      4  C   UNL     1      -3.933  -1.436  24.612  0.00  0.00    +0.035 A 
ATOM      5  C   UNL     1      -4.123  -1.805  23.898  0.00  0.00    +0.014 A 
ATOM      6  C   UNL     1      -4.006  -2.617  23.809  0.00  0.00    +0.058 A 
ATOM      7 CL   UNL     1      -4.195  -2.986  23.096  0.00  0.00    -0.082 Cl
ATOM      8  C   UNL     1      -3.700  -3.060  24.434  0.00  0.00    +0.015 A 
ATOM      9  C   UNL     1      -3.510  -2.691  25.148  0.00  0.00    +0.038 A 
BRANCH   3   2
ATOM      1  C   UNL     1      -3.126  -1.953  26.572  0.00  0.00    +0.252 C 
ATOM      2  O   UNL     1      -3.438  -1.511  25.949  0.00  0.00    -0.471 OA
ENDBRANCH   3   2
ENDBRANCH  10   4
BRANCH  25  27
ATOM     27  C   UNL     1      -1.135   4.463  24.954  0.00  0.00    +0.085 C 
BRANCH  27  28
ATOM     28  C   UNL     1      -0.897   5.229  24.757  0.00  0.00    +0.009 C 
ATOM     29  C   UNL     1      -0.660   5.993  24.560  0.00  0.00    +0.000 C 
ATOM     30  C   UNL     1      -1.389   5.533  25.345  0.00  0.00    +0.000 C 
ATOM     31  C   UNL     1      -0.405   4.924  24.169  0.00  0.00    +0.000 C 
ENDBRANCH  27  28
ENDBRANCH  25  27
TORSDOF 4
ENDMDL
MODEL 3
REMARK VINA RESULT:     -10.4      1.873      5.879
REMARK  Name = 
REMARK  4 active torsions:
REMARK  status: ('A' for Active; 'I' for Inactive)
REMARK    1  A    between atoms: O_2  and  C_3
REMARK    2  A    between atoms: C_4  and  C_10
REMARK    3  A    between atoms: C_25  and  C_27
REMARK    4  A    between atoms: C_27  and  C_28
REMARK                            x       y       z     vdW  Elec       q    Type
REMARK                         _______ _______ _______ _____ _____    ______ ____
ROOT
ATOM     10  C   UNL     1      -2.445  -1.192  24.858  0.00  0.00    +0.003 A 
ATOM     11  C   UNL     1      -2.524  -0.410  24.607  0.00  0.00    +0.006 A 
ATOM     12  C   UNL     1      -2.057   0.180  24.948  0.00  0.00    +0.069 A 
ATOM     13  C   UNL     1      -1.514  -0.012  25.538  0.00  0.00    +0.078 A 
ATOM     14  N   UNL     1      -1.000   0.488  25.946  0.00  0.00    -0.178 NA
ATOM     15  C   UNL     1      -0.902   1.303  25.866  0.00  0.00    +0.265 C 
ATOM     16  O   UNL     1      -0.338   1.647  26.359  0.00  0.00    -0.271 OA
ATOM     17  C   UNL     1      -1.295   1.820  25.357  0.00  0.00    +0.174 C 
ATOM     18  C   UNL     1      -1.031   2.596  25.452  0.00  0.00    +0.123 C 
ATOM     19  N   UNL     1      -1.354   3.201  24.994  0.00  0.00    -0.276 N 
ATOM     20  C   UNL     1      -1.940   3.031  24.440  0.00  0.00    +0.115 C 
ATOM     21  C   UNL     1      -2.205   2.254  24.344  0.00  0.00    +0.116 C 
ATOM     22  N   UNL     1      -1.882   1.650  24.803  0.00  0.00    -0.266 N 
ATOM     23  C   UNL     1      -2.221   0.919  24.621  0.00  0.00    +0.251 C 
ATOM     24  O   UNL     1      -2.801   0.931  24.034  0.00  0.00    -0.270 OA
ATOM     25  C   UNL     1      -1.090   3.977  25.090  0.00  0.00    +0.226 C 
ATOM     26  O   UNL     1      -0.502   4.147  25.645  0.00  0.00    -0.275 OA
ATOM     32  C   UNL     1      -1.436  -0.794  25.788  0.00  0.00    +0.017 A 
ATOM     33  C   UNL     1      -1.902  -1.385  25.448  0.00  0.00    +0.001 A 
ENDROOT
BRANCH  10   4
ATOM      3  C   UNL     1      -2.560  -2.471  24.231  0.00  0.00    +0.139 A 
ATOM      4  C   UNL     1      -2.911  -1.782  24.518  0.00  0.00    +0.035 A 
ATOM      5  C   UNL     1      -3.729  -1.683  24.465  0.00  0.00    +0.014 A 
ATOM      6  C   UNL     1      -4.195  -2.273  24.125  0.00  0.00    +0.058 A 
ATOM      7 CL   UNL     1      -5.012  -2.173  24.073  0.00  0.00    -0.082 Cl
ATOM      8  C   UNL     1      -3.844  -2.962  23.839  0.00  0.00    +0.015 A 
ATOM      9  C   UNL     1      -3.025  -3.061  23.891  0.00  0.00    +0.038 A 
BRANCH   3   2
ATOM      1  C   UNL     1      -1.377  -3.196  23.890  0.00  0.00    +0.252 C 
ATOM      2  O   UNL     1      -1.743  -2.570  24.284  0.00  0.00    -0.471 OA
ENDBRANCH   3   2
ENDBRANCH  10   4
BRANCH  25  27
ATOM     27  C   UNL     1      -1.413   4.581  24.632  0.00  0.00    +0.085 C 
BRANCH  27  28
ATOM     28  C   UNL     1      -1.222   5.368  24.793  0.00  0.00    +0.009 C 
ATOM     29  C   UNL     1      -1.031   6.154  24.954  0.00  0.00    +0.000 C 
ATOM     30  C   UNL     1      -1.908   5.443  25.244  0.00  0.00    +0.000 C 
ATOM     31  C   UNL     1      -0.535   5.294  24.342  0.00  0.00    +0.000 C 
ENDBRANCH  27  28
ENDBRANCH  25  27
TORSDOF 4
ENDMDL
MODEL 4
REMARK VINA RESULT:     -10.3      2.845      4.197
REMARK  Name = 
REMARK  4 active torsions:
REMARK  status: ('A' for Active; 'I' for Inactive)
REMARK    1  A    between atoms: O_2  and  C_3
REMARK    2  A    between atoms: C_4  and  C_10
REMARK    3  A    between atoms: C_25  and  C_27
REMARK    4  A    between atoms: C_27  and  C_28
REMARK                            x       y       z     vdW  Elec       q    Type
REMARK                         _______ _______ _______ _____ _____    ______ ____
ROOT
ATOM     10  C   UNL     1      -4.006   1.122  25.112  0.00  0.00    +0.003 A 
ATOM     11  C   UNL     1      -3.340   1.297  24.657  0.00  0.00    +0.006 A 
ATOM     12  C   UNL     1      -2.699   0.777  24.648  0.00  0.00    +0.069 A 
ATOM     13  C   UNL     1      -2.724   0.084  25.094  0.00  0.00    +0.078 A 
ATOM     14  N   UNL     1      -2.149  -0.505  25.162  0.00  0.00    -0.178 NA
ATOM     15  C   UNL     1      -1.408  -0.544  24.801  0.00  0.00    +0.265 C 
ATOM     16  O   UNL     1      -0.957  -1.210  24.983  0.00  0.00    -0.271 OA
ATOM     17  C   UNL     1      -1.059  -0.005  24.284  0.00  0.00    +0.174 C 
ATOM     18  C   UNL     1      -0.308  -0.255  24.050  0.00  0.00    +0.123 C 
ATOM     19  N   UNL     1       0.137   0.206  23.531  0.00  0.00    -0.276 N 
ATOM     20  C   UNL     1      -0.167   0.918  23.246  0.00  0.00    +0.115 C 
ATOM     21  C   UNL     1      -0.919   1.168  23.480  0.00  0.00    +0.116 C 
ATOM     22  N   UNL     1      -1.363   0.706  23.999  0.00  0.00    -0.266 N 
ATOM     23  C   UNL     1      -2.094   1.055  24.161  0.00  0.00    +0.251 C 
ATOM     24  O   UNL     1      -2.238   1.775  23.787  0.00  0.00    -0.270 OA
ATOM     25  C   UNL     1       0.888  -0.044  23.297  0.00  0.00    +0.226 C 
ATOM     26  O   UNL     1       1.193  -0.756  23.582  0.00  0.00    -0.275 OA
ATOM     32  C   UNL     1      -3.390  -0.091  25.548  0.00  0.00    +0.017 A 
ATOM     33  C   UNL     1      -4.031   0.428  25.558  0.00  0.00    +0.001 A 
ENDROOT
BRANCH  10   4
ATOM      3  C   UNL     1      -4.569   2.387  25.463  0.00  0.00    +0.139 A 
ATOM      4  C   UNL     1      -4.647   1.641  25.122  0.00  0.00    +0.035 A 
ATOM      5  C   UNL     1      -5.368   1.412  24.790  0.00  0.00    +0.014 A 
ATOM      6  C   UNL     1      -6.009   1.931  24.799  0.00  0.00    +0.058 A 
ATOM      7 CL   UNL     1      -6.728   1.703  24.467  0.00  0.00    -0.082 Cl
ATOM      8  C   UNL     1      -5.930   2.678  25.140  0.00  0.00    +0.015 A 
ATOM      9  C   UNL     1      -5.210   2.906  25.473  0.00  0.00    +0.038 A 
BRANCH   3   2
ATOM      1  C   UNL     1      -3.771   3.362  26.138  0.00  0.00    +0.252 C 
ATOM      2  O   UNL     1      -3.849   2.616  25.795  0.00  0.00    -0.471 OA
ENDBRANCH   3   2
ENDBRANCH  10   4
BRANCH  25  27
ATOM     27  C   UNL     1       1.333   0.418  22.778  0.00  0.00    +0.085 C 
BRANCH  27  28
ATOM     28  C   UNL     1       2.095   0.181  22.565  0.00  0.00    +0.009 C 
ATOM     29  C   UNL     1       2.855  -0.055  22.352  0.00  0.00    +0.000 C 
ATOM     30  C   UNL     1       1.781  -0.289  21.964  0.00  0.00    +0.000 C 
ATOM     31  C   UNL     1       2.409   0.651  23.166  0.00  0.00    +0.000 C 
ENDBRANCH  27  28
ENDBRANCH  25  27
TORSDOF 4
ENDMDL
MODEL 5
REMARK VINA RESULT:     -10.0      3.415      5.656
REMARK  Name = 
REMARK  4 active torsions:
REMARK  status: ('A' for Active; 'I' for Inactive)
REMARK    1  A    between atoms: O_2  and  C_3
REMARK    2  A    between atoms: C_4  and  C_10
REMARK    3  A    between atoms: C_25  and  C_27
REMARK    4  A    between atoms: C_27  and  C_28
REMARK                            x       y       z     vdW  Elec       q    Type
REMARK                         _______ _______ _______ _____ _____    ______ ____
ROOT
ATOM     10  C   UNL     1      -2.339  -0.245  24.587  0.00  0.00    +0.003 A 
ATOM     11  C   UNL     1      -1.612  -0.470  24.269  0.00  0.00    +0.006 A 
ATOM     12  C   UNL     1      -1.005   0.084  24.198  0.00  0.00    +0.069 A 
ATOM     13  C   UNL     1      -1.125   0.862  24.444  0.00  0.00    +0.078 A 
ATOM     14  N   UNL     1      -0.597   1.496  24.421  0.00  0.00    -0.178 NA
ATOM     15  C   UNL     1       0.181   1.508  24.147  0.00  0.00    +0.265 C 
ATOM     16  O   UNL     1       0.568   2.235  24.199  0.00  0.00    -0.271 OA
ATOM     17  C   UNL     1       0.624   0.889  23.829  0.00  0.00    +0.174 C 
ATOM     18  C   UNL     1       1.384   1.137  23.623  0.00  0.00    +0.123 C 
ATOM     19  N   UNL     1       1.917   0.601  23.294  0.00  0.00    -0.276 N 
ATOM     20  C   UNL     1       1.691  -0.183  23.170  0.00  0.00    +0.115 C 
ATOM     21  C   UNL     1       0.931  -0.431  23.376  0.00  0.00    +0.116 C 
ATOM     22  N   UNL     1       0.398   0.106  23.705  0.00  0.00    -0.266 N 
ATOM     23  C   UNL     1      -0.327  -0.253  23.869  0.00  0.00    +0.251 C 
ATOM     24  O   UNL     1      -0.381  -1.054  23.680  0.00  0.00    -0.270 OA
ATOM     25  C   UNL     1       2.677   0.848  23.088  0.00  0.00    +0.226 C 
ATOM     26  O   UNL     1       2.903   1.633  23.212  0.00  0.00    -0.275 OA
ATOM     32  C   UNL     1      -1.853   1.087  24.761  0.00  0.00    +0.017 A 
ATOM     33  C   UNL     1      -2.460   0.533  24.833  0.00  0.00    +0.001 A 
ENDROOT
BRANCH  10   4
ATOM      3  C   UNL     1      -3.078  -1.177  25.380  0.00  0.00    +0.139 A 
ATOM      4  C   UNL     1      -2.947  -0.799  24.659  0.00  0.00    +0.035 A 
ATOM      5  C   UNL     1      -3.424  -0.974  24.008  0.00  0.00    +0.014 A 
ATOM      6  C   UNL     1      -4.032  -1.527  24.080  0.00  0.00    +0.058 A 
ATOM      7 CL   UNL     1      -4.509  -1.702  23.430  0.00  0.00    -0.082 Cl
ATOM      8  C   UNL     1      -4.163  -1.905  24.801  0.00  0.00    +0.015 A 
ATOM      9  C   UNL     1      -3.685  -1.730  25.451  0.00  0.00    +0.038 A 
BRANCH   3   2
ATOM      1  C   UNL     1      -2.711  -1.403  26.742  0.00  0.00    +0.252 C 
ATOM      2  O   UNL     1      -2.601  -1.002  26.030  0.00  0.00    -0.471 OA
ENDBRANCH   3   2
ENDBRANCH  10   4
BRANCH  25  27
ATOM     27  C   UNL     1       3.210   0.312  22.759  0.00  0.00    +0.085 C 
BRANCH  27  28
ATOM     28  C   UNL     1       4.019   0.477  22.767  0.00  0.00    +0.009 C 
ATOM     29  C   UNL     1       4.827   0.642  22.774  0.00  0.00    +0.000 C 
ATOM     30  C   UNL     1       4.107   0.012  23.442  0.00  0.00    +0.000 C 
ATOM     31  C   UNL     1       3.931   0.942  22.091  0.00  0.00    +0.000 C 
ENDBRANCH  27  28
ENDBRANCH  25  27
TORSDOF 4
ENDMDL
MODEL 6
REMARK VINA RESULT:      -9.9      3.070      4.465
REMARK  Name = 
REMARK  4 active torsions:
REMARK  status: ('A' for Active; 'I' for Inactive)
REMARK    1  A    between atoms: O_2  and  C_3
REMARK    2  A    between atoms: C_4  and  C_10
REMARK    3  A    between atoms: C_25  and  C_27
REMARK    4  A    between atoms: C_27  and  C_28
REMARK                            x       y       z     vdW  Elec       q    Type
REMARK                         _______ _______ _______ _____ _____    ______ ____
ROOT
ATOM     10  C   UNL     1      -2.395   2.084  24.769  0.00  0.00    +0.003 A 
ATOM     11  C   UNL     1      -1.620   2.221  24.523  0.00  0.00    +0.006 A 
ATOM     12  C   UNL     1      -1.133   1.585  24.321  0.00  0.00    +0.069 A 
ATOM     13  C   UNL     1      -1.423   0.814  24.364  0.00  0.00    +0.078 A 
ATOM     14  N   UNL     1      -1.033   0.108  24.189  0.00  0.00    -0.178 NA
ATOM     15  C   UNL     1      -0.258  -0.001  23.927  0.00  0.00    +0.265 C 
ATOM     16  O   UNL     1      -0.030  -0.783  23.800  0.00  0.00    -0.271 OA
ATOM     17  C   UNL     1       0.318   0.569  23.776  0.00  0.00    +0.174 C 
ATOM     18  C   UNL     1       1.023   0.225  23.521  0.00  0.00    +0.123 C 
ATOM     19  N   UNL     1       1.672   0.700  23.339  0.00  0.00    -0.276 N 
ATOM     20  C   UNL     1       1.617   1.519  23.412  0.00  0.00    +0.115 C 
ATOM     21  C   UNL     1       0.912   1.865  23.667  0.00  0.00    +0.116 C 
ATOM     22  N   UNL     1       0.263   1.389  23.848  0.00  0.00    -0.266 N 
ATOM     23  C   UNL     1      -0.384   1.841  24.091  0.00  0.00    +0.251 C 
ATOM     24  O   UNL     1      -0.264   2.657  24.106  0.00  0.00    -0.270 OA
ATOM     25  C   UNL     1       2.378   0.355  23.084  0.00  0.00    +0.226 C 
ATOM     26  O   UNL     1       2.433  -0.465  23.011  0.00  0.00    -0.275 OA
ATOM     32  C   UNL     1      -2.198   0.678  24.610  0.00  0.00    +0.017 A 
ATOM     33  C   UNL     1      -2.685   1.313  24.812  0.00  0.00    +0.001 A 
ENDROOT
BRANCH  10   4
ATOM      3  C   UNL     1      -3.463   2.976  24.446  0.00  0.00    +0.139 A 
ATOM      4  C   UNL     1      -2.882   2.718  24.971  0.00  0.00    +0.035 A 
ATOM      5  C   UNL     1      -2.786   3.096  25.699  0.00  0.00    +0.014 A 
ATOM      6  C   UNL     1      -3.273   3.730  25.902  0.00  0.00    +0.058 A 
ATOM      7 CL   UNL     1      -3.178   4.107  26.629  0.00  0.00    -0.082 Cl
ATOM      8  C   UNL     1      -3.854   3.988  25.377  0.00  0.00    +0.015 A 
ATOM      9  C   UNL     1      -3.950   3.611  24.648  0.00  0.00    +0.038 A 
BRANCH   3   2
ATOM      1  C   UNL     1      -4.091   2.900  23.165  0.00  0.00    +0.252 C 
ATOM      2  O   UNL     1      -3.559   2.600  23.718  0.00  0.00    -0.471 OA
ENDBRANCH   3   2
ENDBRANCH  10   4
BRANCH  25  27
ATOM     27  C   UNL     1       3.026   0.830  22.903  0.00  0.00    +0.085 C 
BRANCH  27  28
ATOM     28  C   UNL     1       3.741   0.485  22.676  0.00  0.00    +0.009 C 
ATOM     29  C   UNL     1       4.455   0.139  22.450  0.00  0.00    +0.000 C 
ATOM     30  C   UNL     1       3.461   0.412  21.904  0.00  0.00    +0.000 C 
ATOM     31  C   UNL     1       4.021   0.557  23.449  0.00  0.00    +0.000 C 
ENDBRANCH  27  28
ENDBRANCH  25  27
TORSDOF 4
ENDMDL
MODEL 7
REMARK VINA RESULT:      -9.7      3.010      4.699
REMARK  Name = 
REMARK  4 active torsions:
REMARK  status: ('A' for Active; 'I' for Inactive)
REMARK    1  A    between atoms: O_2  and  C_3
REMARK    2  A    between atoms: C_4  and  C_10
REMARK    3  A    between atoms: C_25  and  C_27
REMARK    4  A    between atoms: C_27  and  C_28
REMARK                            x       y       z     vdW  Elec       q    Type
REMARK                         _______ _______ _______ _____ _____    ______ ____
ROOT
ATOM     10  C   UNL     1       0.720  -0.003  23.428  0.00  0.00    +0.003 A 
ATOM     11  C   UNL     1       0.146   0.589  23.447  0.00  0.00    +0.006 A 
ATOM     12  C   UNL     1      -0.557   0.469  23.863  0.00  0.00    +0.069 A 
ATOM     13  C   UNL     1      -0.684  -0.243  24.260  0.00  0.00    +0.078 A 
ATOM     14  N   UNL     1      -1.341  -0.474  24.704  0.00  0.00    -0.178 NA
ATOM     15  C   UNL     1      -2.031  -0.050  24.860  0.00  0.00    +0.265 C 
ATOM     16  O   UNL     1      -2.590  -0.436  25.327  0.00  0.00    -0.271 OA
ATOM     17  C   UNL     1      -2.235   0.710  24.611  0.00  0.00    +0.174 C 
ATOM     18  C   UNL     1      -2.980   0.929  24.892  0.00  0.00    +0.123 C 
ATOM     19  N   UNL     1      -3.289   1.670  24.705  0.00  0.00    -0.276 N 
ATOM     20  C   UNL     1      -2.855   2.193  24.239  0.00  0.00    +0.115 C 
ATOM     21  C   UNL     1      -2.109   1.975  23.958  0.00  0.00    +0.116 C 
ATOM     22  N   UNL     1      -1.801   1.233  24.145  0.00  0.00    -0.266 N 
ATOM     23  C   UNL     1      -1.053   1.125  23.812  0.00  0.00    +0.251 C 
ATOM     24  O   UNL     1      -0.764   1.759  23.369  0.00  0.00    -0.270 OA
ATOM     25  C   UNL     1      -4.034   1.889  24.985  0.00  0.00    +0.226 C 
ATOM     26  O   UNL     1      -4.469   1.365  25.452  0.00  0.00    -0.275 OA
ATOM     32  C   UNL     1      -0.110  -0.835  24.241  0.00  0.00    +0.017 A 
ATOM     33  C   UNL     1       0.593  -0.715  23.825  0.00  0.00    +0.001 A 
ENDROOT
BRANCH  10   4
ATOM      3  C   UNL     1       1.504  -0.177  22.247  0.00  0.00    +0.139 A 
ATOM      4  C   UNL     1       1.423   0.117  23.013  0.00  0.00    +0.035 A 
ATOM      5  C   UNL     1       2.044   0.531  23.364  0.00  0.00    +0.014 A 
ATOM      6  C   UNL     1       2.747   0.651  22.948  0.00  0.00    +0.058 A 
ATOM      7 CL   UNL     1       3.368   1.065  23.299  0.00  0.00    -0.082 Cl
ATOM      8  C   UNL     1       2.828   0.357  22.182  0.00  0.00    +0.015 A 
ATOM      9  C   UNL     1       2.206  -0.058  21.831  0.00  0.00    +0.038 A 
BRANCH   3   2
ATOM      1  C   UNL     1       0.929  -0.808  21.101  0.00  0.00    +0.252 C 
ATOM      2  O   UNL     1       0.883  -0.592  21.895  0.00  0.00    -0.471 OA
ENDBRANCH   3   2
ENDBRANCH  10   4
BRANCH  25  27
ATOM     27  C   UNL     1      -4.343   2.630  24.799  0.00  0.00    +0.085 C 
BRANCH  27  28
ATOM     28  C   UNL     1      -5.025   2.900  25.178  0.00  0.00    +0.009 C 
ATOM     29  C   UNL     1      -5.705   3.171  25.557  0.00  0.00    +0.000 C 
ATOM     30  C   UNL     1      -5.483   2.394  24.716  0.00  0.00    +0.000 C 
ATOM     31  C   UNL     1      -4.566   3.407  25.641  0.00  0.00    +0.000 C 
ENDBRANCH  27  28
ENDBRANCH  25  27
TORSDOF 4
ENDMDL
