REMARK  Name = 
REMARK  5 active torsions:
REMARK  status: ('A' for Active; 'I' for Inactive)
REMARK    1  A    between atoms: C_2  and  C_3
REMARK    2  A    between atoms: C_2  and  C_30
REMARK    3  A    between atoms: C_12  and  C_13
REMARK    4  A    between atoms: C_13  and  S_14
REMARK    5  A    between atoms: S_14  and  C_17
REMARK                            x       y       z     vdW  Elec       q    Type
REMARK                         _______ _______ _______ _____ _____    ______ ____
ROOT
ATOM      3  C   UNL     1       0.715  -1.238   0.000  0.00  0.00    +0.039 C 
ATOM      4  C   UNL     1       0.715  -0.412   0.000  0.00  0.00    +0.003 C 
ATOM      5  C   UNL     1       1.429   0.000   0.000  0.00  0.00    +0.001 C 
ATOM      6  C   UNL     1       2.143  -0.412   0.000  0.00  0.00    +0.007 C 
ATOM      7  C   UNL     1       2.143   0.412   0.000  0.00  0.00    +0.000 C 
ATOM      8  C   UNL     1       2.858   0.000   0.000  0.00  0.00    +0.034 C 
ATOM      9  C   UNL     1       3.572  -0.412   0.000  0.00  0.00    +0.022 A 
ATOM     10  C   UNL     1       3.572  -1.238   0.000  0.00  0.00    +0.061 A 
ATOM     11  N   UNL     1       4.357  -1.492   0.000  0.00  0.00    -0.246 NA
ATOM     12  C   UNL     1       4.842  -0.825   0.000  0.00  0.00    +0.112 A 
ATOM     24  S   UNL     1       4.357  -0.158   0.000  0.00  0.00    -0.074 S 
ATOM     25  C   UNL     1       2.858  -1.650   0.000  0.00  0.00    +0.043 C 
ATOM     26  C   UNL     1       2.858  -2.475   0.000  0.00  0.00    +0.006 C 
ATOM     27  C   UNL     1       2.143  -1.238   0.000  0.00  0.00    +0.036 C 
ATOM     28  C   UNL     1       1.429  -1.650   0.000  0.00  0.00    +0.153 C 
ATOM     29  O   UNL     1       1.429  -2.475   0.000  0.00  0.00    -0.223 OA
ENDROOT
BRANCH   3   2
ATOM      1  C   UNL     1      -0.715  -1.238   0.000  0.00  0.00    +0.010 C 
ATOM      2  C   UNL     1       0.000  -1.650   0.000  0.00  0.00    +0.079 C 
BRANCH   2  30
ATOM     30  C   UNL     1       0.000  -2.475   0.000  0.00  0.00    +0.225 C 
ATOM     31  O   UNL     1       0.715  -2.888   0.000  0.00  0.00    -0.275 OA
ATOM     32  N   UNL     1      -0.715  -2.888   0.000  0.00  0.00    -0.274 N 
ATOM     33  C   UNL     1      -0.715  -3.712   0.000  0.00  0.00    +0.125 C 
ATOM     34  C   UNL     1      -1.429  -4.125   0.000  0.00  0.00    +0.164 C 
ATOM     35  O   UNL     1      -2.143  -3.712   0.000  0.00  0.00    -0.350 OA
ATOM     36  C   UNL     1      -2.143  -2.888   0.000  0.00  0.00    +0.164 C 
ATOM     37  C   UNL     1      -1.429  -2.475   0.000  0.00  0.00    +0.125 C 
ENDBRANCH   2  30
ENDBRANCH   3   2
BRANCH  12  13
ATOM     13  C   UNL     1       5.667  -0.825   0.000  0.00  0.00    +0.208 C 
BRANCH  13  14
ATOM     14  S   UNL     1       6.079  -0.111   0.000  0.00  0.00    +0.015 S 
ATOM     15  O   UNL     1       5.365   0.302   0.000  0.00  0.00    -0.168 OA
ATOM     16  O   UNL     1       6.794  -0.523   0.000  0.00  0.00    -0.168 OA
BRANCH  14  17
ATOM     17  C   UNL     1       6.492   0.604   0.000  0.00  0.00    +0.106 A 
ATOM     18  C   UNL     1       6.079   1.318   0.000  0.00  0.00    +0.019 A 
ATOM     19  C   UNL     1       6.492   2.033   0.000  0.00  0.00    +0.013 A 
ATOM     20  C   UNL     1       7.317   2.033   0.000  0.00  0.00    +0.058 A 
ATOM     21 CL   UNL     1       7.729   2.747   0.000  0.00  0.00    -0.082 Cl
ATOM     22  C   UNL     1       7.729   1.318   0.000  0.00  0.00    +0.013 A 
ATOM     23  C   UNL     1       7.317   0.604   0.000  0.00  0.00    +0.019 A 
ENDBRANCH  14  17
ENDBRANCH  13  14
ENDBRANCH  12  13
TORSDOF 5
