MODEL 1
REMARK VINA RESULT:     -10.5      0.000      0.000
REMARK  Name = 
REMARK  4 active torsions:
REMARK  status: ('A' for Active; 'I' for Inactive)
REMARK    1  A    between atoms: O_2  and  C_3
REMARK    2  A    between atoms: C_3  and  C_4
REMARK    3  A    between atoms: N_12  and  C_13
REMARK    4  A    between atoms: C_13  and  C_14
REMARK                            x       y       z     vdW  Elec       q    Type
REMARK                         _______ _______ _______ _____ _____    ______ ____
ROOT
ATOM      4  C   UNL     1      -1.786   3.240  24.792  0.00  0.00    +0.256 C 
ATOM      5  O   UNL     1      -1.087   2.882  24.539  0.00  0.00    -0.272 OA
ATOM      6  N   UNL     1      -2.482   2.799  24.841  0.00  0.00    -0.274 N 
ATOM      7  C   UNL     1      -3.181   3.158  25.093  0.00  0.00    +0.115 C 
ATOM      8  C   UNL     1      -3.876   2.717  25.142  0.00  0.00    +0.116 C 
ATOM      9  N   UNL     1      -3.874   1.918  24.937  0.00  0.00    -0.261 N 
ATOM     10  C   UNL     1      -3.175   1.559  24.685  0.00  0.00    +0.116 C 
ATOM     11  C   UNL     1      -3.339   0.768  24.521  0.00  0.00    +0.117 C 
ATOM     12  N   UNL     1      -4.139   0.637  24.672  0.00  0.00    -0.258 N 
ATOM     21  C   UNL     1      -4.469   1.348  24.930  0.00  0.00    +0.308 C 
ATOM     22  O   UNL     1      -5.257   1.468  25.142  0.00  0.00    -0.252 OA
ATOM     23  C   UNL     1      -2.479   2.000  24.636  0.00  0.00    +0.115 C 
ENDROOT
BRANCH   4   3
ATOM      3  C   UNL     1      -1.790   4.039  24.997  0.00  0.00    +0.227 C 
BRANCH   3   2
ATOM      1  C   UNL     1      -1.120   5.302  25.000  0.00  0.00    +0.175 C 
ATOM      2  O   UNL     1      -1.092   4.479  24.955  0.00  0.00    -0.342 OA
ENDBRANCH   3   2
ENDBRANCH   4   3
BRANCH  12  13
ATOM     13  C   UNL     1      -4.539  -0.079  24.582  0.00  0.00    +0.122 C 
BRANCH  13  14
ATOM     14  C   UNL     1      -4.136  -0.792  24.680  0.00  0.00    -0.002 A 
ATOM     15  C   UNL     1      -3.865  -1.014  25.426  0.00  0.00    -0.000 A 
ATOM     16  C   UNL     1      -3.462  -1.728  25.522  0.00  0.00    +0.029 A 
ATOM     17  C   UNL     1      -3.331  -2.219  24.873  0.00  0.00    +0.140 A 
ATOM     18  F   UNL     1      -2.928  -2.933  24.969  0.00  0.00    -0.204 F 
ATOM     19  C   UNL     1      -3.603  -1.997  24.126  0.00  0.00    +0.029 A 
ATOM     20  C   UNL     1      -4.005  -1.284  24.029  0.00  0.00    -0.000 A 
ENDBRANCH  13  14
ENDBRANCH  12  13
TORSDOF 4
ENDMDL
MODEL 2
REMARK VINA RESULT:      -9.5      2.349      5.190
REMARK  Name = 
REMARK  4 active torsions:
REMARK  status: ('A' for Active; 'I' for Inactive)
REMARK    1  A    between atoms: O_2  and  C_3
REMARK    2  A    between atoms: C_3  and  C_4
REMARK    3  A    between atoms: N_12  and  C_13
REMARK    4  A    between atoms: C_13  and  C_14
REMARK                            x       y       z     vdW  Elec       q    Type
REMARK                         _______ _______ _______ _____ _____    ______ ____
ROOT
ATOM      4  C   UNL     1      -3.638  -0.280  24.344  0.00  0.00    +0.256 C 
ATOM      5  O   UNL     1      -4.351   0.131  24.394  0.00  0.00    -0.272 OA
ATOM      6  N   UNL     1      -2.934   0.085  24.574  0.00  0.00    -0.274 N 
ATOM      7  C   UNL     1      -2.220  -0.326  24.523  0.00  0.00    +0.115 C 
ATOM      8  C   UNL     1      -1.517   0.039  24.754  0.00  0.00    +0.116 C 
ATOM      9  N   UNL     1      -1.527   0.814  25.035  0.00  0.00    -0.261 N 
ATOM     10  C   UNL     1      -2.241   1.225  25.085  0.00  0.00    +0.116 C 
ATOM     11  C   UNL     1      -2.081   1.978  25.381  0.00  0.00    +0.117 C 
ATOM     12  N   UNL     1      -1.269   2.033  25.514  0.00  0.00    -0.258 N 
ATOM     21  C   UNL     1      -0.927   1.314  25.299  0.00  0.00    +0.308 C 
ATOM     22  O   UNL     1      -0.125   1.126  25.342  0.00  0.00    -0.252 OA
ATOM     23  C   UNL     1      -2.945   0.860  24.855  0.00  0.00    +0.115 C 
ENDROOT
BRANCH   4   3
ATOM      3  C   UNL     1      -3.627  -1.056  24.063  0.00  0.00    +0.227 C 
BRANCH   3   2
ATOM      1  C   UNL     1      -4.336  -2.257  23.754  0.00  0.00    +0.175 C 
ATOM      2  O   UNL     1      -4.336  -1.445  23.899  0.00  0.00    -0.342 OA
ENDBRANCH   3   2
ENDBRANCH   4   3
BRANCH  12  13
ATOM     13  C   UNL     1      -0.869   2.691  25.809  0.00  0.00    +0.122 C 
BRANCH  13  14
ATOM     14  C   UNL     1      -1.085   3.449  25.565  0.00  0.00    -0.002 A 
ATOM     15  C   UNL     1      -1.743   3.819  25.898  0.00  0.00    -0.000 A 
ATOM     16  C   UNL     1      -1.957   4.577  25.653  0.00  0.00    +0.029 A 
ATOM     17  C   UNL     1      -1.515   4.965  25.076  0.00  0.00    +0.140 A 
ATOM     18  F   UNL     1      -1.729   5.723  24.831  0.00  0.00    -0.204 F 
ATOM     19  C   UNL     1      -0.856   4.596  24.743  0.00  0.00    +0.029 A 
ATOM     20  C   UNL     1      -0.641   3.838  24.987  0.00  0.00    -0.000 A 
ENDBRANCH  13  14
ENDBRANCH  12  13
TORSDOF 4
ENDMDL
MODEL 3
REMARK VINA RESULT:      -9.5      2.276      4.737
REMARK  Name = 
REMARK  4 active torsions:
REMARK  status: ('A' for Active; 'I' for Inactive)
REMARK    1  A    between atoms: O_2  and  C_3
REMARK    2  A    between atoms: C_3  and  C_4
REMARK    3  A    between atoms: N_12  and  C_13
REMARK    4  A    between atoms: C_13  and  C_14
REMARK                            x       y       z     vdW  Elec       q    Type
REMARK                         _______ _______ _______ _____ _____    ______ ____
ROOT
ATOM      4  C   UNL     1      -3.096  -0.968  24.555  0.00  0.00    +0.256 C 
ATOM      5  O   UNL     1      -2.300  -0.931  24.342  0.00  0.00    -0.272 OA
ATOM      6  N   UNL     1      -3.524  -0.273  24.677  0.00  0.00    -0.274 N 
ATOM      7  C   UNL     1      -4.320  -0.310  24.890  0.00  0.00    +0.115 C 
ATOM      8  C   UNL     1      -4.747   0.384  25.012  0.00  0.00    +0.116 C 
ATOM      9  N   UNL     1      -4.379   1.117  24.921  0.00  0.00    -0.261 N 
ATOM     10  C   UNL     1      -3.583   1.155  24.708  0.00  0.00    +0.116 C 
ATOM     11  C   UNL     1      -3.369   1.949  24.659  0.00  0.00    +0.117 C 
ATOM     12  N   UNL     1      -4.033   2.404  24.842  0.00  0.00    -0.258 N 
ATOM     21  C   UNL     1      -4.656   1.889  25.004  0.00  0.00    +0.308 C 
ATOM     22  O   UNL     1      -5.424   2.108  25.212  0.00  0.00    -0.252 OA
ATOM     23  C   UNL     1      -3.155   0.459  24.586  0.00  0.00    +0.115 C 
ENDROOT
BRANCH   4   3
ATOM      3  C   UNL     1      -3.466  -1.700  24.646  0.00  0.00    +0.227 C 
BRANCH   3   2
ATOM      1  C   UNL     1      -3.429  -3.125  24.534  0.00  0.00    +0.175 C 
ATOM      2  O   UNL     1      -3.045  -2.395  24.498  0.00  0.00    -0.342 OA
ENDBRANCH   3   2
ENDBRANCH   4   3
BRANCH  12  13
ATOM     13  C   UNL     1      -4.067   3.228  24.860  0.00  0.00    +0.122 C 
BRANCH  13  14
ATOM     14  C   UNL     1      -3.397   3.664  25.063  0.00  0.00    -0.002 A 
ATOM     15  C   UNL     1      -3.228   3.817  25.856  0.00  0.00    -0.000 A 
ATOM     16  C   UNL     1      -2.558   4.254  26.058  0.00  0.00    +0.029 A 
ATOM     17  C   UNL     1      -2.057   4.538  25.468  0.00  0.00    +0.140 A 
ATOM     18  F   UNL     1      -1.387   4.975  25.670  0.00  0.00    -0.204 F 
ATOM     19  C   UNL     1      -2.226   4.385  24.675  0.00  0.00    +0.029 A 
ATOM     20  C   UNL     1      -2.895   3.949  24.472  0.00  0.00    -0.000 A 
ENDBRANCH  13  14
ENDBRANCH  12  13
TORSDOF 4
ENDMDL
MODEL 4
REMARK VINA RESULT:      -9.4      1.758      2.527
REMARK  Name = 
REMARK  4 active torsions:
REMARK  status: ('A' for Active; 'I' for Inactive)
REMARK    1  A    between atoms: O_2  and  C_3
REMARK    2  A    between atoms: C_3  and  C_4
REMARK    3  A    between atoms: N_12  and  C_13
REMARK    4  A    between atoms: C_13  and  C_14
REMARK                            x       y       z     vdW  Elec       q    Type
REMARK                         _______ _______ _______ _____ _____    ______ ____
ROOT
ATOM      4  C   UNL     1      -5.368   2.813  25.493  0.00  0.00    +0.256 C 
ATOM      5  O   UNL     1      -5.928   2.408  25.945  0.00  0.00    -0.272 OA
ATOM      6  N   UNL     1      -4.829   2.392  25.031  0.00  0.00    -0.274 N 
ATOM      7  C   UNL     1      -4.270   2.796  24.579  0.00  0.00    +0.115 C 
ATOM      8  C   UNL     1      -3.731   2.376  24.117  0.00  0.00    +0.116 C 
ATOM      9  N   UNL     1      -3.751   1.551  24.106  0.00  0.00    -0.261 N 
ATOM     10  C   UNL     1      -4.311   1.147  24.558  0.00  0.00    +0.116 C 
ATOM     11  C   UNL     1      -4.199   0.339  24.438  0.00  0.00    +0.117 C 
ATOM     12  N   UNL     1      -3.571   0.243  23.913  0.00  0.00    -0.258 N 
ATOM     21  C   UNL     1      -3.295   0.993  23.708  0.00  0.00    +0.308 C 
ATOM     22  O   UNL     1      -2.670   1.155  23.193  0.00  0.00    -0.252 OA
ATOM     23  C   UNL     1      -4.850   1.567  25.021  0.00  0.00    +0.115 C 
ENDROOT
BRANCH   4   3
ATOM      3  C   UNL     1      -5.347   3.637  25.503  0.00  0.00    +0.227 C 
BRANCH   3   2
ATOM      1  C   UNL     1      -6.015   4.884  25.705  0.00  0.00    +0.175 C 
ATOM      2  O   UNL     1      -5.999   4.063  25.778  0.00  0.00    -0.342 OA
ENDBRANCH   3   2
ENDBRANCH   4   3
BRANCH  12  13
ATOM     13  C   UNL     1      -3.272  -0.476  23.640  0.00  0.00    +0.122 C 
BRANCH  13  14
ATOM     14  C   UNL     1      -3.349  -1.156  24.100  0.00  0.00    -0.002 A 
ATOM     15  C   UNL     1      -3.953  -1.696  23.941  0.00  0.00    -0.000 A 
ATOM     16  C   UNL     1      -4.028  -2.376  24.402  0.00  0.00    +0.029 A 
ATOM     17  C   UNL     1      -3.502  -2.517  25.020  0.00  0.00    +0.140 A 
ATOM     18  F   UNL     1      -3.578  -3.197  25.481  0.00  0.00    -0.204 F 
ATOM     19  C   UNL     1      -2.898  -1.977  25.179  0.00  0.00    +0.029 A 
ATOM     20  C   UNL     1      -2.821  -1.297  24.719  0.00  0.00    -0.000 A 
ENDBRANCH  13  14
ENDBRANCH  12  13
TORSDOF 4
ENDMDL
MODEL 5
REMARK VINA RESULT:      -9.2      1.750      2.394
REMARK  Name = 
REMARK  4 active torsions:
REMARK  status: ('A' for Active; 'I' for Inactive)
REMARK    1  A    between atoms: O_2  and  C_3
REMARK    2  A    between atoms: C_3  and  C_4
REMARK    3  A    between atoms: N_12  and  C_13
REMARK    4  A    between atoms: C_13  and  C_14
REMARK                            x       y       z     vdW  Elec       q    Type
REMARK                         _______ _______ _______ _____ _____    ______ ____
ROOT
ATOM      4  C   UNL     1      -1.613   2.922  25.135  0.00  0.00    +0.256 C 
ATOM      5  O   UNL     1      -2.344   3.059  25.492  0.00  0.00    -0.272 OA
ATOM      6  N   UNL     1      -1.342   2.150  25.030  0.00  0.00    -0.274 N 
ATOM      7  C   UNL     1      -0.611   2.013  24.674  0.00  0.00    +0.115 C 
ATOM      8  C   UNL     1      -0.341   1.242  24.569  0.00  0.00    +0.116 C 
ATOM      9  N   UNL     1      -0.801   0.605  24.821  0.00  0.00    -0.261 N 
ATOM     10  C   UNL     1      -1.533   0.741  25.177  0.00  0.00    +0.116 C 
ATOM     11  C   UNL     1      -1.863   0.010  25.368  0.00  0.00    +0.117 C 
ATOM     12  N   UNL     1      -1.337  -0.578  25.130  0.00  0.00    -0.258 N 
ATOM     21  C   UNL     1      -0.681  -0.210  24.792  0.00  0.00    +0.308 C 
ATOM     22  O   UNL     1      -0.019  -0.591  24.478  0.00  0.00    -0.252 OA
ATOM     23  C   UNL     1      -1.804   1.514  25.282  0.00  0.00    +0.115 C 
ENDROOT
BRANCH   4   3
ATOM      3  C   UNL     1      -1.152   3.558  24.883  0.00  0.00    +0.227 C 
BRANCH   3   2
ATOM      1  C   UNL     1      -0.896   4.964  24.853  0.00  0.00    +0.175 C 
ATOM      2  O   UNL     1      -1.385   4.331  25.057  0.00  0.00    -0.342 OA
ENDBRANCH   3   2
ENDBRANCH   4   3
BRANCH  12  13
ATOM     13  C   UNL     1      -1.447  -1.391  25.215  0.00  0.00    +0.122 C 
BRANCH  13  14
ATOM     14  C   UNL     1      -2.164  -1.736  24.998  0.00  0.00    -0.002 A 
ATOM     15  C   UNL     1      -2.809  -1.705  25.513  0.00  0.00    -0.000 A 
ATOM     16  C   UNL     1      -3.526  -2.050  25.295  0.00  0.00    +0.029 A 
ATOM     17  C   UNL     1      -3.599  -2.425  24.564  0.00  0.00    +0.140 A 
ATOM     18  F   UNL     1      -4.316  -2.770  24.347  0.00  0.00    -0.204 F 
ATOM     19  C   UNL     1      -2.955  -2.456  24.050  0.00  0.00    +0.029 A 
ATOM     20  C   UNL     1      -2.237  -2.111  24.267  0.00  0.00    -0.000 A 
ENDBRANCH  13  14
ENDBRANCH  12  13
TORSDOF 4
ENDMDL
MODEL 6
REMARK VINA RESULT:      -9.1      2.972      3.464
REMARK  Name = 
REMARK  4 active torsions:
REMARK  status: ('A' for Active; 'I' for Inactive)
REMARK    1  A    between atoms: O_2  and  C_3
REMARK    2  A    between atoms: C_3  and  C_4
REMARK    3  A    between atoms: N_12  and  C_13
REMARK    4  A    between atoms: C_13  and  C_14
REMARK                            x       y       z     vdW  Elec       q    Type
REMARK                         _______ _______ _______ _____ _____    ______ ____
ROOT
ATOM      4  C   UNL     1       1.109  -0.054  23.240  0.00  0.00    +0.256 C 
ATOM      5  O   UNL     1       1.237  -0.824  22.971  0.00  0.00    -0.272 OA
ATOM      6  N   UNL     1       0.426   0.125  23.668  0.00  0.00    -0.274 N 
ATOM      7  C   UNL     1       0.298   0.895  23.937  0.00  0.00    +0.115 C 
ATOM      8  C   UNL     1      -0.384   1.074  24.364  0.00  0.00    +0.116 C 
ATOM      9  N   UNL     1      -0.939   0.484  24.523  0.00  0.00    -0.261 N 
ATOM     10  C   UNL     1      -0.811  -0.285  24.254  0.00  0.00    +0.116 C 
ATOM     11  C   UNL     1      -1.450  -0.748  24.493  0.00  0.00    +0.117 C 
ATOM     12  N   UNL     1      -1.973  -0.265  24.909  0.00  0.00    -0.258 N 
ATOM     21  C   UNL     1      -1.657   0.496  24.927  0.00  0.00    +0.308 C 
ATOM     22  O   UNL     1      -1.999   1.155  25.288  0.00  0.00    -0.252 OA
ATOM     23  C   UNL     1      -0.128  -0.465  23.826  0.00  0.00    +0.115 C 
ENDROOT
BRANCH   4   3
ATOM      3  C   UNL     1       1.663   0.536  23.082  0.00  0.00    +0.227 C 
BRANCH   3   2
ATOM      1  C   UNL     1       3.007   0.867  22.727  0.00  0.00    +0.175 C 
ATOM      2  O   UNL     1       2.368   0.347  22.696  0.00  0.00    -0.342 OA
ENDBRANCH   3   2
ENDBRANCH   4   3
BRANCH  12  13
ATOM     13  C   UNL     1      -2.687  -0.503  25.247  0.00  0.00    +0.122 C 
BRANCH  13  14
ATOM     14  C   UNL     1      -3.166  -1.051  24.859  0.00  0.00    -0.002 A 
ATOM     15  C   UNL     1      -3.102  -1.854  25.036  0.00  0.00    -0.000 A 
ATOM     16  C   UNL     1      -3.582  -2.401  24.648  0.00  0.00    +0.029 A 
ATOM     17  C   UNL     1      -4.125  -2.146  24.083  0.00  0.00    +0.140 A 
ATOM     18  F   UNL     1      -4.605  -2.693  23.694  0.00  0.00    -0.204 F 
ATOM     19  C   UNL     1      -4.190  -1.343  23.906  0.00  0.00    +0.029 A 
ATOM     20  C   UNL     1      -3.711  -0.795  24.294  0.00  0.00    -0.000 A 
ENDBRANCH  13  14
ENDBRANCH  12  13
TORSDOF 4
ENDMDL
MODEL 7
REMARK VINA RESULT:      -9.1      2.830      3.673
REMARK  Name = 
REMARK  4 active torsions:
REMARK  status: ('A' for Active; 'I' for Inactive)
REMARK    1  A    between atoms: O_2  and  C_3
REMARK    2  A    between atoms: C_3  and  C_4
REMARK    3  A    between atoms: N_12  and  C_13
REMARK    4  A    between atoms: C_13  and  C_14
REMARK                            x       y       z     vdW  Elec       q    Type
REMARK                         _______ _______ _______ _____ _____    ______ ____
ROOT
ATOM      4  C   UNL     1      -0.776   0.788  24.183  0.00  0.00    +0.256 C 
ATOM      5  O   UNL     1      -0.684   0.545  24.966  0.00  0.00    -0.272 OA
ATOM      6  N   UNL     1      -1.421   1.257  23.970  0.00  0.00    -0.274 N 
ATOM      7  C   UNL     1      -1.514   1.500  23.187  0.00  0.00    +0.115 C 
ATOM      8  C   UNL     1      -2.158   1.968  22.974  0.00  0.00    +0.116 C 
ATOM      9  N   UNL     1      -2.710   2.195  23.543  0.00  0.00    -0.261 N 
ATOM     10  C   UNL     1      -2.618   1.952  24.326  0.00  0.00    +0.116 C 
ATOM     11  C   UNL     1      -3.246   2.258  24.764  0.00  0.00    +0.117 C 
ATOM     12  N   UNL     1      -3.727   2.690  24.252  0.00  0.00    -0.258 N 
ATOM     21  C   UNL     1      -3.395   2.651  23.498  0.00  0.00    +0.308 C 
ATOM     22  O   UNL     1      -3.697   3.006  22.816  0.00  0.00    -0.252 OA
ATOM     23  C   UNL     1      -1.973   1.483  24.540  0.00  0.00    +0.115 C 
ENDROOT
BRANCH   4   3
ATOM      3  C   UNL     1      -0.225   0.562  23.613  0.00  0.00    +0.227 C 
BRANCH   3   2
ATOM      1  C   UNL     1       0.909  -0.219  23.230  0.00  0.00    +0.175 C 
ATOM      2  O   UNL     1       0.346  -0.007  23.794  0.00  0.00    -0.342 OA
ENDBRANCH   3   2
ENDBRANCH   4   3
BRANCH  12  13
ATOM     13  C   UNL     1      -4.418   3.092  24.458  0.00  0.00    +0.122 C 
BRANCH  13  14
ATOM     14  C   UNL     1      -4.964   2.739  24.965  0.00  0.00    -0.002 A 
ATOM     15  C   UNL     1      -5.446   2.128  24.693  0.00  0.00    -0.000 A 
ATOM     16  C   UNL     1      -5.992   1.776  25.203  0.00  0.00    +0.029 A 
ATOM     17  C   UNL     1      -6.056   2.036  25.982  0.00  0.00    +0.140 A 
ATOM     18  F   UNL     1      -6.603   1.684  26.491  0.00  0.00    -0.204 F 
ATOM     19  C   UNL     1      -5.574   2.647  26.254  0.00  0.00    +0.029 A 
ATOM     20  C   UNL     1      -5.028   3.000  25.747  0.00  0.00    -0.000 A 
ENDBRANCH  13  14
ENDBRANCH  12  13
TORSDOF 4
ENDMDL
