MODEL 1
REMARK VINA RESULT:      -8.9      0.000      0.000
REMARK  Name = 
REMARK  3 active torsions:
REMARK  status: ('A' for Active; 'I' for Inactive)
REMARK    1  A    between atoms: C_2  and  C_3
REMARK    2  A    between atoms: C_2  and  C_28
REMARK    3  A    between atoms: C_14  and  C_16
REMARK                            x       y       z     vdW  Elec       q    Type
REMARK                         _______ _______ _______ _____ _____    ______ ____
ROOT
ATOM      3  C   UNL     1      -2.720   2.038  24.628  0.00  0.00    +0.039 C 
ATOM      4  C   UNL     1      -2.838   1.260  24.378  0.00  0.00    +0.003 C 
ATOM      5  C   UNL     1      -2.199   0.811  24.114  0.00  0.00    +0.001 C 
ATOM      6  C   UNL     1      -1.442   1.138  24.099  0.00  0.00    +0.007 C 
ATOM      7  C   UNL     1      -1.560   0.362  23.849  0.00  0.00    +0.000 C 
ATOM      8  C   UNL     1      -0.803   0.690  23.834  0.00  0.00    +0.034 C 
ATOM      9  C   UNL     1      -0.046   1.017  23.819  0.00  0.00    +0.023 A 
ATOM     10  C   UNL     1       0.071   1.796  24.069  0.00  0.00    +0.063 A 
ATOM     11  N   UNL     1       0.874   1.968  23.993  0.00  0.00    -0.227 NA
ATOM     12  C   UNL     1       1.253   1.299  23.696  0.00  0.00    +0.185 A 
ATOM     13  N   UNL     1       2.059   1.229  23.535  0.00  0.00    -0.151 NA
ATOM     14  C   UNL     1       2.360   0.521  23.238  0.00  0.00    +0.271 C 
ATOM     15  O   UNL     1       1.856  -0.118  23.102  0.00  0.00    -0.268 OA
ATOM     22  S   UNL     1       0.684   0.711  23.589  0.00  0.00    -0.054 S 
ATOM     23  C   UNL     1      -0.568   2.245  24.333  0.00  0.00    +0.043 C 
ATOM     24  C   UNL     1      -0.450   3.022  24.583  0.00  0.00    +0.006 C 
ATOM     25  C   UNL     1      -1.325   1.917  24.349  0.00  0.00    +0.036 C 
ATOM     26  C   UNL     1      -1.964   2.366  24.613  0.00  0.00    +0.153 C 
ATOM     27  O   UNL     1      -1.846   3.143  24.863  0.00  0.00    -0.223 OA
ENDROOT
BRANCH  14  16
ATOM     16  C   UNL     1       3.166   0.451  23.077  0.00  0.00    +0.059 A 
ATOM     17  C   UNL     1       3.596  -0.183  23.385  0.00  0.00    +0.025 A 
ATOM     18  C   UNL     1       4.402  -0.253  23.224  0.00  0.00    +0.099 A 
ATOM     19  N   UNL     1       4.778   0.311  22.754  0.00  0.00    -0.242 NA
ATOM     20  C   UNL     1       4.350   0.944  22.445  0.00  0.00    +0.099 A 
ATOM     21  C   UNL     1       3.544   1.014  22.607  0.00  0.00    +0.025 A 
ENDBRANCH  14  16
BRANCH   3   2
ATOM      1  C   UNL     1      -3.290   2.945  25.575  0.00  0.00    +0.010 C 
ATOM      2  C   UNL     1      -3.360   2.487  24.892  0.00  0.00    +0.079 C 
BRANCH   2  28
ATOM     28  C   UNL     1      -4.071   2.478  24.474  0.00  0.00    +0.225 C 
ATOM     29  O   UNL     1      -4.071   2.601  23.657  0.00  0.00    -0.275 OA
ATOM     30  N   UNL     1      -4.782   2.345  24.871  0.00  0.00    -0.278 N 
ATOM     31  C   UNL     1      -5.492   2.335  24.452  0.00  0.00    +0.105 C 
ATOM     32  C   UNL     1      -6.203   2.202  24.849  0.00  0.00    +0.079 C 
ATOM     33  S   UNL     1      -6.203   2.079  25.664  0.00  0.00    -0.137 S 
ATOM     34  C   UNL     1      -5.493   2.088  26.082  0.00  0.00    +0.079 C 
ATOM     35  C   UNL     1      -4.782   2.221  25.686  0.00  0.00    +0.105 C 
ENDBRANCH   2  28
ENDBRANCH   3   2
TORSDOF 3
ENDMDL
MODEL 2
REMARK VINA RESULT:      -8.4     15.482     16.987
REMARK  Name = 
REMARK  3 active torsions:
REMARK  status: ('A' for Active; 'I' for Inactive)
REMARK    1  A    between atoms: C_2  and  C_3
REMARK    2  A    between atoms: C_2  and  C_28
REMARK    3  A    between atoms: C_14  and  C_16
REMARK                            x       y       z     vdW  Elec       q    Type
REMARK                         _______ _______ _______ _____ _____    ______ ____
ROOT
ATOM      3  C   UNL     1      -5.439 -10.110  12.278  0.00  0.00    +0.039 C 
ATOM      4  C   UNL     1      -4.655 -10.267  12.484  0.00  0.00    +0.003 C 
ATOM      5  C   UNL     1      -4.453 -10.384  13.275  0.00  0.00    +0.001 C 
ATOM      6  C   UNL     1      -5.032 -10.344  13.859  0.00  0.00    +0.007 C 
ATOM      7  C   UNL     1      -4.250 -10.501  14.065  0.00  0.00    +0.000 C 
ATOM      8  C   UNL     1      -4.830 -10.460  14.651  0.00  0.00    +0.034 C 
ATOM      9  C   UNL     1      -5.410 -10.420  15.235  0.00  0.00    +0.023 A 
ATOM     10  C   UNL     1      -6.194 -10.263  15.029  0.00  0.00    +0.063 A 
ATOM     11  N   UNL     1      -6.643 -10.256  15.721  0.00  0.00    -0.227 NA
ATOM     12  C   UNL     1      -6.137 -10.409  16.355  0.00  0.00    +0.185 A 
ATOM     13  N   UNL     1      -6.355 -10.453  17.150  0.00  0.00    -0.151 NA
ATOM     14  C   UNL     1      -5.787 -10.611  17.725  0.00  0.00    +0.271 C 
ATOM     15  O   UNL     1      -4.999 -10.726  17.507  0.00  0.00    -0.268 OA
ATOM     22  S   UNL     1      -5.376 -10.510  16.055  0.00  0.00    -0.054 S 
ATOM     23  C   UNL     1      -6.397 -10.146  14.238  0.00  0.00    +0.043 C 
ATOM     24  C   UNL     1      -7.180  -9.988  14.032  0.00  0.00    +0.006 C 
ATOM     25  C   UNL     1      -5.816 -10.186  13.653  0.00  0.00    +0.036 C 
ATOM     26  C   UNL     1      -6.019 -10.069  12.862  0.00  0.00    +0.153 C 
ATOM     27  O   UNL     1      -6.802  -9.912  12.656  0.00  0.00    -0.223 OA
ENDROOT
BRANCH  14  16
ATOM     16  C   UNL     1      -6.004 -10.655  18.519  0.00  0.00    +0.059 A 
ATOM     17  C   UNL     1      -5.426 -10.737  19.102  0.00  0.00    +0.025 A 
ATOM     18  C   UNL     1      -5.644 -10.781  19.897  0.00  0.00    +0.099 A 
ATOM     19  N   UNL     1      -6.440 -10.744  20.108  0.00  0.00    -0.242 NA
ATOM     20  C   UNL     1      -7.019 -10.662  19.526  0.00  0.00    +0.099 A 
ATOM     21  C   UNL     1      -6.801 -10.618  18.732  0.00  0.00    +0.025 A 
ENDBRANCH  14  16
BRANCH   3   2
ATOM      1  C   UNL     1      -6.179 -10.499  11.117  0.00  0.00    +0.010 C 
ATOM      2  C   UNL     1      -5.641  -9.993  11.486  0.00  0.00    +0.079 C 
BRANCH   2  28
ATOM     28  C   UNL     1      -5.306  -9.370  11.063  0.00  0.00    +0.225 C 
ATOM     29  O   UNL     1      -5.281  -8.613  11.393  0.00  0.00    -0.275 OA
ATOM     30  N   UNL     1      -4.995  -9.502  10.310  0.00  0.00    -0.278 N 
ATOM     31  C   UNL     1      -4.659  -8.879   9.887  0.00  0.00    +0.105 C 
ATOM     32  C   UNL     1      -4.349  -9.011   9.134  0.00  0.00    +0.079 C 
ATOM     33  S   UNL     1      -4.374  -9.767   8.805  0.00  0.00    -0.137 S 
ATOM     34  C   UNL     1      -4.709 -10.390   9.228  0.00  0.00    +0.079 C 
ATOM     35  C   UNL     1      -5.020 -10.258   9.981  0.00  0.00    +0.105 C 
ENDBRANCH   2  28
ENDBRANCH   3   2
TORSDOF 3
ENDMDL
MODEL 3
REMARK VINA RESULT:      -7.4     16.999     17.931
REMARK  Name = 
REMARK  3 active torsions:
REMARK  status: ('A' for Active; 'I' for Inactive)
REMARK    1  A    between atoms: C_2  and  C_3
REMARK    2  A    between atoms: C_2  and  C_28
REMARK    3  A    between atoms: C_14  and  C_16
REMARK                            x       y       z     vdW  Elec       q    Type
REMARK                         _______ _______ _______ _____ _____    ______ ____
ROOT
ATOM      3  C   UNL     1      -5.548  -9.902   9.615  0.00  0.00    +0.039 C 
ATOM      4  C   UNL     1      -4.799  -9.719   9.319  0.00  0.00    +0.003 C 
ATOM      5  C   UNL     1      -4.144  -9.730   9.820  0.00  0.00    +0.001 C 
ATOM      6  C   UNL     1      -4.237  -9.924  10.616  0.00  0.00    +0.007 C 
ATOM      7  C   UNL     1      -3.490  -9.742  10.321  0.00  0.00    +0.000 C 
ATOM      8  C   UNL     1      -3.582  -9.936  11.118  0.00  0.00    +0.034 C 
ATOM      9  C   UNL     1      -3.675 -10.130  11.914  0.00  0.00    +0.023 A 
ATOM     10  C   UNL     1      -4.425 -10.313  12.209  0.00  0.00    +0.063 A 
ATOM     11  N   UNL     1      -4.346 -10.482  13.013  0.00  0.00    -0.227 NA
ATOM     12  C   UNL     1      -3.550 -10.404  13.215  0.00  0.00    +0.185 A 
ATOM     13  N   UNL     1      -3.226 -10.523  13.964  0.00  0.00    -0.151 NA
ATOM     14  C   UNL     1      -2.416 -10.424  14.083  0.00  0.00    +0.271 C 
ATOM     15  O   UNL     1      -1.930 -10.206  13.453  0.00  0.00    -0.268 OA
ATOM     22  S   UNL     1      -3.136 -10.186  12.536  0.00  0.00    -0.054 S 
ATOM     23  C   UNL     1      -5.079 -10.301  11.709  0.00  0.00    +0.043 C 
ATOM     24  C   UNL     1      -5.828 -10.484  12.004  0.00  0.00    +0.006 C 
ATOM     25  C   UNL     1      -4.987 -10.107  10.912  0.00  0.00    +0.036 C 
ATOM     26  C   UNL     1      -5.641 -10.096  10.411  0.00  0.00    +0.153 C 
ATOM     27  O   UNL     1      -6.390 -10.278  10.706  0.00  0.00    -0.223 OA
ENDROOT
BRANCH  14  16
ATOM     16  C   UNL     1      -2.092 -10.542  14.832  0.00  0.00    +0.059 A 
ATOM     17  C   UNL     1      -1.274 -10.617  14.921  0.00  0.00    +0.025 A 
ATOM     18  C   UNL     1      -0.950 -10.735  15.670  0.00  0.00    +0.099 A 
ATOM     19  N   UNL     1      -1.443 -10.780  16.330  0.00  0.00    -0.242 NA
ATOM     20  C   UNL     1      -2.259 -10.706  16.242  0.00  0.00    +0.099 A 
ATOM     21  C   UNL     1      -2.583 -10.587  15.493  0.00  0.00    +0.025 A 
ENDBRANCH  14  16
BRANCH   3   2
ATOM      1  C   UNL     1      -6.534 -10.598   8.848  0.00  0.00    +0.010 C 
ATOM      2  C   UNL     1      -6.203  -9.890   9.113  0.00  0.00    +0.079 C 
BRANCH   2  28
ATOM     28  C   UNL     1      -6.528  -9.170   8.876  0.00  0.00    +0.225 C 
ATOM     29  O   UNL     1      -6.067  -8.485   8.890  0.00  0.00    -0.275 OA
ATOM     30  N   UNL     1      -7.314  -9.133   8.626  0.00  0.00    -0.278 N 
ATOM     31  C   UNL     1      -7.638  -8.414   8.389  0.00  0.00    +0.105 C 
ATOM     32  C   UNL     1      -8.423  -8.377   8.139  0.00  0.00    +0.079 C 
ATOM     33  S   UNL     1      -8.883  -9.061   8.126  0.00  0.00    -0.137 S 
ATOM     34  C   UNL     1      -8.559  -9.781   8.362  0.00  0.00    +0.079 C 
ATOM     35  C   UNL     1      -7.774  -9.818   8.613  0.00  0.00    +0.105 C 
ENDBRANCH   2  28
ENDBRANCH   3   2
TORSDOF 3
ENDMDL
MODEL 4
REMARK VINA RESULT:      -7.3      1.349      6.840
REMARK  Name = 
REMARK  3 active torsions:
REMARK  status: ('A' for Active; 'I' for Inactive)
REMARK    1  A    between atoms: C_2  and  C_3
REMARK    2  A    between atoms: C_2  and  C_28
REMARK    3  A    between atoms: C_14  and  C_16
REMARK                            x       y       z     vdW  Elec       q    Type
REMARK                         _______ _______ _______ _____ _____    ______ ____
ROOT
ATOM      3  C   UNL     1       1.010   0.408  23.533  0.00  0.00    +0.039 C 
ATOM      4  C   UNL     1       1.137   1.214  23.662  0.00  0.00    +0.003 C 
ATOM      5  C   UNL     1       0.512   1.697  23.898  0.00  0.00    +0.001 C 
ATOM      6  C   UNL     1      -0.240   1.376  24.006  0.00  0.00    +0.007 C 
ATOM      7  C   UNL     1      -0.113   2.180  24.134  0.00  0.00    +0.000 C 
ATOM      8  C   UNL     1      -0.865   1.860  24.242  0.00  0.00    +0.034 C 
ATOM      9  C   UNL     1      -1.617   1.539  24.350  0.00  0.00    +0.023 A 
ATOM     10  C   UNL     1      -1.744   0.733  24.221  0.00  0.00    +0.063 A 
ATOM     11  N   UNL     1      -2.540   0.574  24.371  0.00  0.00    -0.227 NA
ATOM     12  C   UNL     1      -2.905   1.280  24.592  0.00  0.00    +0.185 A 
ATOM     13  N   UNL     1      -3.700   1.374  24.790  0.00  0.00    -0.151 NA
ATOM     14  C   UNL     1      -3.987   2.117  25.001  0.00  0.00    +0.271 C 
ATOM     15  O   UNL     1      -3.480   2.768  25.013  0.00  0.00    -0.268 OA
ATOM     22  S   UNL     1      -2.335   1.876  24.578  0.00  0.00    -0.054 S 
ATOM     23  C   UNL     1      -1.119   0.250  23.985  0.00  0.00    +0.043 C 
ATOM     24  C   UNL     1      -1.246  -0.555  23.857  0.00  0.00    +0.006 C 
ATOM     25  C   UNL     1      -0.367   0.570  23.877  0.00  0.00    +0.036 C 
ATOM     26  C   UNL     1       0.258   0.087  23.641  0.00  0.00    +0.153 C 
ATOM     27  O   UNL     1       0.131  -0.718  23.513  0.00  0.00    -0.223 OA
ENDROOT
BRANCH  14  16
ATOM     16  C   UNL     1      -4.782   2.211  25.199  0.00  0.00    +0.059 A 
ATOM     17  C   UNL     1      -5.024   2.870  25.635  0.00  0.00    +0.025 A 
ATOM     18  C   UNL     1      -5.820   2.963  25.833  0.00  0.00    +0.099 A 
ATOM     19  N   UNL     1      -6.373   2.398  25.597  0.00  0.00    -0.242 NA
ATOM     20  C   UNL     1      -6.131   1.741  25.162  0.00  0.00    +0.099 A 
ATOM     21  C   UNL     1      -5.336   1.647  24.964  0.00  0.00    +0.025 A 
ENDBRANCH  14  16
BRANCH   3   2
ATOM      1  C   UNL     1       1.845  -0.732  23.750  0.00  0.00    +0.010 C 
ATOM      2  C   UNL     1       1.636  -0.075  23.297  0.00  0.00    +0.079 C 
BRANCH   2  28
ATOM     28  C   UNL     1       2.052   0.099  22.606  0.00  0.00    +0.225 C 
ATOM     29  O   UNL     1       1.652   0.157  21.886  0.00  0.00    -0.275 OA
ATOM     30  N   UNL     1       2.869   0.214  22.635  0.00  0.00    -0.278 N 
ATOM     31  C   UNL     1       3.285   0.388  21.945  0.00  0.00    +0.105 C 
ATOM     32  C   UNL     1       4.101   0.503  21.973  0.00  0.00    +0.079 C 
ATOM     33  S   UNL     1       4.501   0.444  22.692  0.00  0.00    -0.137 S 
ATOM     34  C   UNL     1       4.085   0.271  23.382  0.00  0.00    +0.079 C 
ATOM     35  C   UNL     1       3.268   0.155  23.354  0.00  0.00    +0.105 C 
ENDBRANCH   2  28
ENDBRANCH   3   2
TORSDOF 3
ENDMDL
MODEL 5
REMARK VINA RESULT:      -6.9     16.533     18.561
REMARK  Name = 
REMARK  3 active torsions:
REMARK  status: ('A' for Active; 'I' for Inactive)
REMARK    1  A    between atoms: C_2  and  C_3
REMARK    2  A    between atoms: C_2  and  C_28
REMARK    3  A    between atoms: C_14  and  C_16
REMARK                            x       y       z     vdW  Elec       q    Type
REMARK                         _______ _______ _______ _____ _____    ______ ____
ROOT
ATOM      3  C   UNL     1      14.326  -4.799  31.551  0.00  0.00    +0.039 C 
ATOM      4  C   UNL     1      13.877  -4.382  32.105  0.00  0.00    +0.003 C 
ATOM      5  C   UNL     1      13.162  -4.693  32.374  0.00  0.00    +0.001 C 
ATOM      6  C   UNL     1      12.895  -5.419  32.089  0.00  0.00    +0.007 C 
ATOM      7  C   UNL     1      12.447  -5.004  32.642  0.00  0.00    +0.000 C 
ATOM      8  C   UNL     1      12.180  -5.731  32.358  0.00  0.00    +0.034 C 
ATOM      9  C   UNL     1      11.913  -6.457  32.073  0.00  0.00    +0.023 A 
ATOM     10  C   UNL     1      12.362  -6.874  31.519  0.00  0.00    +0.063 A 
ATOM     11  N   UNL     1      11.960  -7.572  31.340  0.00  0.00    -0.227 NA
ATOM     12  C   UNL     1      11.264  -7.588  31.782  0.00  0.00    +0.185 A 
ATOM     13  N   UNL     1      10.697  -8.187  31.773  0.00  0.00    -0.151 NA
ATOM     14  C   UNL     1      10.026  -8.126  32.247  0.00  0.00    +0.271 C 
ATOM     15  O   UNL     1       9.921  -7.466  32.731  0.00  0.00    -0.268 OA
ATOM     22  S   UNL     1      11.235  -6.899  32.235  0.00  0.00    -0.054 S 
ATOM     23  C   UNL     1      13.077  -6.563  31.251  0.00  0.00    +0.043 C 
ATOM     24  C   UNL     1      13.525  -6.979  30.697  0.00  0.00    +0.006 C 
ATOM     25  C   UNL     1      13.344  -5.836  31.535  0.00  0.00    +0.036 C 
ATOM     26  C   UNL     1      14.059  -5.525  31.267  0.00  0.00    +0.153 C 
ATOM     27  O   UNL     1      14.507  -5.941  30.713  0.00  0.00    -0.223 OA
ENDROOT
BRANCH  14  16
ATOM     16  C   UNL     1       9.459  -8.725  32.238  0.00  0.00    +0.059 A 
ATOM     17  C   UNL     1       9.605  -9.438  32.627  0.00  0.00    +0.025 A 
ATOM     18  C   UNL     1       9.038 -10.038  32.618  0.00  0.00    +0.099 A 
ATOM     19  N   UNL     1       8.325  -9.923  32.219  0.00  0.00    -0.242 NA
ATOM     20  C   UNL     1       8.178  -9.212  31.830  0.00  0.00    +0.099 A 
ATOM     21  C   UNL     1       8.746  -8.612  31.839  0.00  0.00    +0.025 A 
ENDBRANCH  14  16
BRANCH   3   2
ATOM      1  C   UNL     1      15.168  -4.379  30.475  0.00  0.00    +0.010 C 
ATOM      2  C   UNL     1      15.041  -4.487  31.283  0.00  0.00    +0.079 C 
BRANCH   2  28
ATOM     28  C   UNL     1      15.630  -4.284  31.823  0.00  0.00    +0.225 C 
ATOM     29  O   UNL     1      15.840  -4.810  32.423  0.00  0.00    -0.275 OA
ATOM     30  N   UNL     1      16.010  -3.553  31.764  0.00  0.00    -0.278 N 
ATOM     31  C   UNL     1      16.598  -3.349  32.304  0.00  0.00    +0.105 C 
ATOM     32  C   UNL     1      16.978  -2.619  32.245  0.00  0.00    +0.079 C 
ATOM     33  S   UNL     1      16.768  -2.093  31.645  0.00  0.00    -0.137 S 
ATOM     34  C   UNL     1      16.180  -2.297  31.106  0.00  0.00    +0.079 C 
ATOM     35  C   UNL     1      15.800  -3.027  31.164  0.00  0.00    +0.105 C 
ENDBRANCH   2  28
ENDBRANCH   3   2
TORSDOF 3
ENDMDL
MODEL 6
REMARK VINA RESULT:      -6.2     17.384     18.163
REMARK  Name = 
REMARK  3 active torsions:
REMARK  status: ('A' for Active; 'I' for Inactive)
REMARK    1  A    between atoms: C_2  and  C_3
REMARK    2  A    between atoms: C_2  and  C_28
REMARK    3  A    between atoms: C_14  and  C_16
REMARK                            x       y       z     vdW  Elec       q    Type
REMARK                         _______ _______ _______ _____ _____    ______ ____
ROOT
ATOM      3  C   UNL     1      -7.416  -8.664   9.101  0.00  0.00    +0.039 C 
ATOM      4  C   UNL     1      -6.785  -8.681   8.569  0.00  0.00    +0.003 C 
ATOM      5  C   UNL     1      -6.029  -8.880   8.833  0.00  0.00    +0.001 C 
ATOM      6  C   UNL     1      -5.904  -9.063   9.627  0.00  0.00    +0.007 C 
ATOM      7  C   UNL     1      -5.274  -9.079   9.097  0.00  0.00    +0.000 C 
ATOM      8  C   UNL     1      -5.148  -9.262   9.891  0.00  0.00    +0.034 C 
ATOM      9  C   UNL     1      -5.023  -9.444  10.686  0.00  0.00    +0.023 A 
ATOM     10  C   UNL     1      -5.655  -9.428  11.217  0.00  0.00    +0.063 A 
ATOM     11  N   UNL     1      -5.365  -9.632  11.962  0.00  0.00    -0.227 NA
ATOM     12  C   UNL     1      -4.556  -9.775  11.892  0.00  0.00    +0.185 A 
ATOM     13  N   UNL     1      -4.048  -9.995  12.503  0.00  0.00    -0.151 NA
ATOM     14  C   UNL     1      -3.247 -10.120  12.349  0.00  0.00    +0.271 C 
ATOM     15  O   UNL     1      -2.955 -10.024  11.583  0.00  0.00    -0.268 OA
ATOM     22  S   UNL     1      -4.345  -9.659  11.103  0.00  0.00    -0.054 S 
ATOM     23  C   UNL     1      -6.410  -9.228  10.954  0.00  0.00    +0.043 C 
ATOM     24  C   UNL     1      -7.041  -9.212  11.485  0.00  0.00    +0.006 C 
ATOM     25  C   UNL     1      -6.536  -9.046  10.159  0.00  0.00    +0.036 C 
ATOM     26  C   UNL     1      -7.291  -8.847   9.895  0.00  0.00    +0.153 C 
ATOM     27  O   UNL     1      -7.922  -8.830  10.427  0.00  0.00    -0.223 OA
ENDROOT
BRANCH  14  16
ATOM     16  C   UNL     1      -2.739 -10.340  12.960  0.00  0.00    +0.059 A 
ATOM     17  C   UNL     1      -3.040 -10.491  13.713  0.00  0.00    +0.025 A 
ATOM     18  C   UNL     1      -2.531 -10.712  14.325  0.00  0.00    +0.099 A 
ATOM     19  N   UNL     1      -1.722 -10.781  14.182  0.00  0.00    -0.242 NA
ATOM     20  C   UNL     1      -1.421 -10.630  13.429  0.00  0.00    +0.099 A 
ATOM     21  C   UNL     1      -1.929 -10.410  12.818  0.00  0.00    +0.025 A 
ENDBRANCH  14  16
BRANCH   3   2
ATOM      1  C   UNL     1      -8.787  -9.013   8.889  0.00  0.00    +0.010 C 
ATOM      2  C   UNL     1      -8.172  -8.465   8.837  0.00  0.00    +0.079 C 
BRANCH   2  28
ATOM     28  C   UNL     1      -8.314  -7.717   8.520  0.00  0.00    +0.225 C 
ATOM     29  O   UNL     1      -7.707  -7.310   8.135  0.00  0.00    -0.275 OA
ATOM     30  N   UNL     1      -9.062  -7.374   8.587  0.00  0.00    -0.278 N 
ATOM     31  C   UNL     1      -9.203  -6.627   8.271  0.00  0.00    +0.105 C 
ATOM     32  C   UNL     1      -9.951  -6.284   8.338  0.00  0.00    +0.079 C 
ATOM     33  S   UNL     1     -10.557  -6.691   8.723  0.00  0.00    -0.137 S 
ATOM     34  C   UNL     1     -10.415  -7.439   9.039  0.00  0.00    +0.079 C 
ATOM     35  C   UNL     1      -9.668  -7.781   8.972  0.00  0.00    +0.105 C 
ENDBRANCH   2  28
ENDBRANCH   3   2
TORSDOF 3
ENDMDL
MODEL 7
REMARK VINA RESULT:      -6.1     16.339     17.957
REMARK  Name = 
REMARK  3 active torsions:
REMARK  status: ('A' for Active; 'I' for Inactive)
REMARK    1  A    between atoms: C_2  and  C_3
REMARK    2  A    between atoms: C_2  and  C_28
REMARK    3  A    between atoms: C_14  and  C_16
REMARK                            x       y       z     vdW  Elec       q    Type
REMARK                         _______ _______ _______ _____ _____    ______ ____
ROOT
ATOM      3  C   UNL     1      -3.892 -10.370  13.579  0.00  0.00    +0.039 C 
ATOM      4  C   UNL     1      -4.542 -10.289  14.082  0.00  0.00    +0.003 C 
ATOM      5  C   UNL     1      -5.275 -10.069  13.776  0.00  0.00    +0.001 C 
ATOM      6  C   UNL     1      -5.360  -9.930  12.968  0.00  0.00    +0.007 C 
ATOM      7  C   UNL     1      -6.008  -9.849  13.470  0.00  0.00    +0.000 C 
ATOM      8  C   UNL     1      -6.093  -9.710  12.661  0.00  0.00    +0.034 C 
ATOM      9  C   UNL     1      -6.178  -9.571  11.853  0.00  0.00    +0.023 A 
ATOM     10  C   UNL     1      -5.528  -9.652  11.350  0.00  0.00    +0.063 A 
ATOM     11  N   UNL     1      -5.778  -9.480  10.582  0.00  0.00    -0.227 NA
ATOM     12  C   UNL     1      -6.581  -9.293  10.610  0.00  0.00    +0.185 A 
ATOM     13  N   UNL     1      -7.053  -9.086   9.967  0.00  0.00    -0.151 NA
ATOM     14  C   UNL     1      -7.851  -8.912  10.080  0.00  0.00    +0.271 C 
ATOM     15  O   UNL     1      -8.178  -8.946  10.837  0.00  0.00    -0.268 OA
ATOM     22  S   UNL     1      -6.828  -9.349  11.395  0.00  0.00    -0.054 S 
ATOM     23  C   UNL     1      -4.795  -9.872  11.656  0.00  0.00    +0.043 C 
ATOM     24  C   UNL     1      -4.146  -9.953  11.153  0.00  0.00    +0.006 C 
ATOM     25  C   UNL     1      -4.710 -10.011  12.465  0.00  0.00    +0.036 C 
ATOM     26  C   UNL     1      -3.976 -10.231  12.771  0.00  0.00    +0.153 C 
ATOM     27  O   UNL     1      -3.327 -10.312  12.268  0.00  0.00    -0.223 OA
ENDROOT
BRANCH  14  16
ATOM     16  C   UNL     1      -8.324  -8.705   9.436  0.00  0.00    +0.059 A 
ATOM     17  C   UNL     1      -8.438  -7.910   9.247  0.00  0.00    +0.025 A 
ATOM     18  C   UNL     1      -8.910  -7.703   8.603  0.00  0.00    +0.099 A 
ATOM     19  N   UNL     1      -9.269  -8.291   8.149  0.00  0.00    -0.242 NA
ATOM     20  C   UNL     1      -9.155  -9.085   8.338  0.00  0.00    +0.099 A 
ATOM     21  C   UNL     1      -8.682  -9.293   8.981  0.00  0.00    +0.025 A 
ENDBRANCH  14  16
BRANCH   3   2
ATOM      1  C   UNL     1      -2.537 -10.779  13.377  0.00  0.00    +0.010 C 
ATOM      2  C   UNL     1      -3.158 -10.589  13.886  0.00  0.00    +0.079 C 
BRANCH   2  28
ATOM     28  C   UNL     1      -3.045 -10.620  14.703  0.00  0.00    +0.225 C 
ATOM     29  O   UNL     1      -3.684 -10.775  15.202  0.00  0.00    -0.275 OA
ATOM     30  N   UNL     1      -2.294 -10.494  15.021  0.00  0.00    -0.278 N 
ATOM     31  C   UNL     1      -2.181 -10.525  15.837  0.00  0.00    +0.105 C 
ATOM     32  C   UNL     1      -1.431 -10.400  16.155  0.00  0.00    +0.079 C 
ATOM     33  S   UNL     1      -0.793 -10.244  15.656  0.00  0.00    -0.137 S 
ATOM     34  C   UNL     1      -0.905 -10.214  14.840  0.00  0.00    +0.079 C 
ATOM     35  C   UNL     1      -1.656 -10.339  14.521  0.00  0.00    +0.105 C 
ENDBRANCH   2  28
ENDBRANCH   3   2
TORSDOF 3
ENDMDL
MODEL 8
REMARK VINA RESULT:      -5.1     15.673     17.389
REMARK  Name = 
REMARK  3 active torsions:
REMARK  status: ('A' for Active; 'I' for Inactive)
REMARK    1  A    between atoms: C_2  and  C_3
REMARK    2  A    between atoms: C_2  and  C_28
REMARK    3  A    between atoms: C_14  and  C_16
REMARK                            x       y       z     vdW  Elec       q    Type
REMARK                         _______ _______ _______ _____ _____    ______ ____
ROOT
ATOM      3  C   UNL     1      -6.080  -9.988  12.735  0.00  0.00    +0.039 C 
ATOM      4  C   UNL     1      -5.439 -10.008  13.256  0.00  0.00    +0.003 C 
ATOM      5  C   UNL     1      -5.571 -10.053  14.069  0.00  0.00    +0.001 C 
ATOM      6  C   UNL     1      -6.341 -10.079  14.361  0.00  0.00    +0.007 C 
ATOM      7  C   UNL     1      -5.702 -10.099  14.881  0.00  0.00    +0.000 C 
ATOM      8  C   UNL     1      -6.473 -10.124  15.175  0.00  0.00    +0.034 C 
ATOM      9  C   UNL     1      -7.243 -10.149  15.467  0.00  0.00    +0.023 A 
ATOM     10  C   UNL     1      -7.884 -10.129  14.946  0.00  0.00    +0.063 A 
ATOM     11  N   UNL     1      -8.576 -10.161  15.394  0.00  0.00    -0.227 NA
ATOM     12  C   UNL     1      -8.365 -10.201  16.190  0.00  0.00    +0.185 A 
ATOM     13  N   UNL     1      -8.886 -10.242  16.828  0.00  0.00    -0.151 NA
ATOM     14  C   UNL     1      -8.592 -10.280  17.598  0.00  0.00    +0.271 C 
ATOM     15  O   UNL     1      -7.778 -10.277  17.730  0.00  0.00    -0.268 OA
ATOM     22  S   UNL     1      -7.542 -10.194  16.235  0.00  0.00    -0.054 S 
ATOM     23  C   UNL     1      -7.752 -10.083  14.134  0.00  0.00    +0.043 C 
ATOM     24  C   UNL     1      -8.392 -10.063  13.613  0.00  0.00    +0.006 C 
ATOM     25  C   UNL     1      -6.981 -10.058  13.840  0.00  0.00    +0.036 C 
ATOM     26  C   UNL     1      -6.850 -10.013  13.028  0.00  0.00    +0.153 C 
ATOM     27  O   UNL     1      -7.490  -9.992  12.507  0.00  0.00    -0.223 OA
ENDROOT
BRANCH  14  16
ATOM     16  C   UNL     1      -9.113 -10.321  18.236  0.00  0.00    +0.059 A 
ATOM     17  C   UNL     1      -9.845  -9.941  18.197  0.00  0.00    +0.025 A 
ATOM     18  C   UNL     1     -10.366  -9.981  18.836  0.00  0.00    +0.099 A 
ATOM     19  N   UNL     1     -10.155 -10.402  19.513  0.00  0.00    -0.242 NA
ATOM     20  C   UNL     1      -9.424 -10.781  19.553  0.00  0.00    +0.099 A 
ATOM     21  C   UNL     1      -8.903 -10.741  18.914  0.00  0.00    +0.025 A 
ENDBRANCH  14  16
BRANCH   3   2
ATOM      1  C   UNL     1      -6.128 -10.586  11.437  0.00  0.00    +0.010 C 
ATOM      2  C   UNL     1      -5.948  -9.942  11.922  0.00  0.00    +0.079 C 
BRANCH   2  28
ATOM     28  C   UNL     1      -5.637  -9.253  11.593  0.00  0.00    +0.225 C 
ATOM     29  O   UNL     1      -5.908  -8.515  11.846  0.00  0.00    -0.275 OA
ATOM     30  N   UNL     1      -5.053  -9.300  11.010  0.00  0.00    -0.278 N 
ATOM     31  C   UNL     1      -4.742  -8.612  10.682  0.00  0.00    +0.105 C 
ATOM     32  C   UNL     1      -4.160  -8.658  10.100  0.00  0.00    +0.079 C 
ATOM     33  S   UNL     1      -3.889  -9.395   9.847  0.00  0.00    -0.137 S 
ATOM     34  C   UNL     1      -4.200 -10.084  10.175  0.00  0.00    +0.079 C 
ATOM     35  C   UNL     1      -4.783 -10.037  10.757  0.00  0.00    +0.105 C 
ENDBRANCH   2  28
ENDBRANCH   3   2
TORSDOF 3
ENDMDL
