MODEL 1
REMARK VINA RESULT:     -14.8      0.000      0.000
REMARK  Name = 
REMARK  5 active torsions:
REMARK  status: ('A' for Active; 'I' for Inactive)
REMARK    1  A    between atoms: O_2  and  C_3
REMARK    2  A    between atoms: C_6  and  C_9
REMARK    3  A    between atoms: N_15  and  S_17
REMARK    4  A    between atoms: S_17  and  C_20
REMARK    5  A    between atoms: C_23  and  N_24
REMARK                            x       y       z     vdW  Elec       q    Type
REMARK                         _______ _______ _______ _____ _____    ______ ____
ROOT
ATOM      9  C   UNL     1      -3.664   0.699  24.757  0.00  0.00    +0.012 A 
ATOM     10  C   UNL     1      -4.319   1.177  24.908  0.00  0.00    +0.041 A 
ATOM     11  C   UNL     1      -5.231   1.126  25.011  0.00  0.00    +0.056 C 
ATOM     12  C   UNL     1      -5.761   0.666  25.006  0.00  0.00    +0.011 C 
ATOM     13  C   UNL     1      -5.660   1.467  25.114  0.00  0.00    +0.041 C 
ATOM     14  C   UNL     1      -5.743   2.439  25.270  0.00  0.00    +0.098 C 
ATOM     15  N   UNL     1      -4.940   2.660  25.206  0.00  0.00    -0.155 NA
ATOM     16  C   UNL     1      -5.327   2.064  25.164  0.00  0.00    +0.102 C 
ATOM     30  C   UNL     1      -4.708   1.530  25.008  0.00  0.00    +0.110 C 
ATOM     31  N   UNL     1      -4.221   1.989  25.018  0.00  0.00    -0.299 N 
ATOM     32  C   UNL     1      -3.468   2.323  24.977  0.00  0.00    +0.261 A 
ATOM     33  O   UNL     1      -3.370   3.135  25.087  0.00  0.00    -0.267 OA
ATOM     34  C   UNL     1      -2.813   1.845  24.826  0.00  0.00    +0.061 A 
ATOM     35  C   UNL     1      -2.911   1.034  24.715  0.00  0.00    +0.006 A 
ENDROOT
BRANCH   9   6
ATOM      3  C   UNL     1      -3.958  -1.736  24.426  0.00  0.00    +0.139 A 
ATOM      4  C   UNL     1      -4.018  -1.223  23.784  0.00  0.00    +0.037 A 
ATOM      5  C   UNL     1      -3.920  -0.411  23.894  0.00  0.00    +0.003 A 
ATOM      6  C   UNL     1      -3.762  -0.112  24.647  0.00  0.00    +0.001 A 
ATOM      7  C   UNL     1      -3.703  -0.626  25.289  0.00  0.00    +0.003 A 
ATOM      8  C   UNL     1      -3.801  -1.438  25.179  0.00  0.00    +0.037 A 
BRANCH   3   2
ATOM      1  C   UNL     1      -3.442  -3.066  24.500  0.00  0.00    +0.252 C 
ATOM      2  O   UNL     1      -4.056  -2.547  24.316  0.00  0.00    -0.471 OA
ENDBRANCH   3   2
ENDBRANCH   9   6
BRANCH  15  17
ATOM     17  S   UNL     1      -4.274   3.148  25.199  0.00  0.00    +0.063 S 
ATOM     18  O   UNL     1      -4.191   3.047  26.014  0.00  0.00    -0.153 OA
ATOM     19  O   UNL     1      -4.357   3.249  24.384  0.00  0.00    -0.153 OA
BRANCH  17  20
ATOM     20  C   UNL     1      -3.608   3.636  25.191  0.00  0.00    +0.122 A 
ATOM     21  C   UNL     1      -3.366   3.992  24.488  0.00  0.00    +0.021 A 
ATOM     22  C   UNL     1      -2.701   4.480  24.481  0.00  0.00    +0.018 A 
ATOM     23  C   UNL     1      -2.277   4.610  25.176  0.00  0.00    +0.073 A 
ATOM     28  C   UNL     1      -2.519   4.253  25.879  0.00  0.00    +0.018 A 
ATOM     29  C   UNL     1      -3.185   3.766  25.887  0.00  0.00    +0.021 A 
BRANCH  23  24
ATOM     24  N   UNL     1      -1.612   5.098  25.169  0.00  0.00    -0.179 NA
ATOM     25  C   UNL     1      -0.891   4.808  24.888  0.00  0.00    +0.246 C 
ATOM     26  C   UNL     1      -0.226   5.295  24.880  0.00  0.00    +0.097 C 
ATOM     27  O   UNL     1      -0.838   4.031  24.614  0.00  0.00    -0.273 OA
ENDBRANCH  23  24
ENDBRANCH  17  20
ENDBRANCH  15  17
TORSDOF 5
ENDMDL
MODEL 2
REMARK VINA RESULT:     -14.5      1.324      4.889
REMARK  Name = 
REMARK  5 active torsions:
REMARK  status: ('A' for Active; 'I' for Inactive)
REMARK    1  A    between atoms: O_2  and  C_3
REMARK    2  A    between atoms: C_6  and  C_9
REMARK    3  A    between atoms: N_15  and  S_17
REMARK    4  A    between atoms: S_17  and  C_20
REMARK    5  A    between atoms: C_23  and  N_24
REMARK                            x       y       z     vdW  Elec       q    Type
REMARK                         _______ _______ _______ _____ _____    ______ ____
ROOT
ATOM      9  C   UNL     1      -2.763   2.530  25.003  0.00  0.00    +0.012 A 
ATOM     10  C   UNL     1      -3.583   2.441  24.989  0.00  0.00    +0.041 A 
ATOM     11  C   UNL     1      -4.355   2.938  25.025  0.00  0.00    +0.056 C 
ATOM     12  C   UNL     1      -4.582   3.600  25.078  0.00  0.00    +0.011 C 
ATOM     13  C   UNL     1      -4.907   2.856  25.014  0.00  0.00    +0.041 C 
ATOM     14  C   UNL     1      -5.481   2.055  24.943  0.00  0.00    +0.098 C 
ATOM     15  N   UNL     1      -4.891   1.464  24.898  0.00  0.00    -0.155 NA
ATOM     16  C   UNL     1      -4.923   2.173  24.957  0.00  0.00    +0.102 C 
ATOM     30  C   UNL     1      -4.106   2.328  24.976  0.00  0.00    +0.110 C 
ATOM     31  N   UNL     1      -3.916   1.689  24.924  0.00  0.00    -0.299 N 
ATOM     32  C   UNL     1      -3.429   1.025  24.873  0.00  0.00    +0.261 A 
ATOM     33  O   UNL     1      -3.761   0.273  24.808  0.00  0.00    -0.267 OA
ATOM     34  C   UNL     1      -2.609   1.113  24.886  0.00  0.00    +0.061 A 
ATOM     35  C   UNL     1      -2.276   1.866  24.951  0.00  0.00    +0.006 A 
ENDROOT
BRANCH   9   6
ATOM      3  C   UNL     1      -1.765   4.786  25.198  0.00  0.00    +0.139 A 
ATOM      4  C   UNL     1      -1.917   4.465  24.453  0.00  0.00    +0.037 A 
ATOM      5  C   UNL     1      -2.249   3.713  24.388  0.00  0.00    +0.003 A 
ATOM      6  C   UNL     1      -2.431   3.282  25.068  0.00  0.00    +0.001 A 
ATOM      7  C   UNL     1      -2.279   3.603  25.812  0.00  0.00    +0.003 A 
ATOM      8  C   UNL     1      -1.947   4.355  25.877  0.00  0.00    +0.037 A 
BRANCH   3   2
ATOM      1  C   UNL     1      -0.762   5.732  24.823  0.00  0.00    +0.252 C 
ATOM      2  O   UNL     1      -1.433   5.538  25.262  0.00  0.00    -0.471 OA
ENDBRANCH   3   2
ENDBRANCH   9   6
BRANCH  15  17
ATOM     17  S   UNL     1      -4.560   0.711  24.838  0.00  0.00    +0.063 S 
ATOM     18  O   UNL     1      -4.513   0.797  24.019  0.00  0.00    -0.153 OA
ATOM     19  O   UNL     1      -4.607   0.625  25.658  0.00  0.00    -0.153 OA
BRANCH  17  20
ATOM     20  C   UNL     1      -4.228  -0.043  24.778  0.00  0.00    +0.122 A 
ATOM     21  C   UNL     1      -4.055  -0.473  25.460  0.00  0.00    +0.021 A 
ATOM     22  C   UNL     1      -3.723  -1.226  25.400  0.00  0.00    +0.018 A 
ATOM     23  C   UNL     1      -3.565  -1.548  24.658  0.00  0.00    +0.073 A 
ATOM     28  C   UNL     1      -3.739  -1.119  23.975  0.00  0.00    +0.018 A 
ATOM     29  C   UNL     1      -4.070  -0.365  24.036  0.00  0.00    +0.021 A 
BRANCH  23  24
ATOM     24  N   UNL     1      -3.234  -2.302  24.597  0.00  0.00    -0.179 NA
ATOM     25  C   UNL     1      -3.664  -2.916  24.252  0.00  0.00    +0.246 C 
ATOM     26  C   UNL     1      -3.333  -3.668  24.192  0.00  0.00    +0.097 C 
ATOM     27  O   UNL     1      -4.426  -2.776  23.968  0.00  0.00    -0.273 OA
ENDBRANCH  23  24
ENDBRANCH  17  20
ENDBRANCH  15  17
TORSDOF 5
ENDMDL
MODEL 3
REMARK VINA RESULT:     -13.1      1.961      2.980
REMARK  Name = 
REMARK  5 active torsions:
REMARK  status: ('A' for Active; 'I' for Inactive)
REMARK    1  A    between atoms: O_2  and  C_3
REMARK    2  A    between atoms: C_6  and  C_9
REMARK    3  A    between atoms: N_15  and  S_17
REMARK    4  A    between atoms: S_17  and  C_20
REMARK    5  A    between atoms: C_23  and  N_24
REMARK                            x       y       z     vdW  Elec       q    Type
REMARK                         _______ _______ _______ _____ _____    ______ ____
ROOT
ATOM      9  C   UNL     1      -2.654  -0.198  24.734  0.00  0.00    +0.012 A 
ATOM     10  C   UNL     1      -1.834  -0.155  24.652  0.00  0.00    +0.041 A 
ATOM     11  C   UNL     1      -1.102  -0.692  24.507  0.00  0.00    +0.056 C 
ATOM     12  C   UNL     1      -0.923  -1.363  24.405  0.00  0.00    +0.011 C 
ATOM     13  C   UNL     1      -0.549  -0.641  24.455  0.00  0.00    +0.041 C 
ATOM     14  C   UNL     1       0.075   0.124  24.482  0.00  0.00    +0.098 C 
ATOM     15  N   UNL     1      -0.469   0.744  24.617  0.00  0.00    -0.155 NA
ATOM     16  C   UNL     1      -0.486   0.037  24.531  0.00  0.00    +0.102 C 
ATOM     30  C   UNL     1      -1.308  -0.072  24.606  0.00  0.00    +0.110 C 
ATOM     31  N   UNL     1      -1.452   0.575  24.701  0.00  0.00    -0.299 N 
ATOM     32  C   UNL     1      -1.890   1.261  24.832  0.00  0.00    +0.261 A 
ATOM     33  O   UNL     1      -1.508   1.991  24.882  0.00  0.00    -0.267 OA
ATOM     34  C   UNL     1      -2.709   1.218  24.915  0.00  0.00    +0.061 A 
ATOM     35  C   UNL     1      -3.091   0.489  24.865  0.00  0.00    +0.006 A 
ENDROOT
BRANCH   9   6
ATOM      3  C   UNL     1      -3.799  -2.387  24.586  0.00  0.00    +0.139 A 
ATOM      4  C   UNL     1      -3.755  -1.900  23.922  0.00  0.00    +0.037 A 
ATOM      5  C   UNL     1      -3.373  -1.170  23.972  0.00  0.00    +0.003 A 
ATOM      6  C   UNL     1      -3.036  -0.928  24.684  0.00  0.00    +0.001 A 
ATOM      7  C   UNL     1      -3.080  -1.416  25.348  0.00  0.00    +0.003 A 
ATOM      8  C   UNL     1      -3.462  -2.146  25.299  0.00  0.00    +0.037 A 
BRANCH   3   2
ATOM      1  C   UNL     1      -3.850  -3.727  24.090  0.00  0.00    +0.252 C 
ATOM      2  O   UNL     1      -4.181  -3.116  24.536  0.00  0.00    -0.471 OA
ENDBRANCH   3   2
ENDBRANCH   9   6
BRANCH  15  17
ATOM     17  S   UNL     1      -0.746   1.512  24.741  0.00  0.00    +0.063 S 
ATOM     18  O   UNL     1      -0.826   1.615  23.926  0.00  0.00    -0.153 OA
ATOM     19  O   UNL     1      -0.666   1.409  25.556  0.00  0.00    -0.153 OA
BRANCH  17  20
ATOM     20  C   UNL     1      -1.023   2.279  24.865  0.00  0.00    +0.122 A 
ATOM     21  C   UNL     1      -1.059   2.586  25.630  0.00  0.00    +0.021 A 
ATOM     22  C   UNL     1      -1.336   3.353  25.754  0.00  0.00    +0.018 A 
ATOM     23  C   UNL     1      -1.577   3.813  25.114  0.00  0.00    +0.073 A 
ATOM     28  C   UNL     1      -1.541   3.506  24.349  0.00  0.00    +0.018 A 
ATOM     29  C   UNL     1      -1.264   2.739  24.225  0.00  0.00    +0.021 A 
BRANCH  23  24
ATOM     24  N   UNL     1      -1.854   4.580  25.238  0.00  0.00    -0.179 NA
ATOM     25  C   UNL     1      -1.368   5.227  25.071  0.00  0.00    +0.246 C 
ATOM     26  C   UNL     1      -1.644   5.993  25.195  0.00  0.00    +0.097 C 
ATOM     27  O   UNL     1      -0.605   5.104  24.780  0.00  0.00    -0.273 OA
ENDBRANCH  23  24
ENDBRANCH  17  20
ENDBRANCH  15  17
TORSDOF 5
ENDMDL
MODEL 4
REMARK VINA RESULT:     -12.2      1.540      2.692
REMARK  Name = 
REMARK  5 active torsions:
REMARK  status: ('A' for Active; 'I' for Inactive)
REMARK    1  A    between atoms: O_2  and  C_3
REMARK    2  A    between atoms: C_6  and  C_9
REMARK    3  A    between atoms: N_15  and  S_17
REMARK    4  A    between atoms: S_17  and  C_20
REMARK    5  A    between atoms: C_23  and  N_24
REMARK                            x       y       z     vdW  Elec       q    Type
REMARK                         _______ _______ _______ _____ _____    ______ ____
ROOT
ATOM      9  C   UNL     1      -3.493  -0.129  24.795  0.00  0.00    +0.012 A 
ATOM     10  C   UNL     1      -2.779   0.259  24.654  0.00  0.00    +0.041 A 
ATOM     11  C   UNL     1      -1.897   0.085  24.465  0.00  0.00    +0.056 C 
ATOM     12  C   UNL     1      -1.451  -0.448  24.360  0.00  0.00    +0.011 C 
ATOM     13  C   UNL     1      -1.425   0.366  24.372  0.00  0.00    +0.041 C 
ATOM     14  C   UNL     1      -1.192   1.327  24.345  0.00  0.00    +0.098 C 
ATOM     15  N   UNL     1      -1.942   1.657  24.509  0.00  0.00    -0.155 NA
ATOM     16  C   UNL     1      -1.656   1.008  24.435  0.00  0.00    +0.102 C 
ATOM     30  C   UNL     1      -2.344   0.559  24.569  0.00  0.00    +0.110 C 
ATOM     31  N   UNL     1      -2.748   1.084  24.665  0.00  0.00    -0.299 N 
ATOM     32  C   UNL     1      -3.432   1.520  24.818  0.00  0.00    +0.261 A 
ATOM     33  O   UNL     1      -3.401   2.345  24.829  0.00  0.00    -0.267 OA
ATOM     34  C   UNL     1      -4.145   1.132  24.959  0.00  0.00    +0.061 A 
ATOM     35  C   UNL     1      -4.176   0.308  24.947  0.00  0.00    +0.006 A 
ENDROOT
BRANCH   9   6
ATOM      3  C   UNL     1      -3.585  -2.602  24.760  0.00  0.00    +0.139 A 
ATOM      4  C   UNL     1      -3.375  -2.207  25.453  0.00  0.00    +0.037 A 
ATOM      5  C   UNL     1      -3.344  -1.382  25.465  0.00  0.00    +0.003 A 
ATOM      6  C   UNL     1      -3.523  -0.953  24.783  0.00  0.00    +0.001 A 
ATOM      7  C   UNL     1      -3.733  -1.349  24.091  0.00  0.00    +0.003 A 
ATOM      8  C   UNL     1      -3.764  -2.173  24.079  0.00  0.00    +0.037 A 
BRANCH   3   2
ATOM      1  C   UNL     1      -3.562  -3.831  24.032  0.00  0.00    +0.252 C 
ATOM      2  O   UNL     1      -3.615  -3.426  24.749  0.00  0.00    -0.471 OA
ENDBRANCH   3   2
ENDBRANCH   9   6
BRANCH  15  17
ATOM     17  S   UNL     1      -2.516   2.235  24.642  0.00  0.00    +0.063 S 
ATOM     18  O   UNL     1      -2.342   2.222  25.448  0.00  0.00    -0.153 OA
ATOM     19  O   UNL     1      -2.690   2.247  23.835  0.00  0.00    -0.153 OA
BRANCH  17  20
ATOM     20  C   UNL     1      -3.090   2.812  24.774  0.00  0.00    +0.122 A 
ATOM     21  C   UNL     1      -3.552   3.086  24.149  0.00  0.00    +0.021 A 
ATOM     22  C   UNL     1      -4.127   3.664  24.281  0.00  0.00    +0.018 A 
ATOM     23  C   UNL     1      -4.238   3.967  25.040  0.00  0.00    +0.073 A 
ATOM     28  C   UNL     1      -3.775   3.694  25.666  0.00  0.00    +0.018 A 
ATOM     29  C   UNL     1      -3.201   3.116  25.533  0.00  0.00    +0.021 A 
BRANCH  23  24
ATOM     24  N   UNL     1      -4.812   4.545  25.173  0.00  0.00    -0.179 NA
ATOM     25  C   UNL     1      -5.553   4.330  25.465  0.00  0.00    +0.246 C 
ATOM     26  C   UNL     1      -6.127   4.907  25.598  0.00  0.00    +0.097 C 
ATOM     27  O   UNL     1      -5.720   3.538  25.624  0.00  0.00    -0.273 OA
ENDBRANCH  23  24
ENDBRANCH  17  20
ENDBRANCH  15  17
TORSDOF 5
ENDMDL
MODEL 5
REMARK VINA RESULT:     -12.0      2.060      5.470
REMARK  Name = 
REMARK  5 active torsions:
REMARK  status: ('A' for Active; 'I' for Inactive)
REMARK    1  A    between atoms: O_2  and  C_3
REMARK    2  A    between atoms: C_6  and  C_9
REMARK    3  A    between atoms: N_15  and  S_17
REMARK    4  A    between atoms: S_17  and  C_20
REMARK    5  A    between atoms: C_23  and  N_24
REMARK                            x       y       z     vdW  Elec       q    Type
REMARK                         _______ _______ _______ _____ _____    ______ ____
ROOT
ATOM      9  C   UNL     1      -2.188   2.391  24.981  0.00  0.00    +0.012 A 
ATOM     10  C   UNL     1      -1.638   1.845  25.263  0.00  0.00    +0.041 A 
ATOM     11  C   UNL     1      -0.818   1.806  25.676  0.00  0.00    +0.056 C 
ATOM     12  C   UNL     1      -0.309   2.218  25.928  0.00  0.00    +0.011 C 
ATOM     13  C   UNL     1      -0.460   1.421  25.861  0.00  0.00    +0.041 C 
ATOM     14  C   UNL     1      -0.460   0.433  25.871  0.00  0.00    +0.098 C 
ATOM     15  N   UNL     1      -1.195   0.289  25.503  0.00  0.00    -0.155 NA
ATOM     16  C   UNL     1      -0.803   0.852  25.694  0.00  0.00    +0.102 C 
ATOM     30  C   UNL     1      -1.317   1.451  25.429  0.00  0.00    +0.110 C 
ATOM     31  N   UNL     1      -1.788   1.036  25.197  0.00  0.00    -0.299 N 
ATOM     32  C   UNL     1      -2.487   0.773  24.848  0.00  0.00    +0.261 A 
ATOM     33  O   UNL     1      -2.637  -0.036  24.781  0.00  0.00    -0.267 OA
ATOM     34  C   UNL     1      -3.037   1.319  24.565  0.00  0.00    +0.061 A 
ATOM     35  C   UNL     1      -2.887   2.128  24.632  0.00  0.00    +0.006 A 
ENDROOT
BRANCH   9   6
ATOM      3  C   UNL     1      -1.738   4.817  25.181  0.00  0.00    +0.139 A 
ATOM      4  C   UNL     1      -2.186   4.431  25.757  0.00  0.00    +0.037 A 
ATOM      5  C   UNL     1      -2.335   3.623  25.690  0.00  0.00    +0.003 A 
ATOM      6  C   UNL     1      -2.038   3.199  25.048  0.00  0.00    +0.001 A 
ATOM      7  C   UNL     1      -1.591   3.585  24.472  0.00  0.00    +0.003 A 
ATOM      8  C   UNL     1      -1.441   4.393  24.538  0.00  0.00    +0.037 A 
BRANCH   3   2
ATOM      1  C   UNL     1      -0.948   5.960  24.851  0.00  0.00    +0.252 C 
ATOM      2  O   UNL     1      -1.589   5.624  25.247  0.00  0.00    -0.471 OA
ENDBRANCH   3   2
ENDBRANCH   9   6
BRANCH  15  17
ATOM     17  S   UNL     1      -1.829  -0.137  25.189  0.00  0.00    +0.063 S 
ATOM     18  O   UNL     1      -2.197  -0.134  25.927  0.00  0.00    -0.153 OA
ATOM     19  O   UNL     1      -1.460  -0.141  24.450  0.00  0.00    -0.153 OA
BRANCH  17  20
ATOM     20  C   UNL     1      -2.462  -0.564  24.875  0.00  0.00    +0.122 A 
ATOM     21  C   UNL     1      -2.479  -0.745  24.071  0.00  0.00    +0.021 A 
ATOM     22  C   UNL     1      -3.112  -1.171  23.757  0.00  0.00    +0.018 A 
ATOM     23  C   UNL     1      -3.728  -1.415  24.248  0.00  0.00    +0.073 A 
ATOM     28  C   UNL     1      -3.711  -1.234  25.052  0.00  0.00    +0.018 A 
ATOM     29  C   UNL     1      -3.078  -0.808  25.366  0.00  0.00    +0.021 A 
BRANCH  23  24
ATOM     24  N   UNL     1      -4.361  -1.841  23.934  0.00  0.00    -0.179 NA
ATOM     25  C   UNL     1      -4.316  -2.663  23.872  0.00  0.00    +0.246 C 
ATOM     26  C   UNL     1      -4.948  -3.089  23.559  0.00  0.00    +0.097 C 
ATOM     27  O   UNL     1      -3.636  -3.058  24.126  0.00  0.00    -0.273 OA
ENDBRANCH  23  24
ENDBRANCH  17  20
ENDBRANCH  15  17
TORSDOF 5
ENDMDL
MODEL 6
REMARK VINA RESULT:     -11.6      2.216      4.931
REMARK  Name = 
REMARK  5 active torsions:
REMARK  status: ('A' for Active; 'I' for Inactive)
REMARK    1  A    between atoms: O_2  and  C_3
REMARK    2  A    between atoms: C_6  and  C_9
REMARK    3  A    between atoms: N_15  and  S_17
REMARK    4  A    between atoms: S_17  and  C_20
REMARK    5  A    between atoms: C_23  and  N_24
REMARK                            x       y       z     vdW  Elec       q    Type
REMARK                         _______ _______ _______ _____ _____    ______ ____
ROOT
ATOM      9  C   UNL     1      -3.080   2.363  25.074  0.00  0.00    +0.012 A 
ATOM     10  C   UNL     1      -2.292   2.560  25.217  0.00  0.00    +0.041 A 
ATOM     11  C   UNL     1      -1.763   3.283  25.425  0.00  0.00    +0.056 C 
ATOM     12  C   UNL     1      -1.799   3.973  25.550  0.00  0.00    +0.011 C 
ATOM     13  C   UNL     1      -1.225   3.395  25.518  0.00  0.00    +0.041 C 
ATOM     14  C   UNL     1      -0.401   2.849  25.525  0.00  0.00    +0.098 C 
ATOM     15  N   UNL     1      -0.727   2.102  25.341  0.00  0.00    -0.155 NA
ATOM     16  C   UNL     1      -0.958   2.769  25.436  0.00  0.00    +0.102 C 
ATOM     30  C   UNL     1      -1.769   2.634  25.301  0.00  0.00    +0.110 C 
ATOM     31  N   UNL     1      -1.708   1.978  25.185  0.00  0.00    -0.299 N 
ATOM     32  C   UNL     1      -1.913   1.198  25.011  0.00  0.00    +0.261 A 
ATOM     33  O   UNL     1      -1.329   0.615  24.979  0.00  0.00    -0.267 OA
ATOM     34  C   UNL     1      -2.701   1.001  24.868  0.00  0.00    +0.061 A 
ATOM     35  C   UNL     1      -3.284   1.583  24.900  0.00  0.00    +0.006 A 
ENDROOT
BRANCH   9   6
ATOM      3  C   UNL     1      -4.830   4.111  25.170  0.00  0.00    +0.139 A 
ATOM      4  C   UNL     1      -4.449   3.947  24.457  0.00  0.00    +0.037 A 
ATOM      5  C   UNL     1      -3.866   3.364  24.425  0.00  0.00    +0.003 A 
ATOM      6  C   UNL     1      -3.663   2.946  25.106  0.00  0.00    +0.001 A 
ATOM      7  C   UNL     1      -4.044   3.109  25.819  0.00  0.00    +0.003 A 
ATOM      8  C   UNL     1      -4.627   3.692  25.851  0.00  0.00    +0.037 A 
BRANCH   3   2
ATOM      1  C   UNL     1      -6.139   4.531  25.559  0.00  0.00    +0.252 C 
ATOM      2  O   UNL     1      -5.413   4.693  25.202  0.00  0.00    -0.471 OA
ENDBRANCH   3   2
ENDBRANCH   9   6
BRANCH  15  17
ATOM     17  S   UNL     1      -0.755   1.292  25.184  0.00  0.00    +0.063 S 
ATOM     18  O   UNL     1      -0.654   1.445  24.379  0.00  0.00    -0.153 OA
ATOM     19  O   UNL     1      -0.856   1.140  25.989  0.00  0.00    -0.153 OA
BRANCH  17  20
ATOM     20  C   UNL     1      -0.783   0.482  25.027  0.00  0.00    +0.122 A 
ATOM     21  C   UNL     1      -0.928  -0.051  25.639  0.00  0.00    +0.021 A 
ATOM     22  C   UNL     1      -0.956  -0.861  25.482  0.00  0.00    +0.018 A 
ATOM     23  C   UNL     1      -0.839  -1.136  24.713  0.00  0.00    +0.073 A 
ATOM     28  C   UNL     1      -0.694  -0.602  24.101  0.00  0.00    +0.018 A 
ATOM     29  C   UNL     1      -0.666   0.208  24.258  0.00  0.00    +0.021 A 
BRANCH  23  24
ATOM     24  N   UNL     1      -0.867  -1.946  24.556  0.00  0.00    -0.179 NA
ATOM     25  C   UNL     1      -1.594  -2.316  24.428  0.00  0.00    +0.246 C 
ATOM     26  C   UNL     1      -1.622  -3.125  24.271  0.00  0.00    +0.097 C 
ATOM     27  O   UNL     1      -2.292  -1.876  24.456  0.00  0.00    -0.273 OA
ENDBRANCH  23  24
ENDBRANCH  17  20
ENDBRANCH  15  17
TORSDOF 5
ENDMDL
MODEL 7
REMARK VINA RESULT:     -11.3      3.101      4.369
REMARK  Name = 
REMARK  5 active torsions:
REMARK  status: ('A' for Active; 'I' for Inactive)
REMARK    1  A    between atoms: O_2  and  C_3
REMARK    2  A    between atoms: C_6  and  C_9
REMARK    3  A    between atoms: N_15  and  S_17
REMARK    4  A    between atoms: S_17  and  C_20
REMARK    5  A    between atoms: C_23  and  N_24
REMARK                            x       y       z     vdW  Elec       q    Type
REMARK                         _______ _______ _______ _____ _____    ______ ____
ROOT
ATOM      9  C   UNL     1      -3.030   0.873  24.515  0.00  0.00    +0.012 A 
ATOM     10  C   UNL     1      -2.759   0.191  24.891  0.00  0.00    +0.041 A 
ATOM     11  C   UNL     1      -3.035  -0.456  25.483  0.00  0.00    +0.056 C 
ATOM     12  C   UNL     1      -3.589  -0.648  25.868  0.00  0.00    +0.011 C 
ATOM     13  C   UNL     1      -2.832  -0.914  25.726  0.00  0.00    +0.041 C 
ATOM     14  C   UNL     1      -1.965  -1.387  25.686  0.00  0.00    +0.098 C 
ATOM     15  N   UNL     1      -1.561  -0.893  25.147  0.00  0.00    -0.155 NA
ATOM     16  C   UNL     1      -2.203  -0.924  25.454  0.00  0.00    +0.102 C 
ATOM     30  C   UNL     1      -2.535  -0.244  25.107  0.00  0.00    +0.110 C 
ATOM     31  N   UNL     1      -1.993  -0.082  24.749  0.00  0.00    -0.299 N 
ATOM     32  C   UNL     1      -1.498   0.328  24.232  0.00  0.00    +0.261 A 
ATOM     33  O   UNL     1      -0.732   0.056  24.091  0.00  0.00    -0.267 OA
ATOM     34  C   UNL     1      -1.769   1.011  23.857  0.00  0.00    +0.061 A 
ATOM     35  C   UNL     1      -2.535   1.283  23.998  0.00  0.00    +0.006 A 
ENDROOT
BRANCH   9   6
ATOM      3  C   UNL     1      -5.327   1.690  24.940  0.00  0.00    +0.139 A 
ATOM      4  C   UNL     1      -5.200   1.079  24.401  0.00  0.00    +0.037 A 
ATOM      5  C   UNL     1      -4.434   0.806  24.260  0.00  0.00    +0.003 A 
ATOM      6  C   UNL     1      -3.795   1.146  24.657  0.00  0.00    +0.001 A 
ATOM      7  C   UNL     1      -3.923   1.757  25.195  0.00  0.00    +0.003 A 
ATOM      8  C   UNL     1      -4.689   2.030  25.336  0.00  0.00    +0.037 A 
BRANCH   3   2
ATOM      1  C   UNL     1      -6.289   2.280  25.817  0.00  0.00    +0.252 C 
ATOM      2  O   UNL     1      -6.092   1.962  25.081  0.00  0.00    -0.471 OA
ENDBRANCH   3   2
ENDBRANCH   9   6
BRANCH  15  17
ATOM     17  S   UNL     1      -0.948  -0.612  24.672  0.00  0.00    +0.063 S 
ATOM     18  O   UNL     1      -0.677  -0.146  25.297  0.00  0.00    -0.153 OA
ATOM     19  O   UNL     1      -1.219  -1.078  24.047  0.00  0.00    -0.153 OA
BRANCH  17  20
ATOM     20  C   UNL     1      -0.335  -0.331  24.196  0.00  0.00    +0.122 A 
ATOM     21  C   UNL     1       0.138   0.292  24.458  0.00  0.00    +0.021 A 
ATOM     22  C   UNL     1       0.751   0.573  23.982  0.00  0.00    +0.018 A 
ATOM     23  C   UNL     1       0.890   0.230  23.245  0.00  0.00    +0.073 A 
ATOM     28  C   UNL     1       0.418  -0.392  22.983  0.00  0.00    +0.018 A 
ATOM     29  C   UNL     1      -0.195  -0.673  23.459  0.00  0.00    +0.021 A 
BRANCH  23  24
ATOM     24  N   UNL     1       1.503   0.511  22.769  0.00  0.00    -0.179 NA
ATOM     25  C   UNL     1       2.225   0.112  22.747  0.00  0.00    +0.246 C 
ATOM     26  C   UNL     1       2.838   0.392  22.272  0.00  0.00    +0.097 C 
ATOM     27  O   UNL     1       2.333  -0.569  23.202  0.00  0.00    -0.273 OA
ENDBRANCH  23  24
ENDBRANCH  17  20
ENDBRANCH  15  17
TORSDOF 5
ENDMDL
MODEL 8
REMARK VINA RESULT:     -11.0      3.141      4.845
REMARK  Name = 
REMARK  5 active torsions:
REMARK  status: ('A' for Active; 'I' for Inactive)
REMARK    1  A    between atoms: O_2  and  C_3
REMARK    2  A    between atoms: C_6  and  C_9
REMARK    3  A    between atoms: N_15  and  S_17
REMARK    4  A    between atoms: S_17  and  C_20
REMARK    5  A    between atoms: C_23  and  N_24
REMARK                            x       y       z     vdW  Elec       q    Type
REMARK                         _______ _______ _______ _____ _____    ______ ____
ROOT
ATOM      9  C   UNL     1      -0.386   0.357  23.680  0.00  0.00    +0.012 A 
ATOM     10  C   UNL     1      -0.655  -0.220  24.204  0.00  0.00    +0.041 A 
ATOM     11  C   UNL     1      -0.378  -0.990  24.622  0.00  0.00    +0.056 C 
ATOM     12  C   UNL     1       0.176  -1.418  24.677  0.00  0.00    +0.011 C 
ATOM     13  C   UNL     1      -0.580  -1.370  24.977  0.00  0.00    +0.041 C 
ATOM     14  C   UNL     1      -1.445  -1.485  25.440  0.00  0.00    +0.098 C 
ATOM     15  N   UNL     1      -1.850  -0.815  25.149  0.00  0.00    -0.155 NA
ATOM     16  C   UNL     1      -1.209  -1.115  25.077  0.00  0.00    +0.102 C 
ATOM     30  C   UNL     1      -0.879  -0.566  24.545  0.00  0.00    +0.110 C 
ATOM     31  N   UNL     1      -1.420  -0.175  24.510  0.00  0.00    -0.299 N 
ATOM     32  C   UNL     1      -1.916   0.448  24.292  0.00  0.00    +0.261 A 
ATOM     33  O   UNL     1      -2.681   0.493  24.598  0.00  0.00    -0.267 OA
ATOM     34  C   UNL     1      -1.646   1.025  23.768  0.00  0.00    +0.061 A 
ATOM     35  C   UNL     1      -0.881   0.979  23.462  0.00  0.00    +0.006 A 
ENDROOT
BRANCH   9   6
ATOM      3  C   UNL     1       1.909   0.220  22.762  0.00  0.00    +0.139 A 
ATOM      4  C   UNL     1       1.754   0.699  23.415  0.00  0.00    +0.037 A 
ATOM      5  C   UNL     1       0.989   0.745  23.721  0.00  0.00    +0.003 A 
ATOM      6  C   UNL     1       0.379   0.311  23.374  0.00  0.00    +0.001 A 
ATOM      7  C   UNL     1       0.534  -0.168  22.721  0.00  0.00    +0.003 A 
ATOM      8  C   UNL     1       1.299  -0.214  22.415  0.00  0.00    +0.037 A 
BRANCH   3   2
ATOM      1  C   UNL     1       3.271   0.653  22.766  0.00  0.00    +0.252 C 
ATOM      2  O   UNL     1       2.673   0.175  22.457  0.00  0.00    -0.471 OA
ENDBRANCH   3   2
ENDBRANCH   9   6
BRANCH  15  17
ATOM     17  S   UNL     1      -2.464  -0.273  25.040  0.00  0.00    +0.063 S 
ATOM     18  O   UNL     1      -2.175   0.180  25.667  0.00  0.00    -0.153 OA
ATOM     19  O   UNL     1      -2.752  -0.726  24.413  0.00  0.00    -0.153 OA
BRANCH  17  20
ATOM     20  C   UNL     1      -3.077   0.268  24.930  0.00  0.00    +0.122 A 
ATOM     21  C   UNL     1      -3.088   0.971  25.362  0.00  0.00    +0.021 A 
ATOM     22  C   UNL     1      -3.701   1.512  25.253  0.00  0.00    +0.018 A 
ATOM     23  C   UNL     1      -4.302   1.350  24.712  0.00  0.00    +0.073 A 
ATOM     28  C   UNL     1      -4.291   0.648  24.280  0.00  0.00    +0.018 A 
ATOM     29  C   UNL     1      -3.678   0.106  24.390  0.00  0.00    +0.021 A 
BRANCH  23  24
ATOM     24  N   UNL     1      -4.916   1.892  24.603  0.00  0.00    -0.179 NA
ATOM     25  C   UNL     1      -5.561   1.894  25.118  0.00  0.00    +0.246 C 
ATOM     26  C   UNL     1      -6.173   2.435  25.009  0.00  0.00    +0.097 C 
ATOM     27  O   UNL     1      -5.592   1.355  25.742  0.00  0.00    -0.273 OA
ENDBRANCH  23  24
ENDBRANCH  17  20
ENDBRANCH  15  17
TORSDOF 5
ENDMDL
