MODEL 1
REMARK VINA RESULT:     -17.1      0.000      0.000
REMARK  Name = 
REMARK  3 active torsions:
REMARK  status: ('A' for Active; 'I' for Inactive)
REMARK    1  A    between atoms: C_5  and  C_6
REMARK    2  A    between atoms: C_7  and  C_8
REMARK    3  A    between atoms: N_20  and  C_21
REMARK                            x       y       z     vdW  Elec       q    Type
REMARK                         _______ _______ _______ _____ _____    ______ ____
ROOT
ATOM      8  C   UNL     1      -4.229   1.026  24.920  0.00  0.00    +0.056 A 
ATOM      9  C   UNL     1      -5.040   1.120  25.038  0.00  0.00    +0.006 A 
ATOM     10  C   UNL     1      -5.352   1.871  25.181  0.00  0.00    +0.013 A 
ATOM     11  C   UNL     1      -4.852   2.527  25.205  0.00  0.00    +0.041 A 
ATOM     12  C   UNL     1      -4.875   3.436  25.332  0.00  0.00    +0.058 C 
ATOM     13  C   UNL     1      -5.320   3.963  25.461  0.00  0.00    +0.011 C 
ATOM     14  C   UNL     1      -4.520   3.866  25.344  0.00  0.00    +0.043 C 
ATOM     15  C   UNL     1      -3.542   3.953  25.229  0.00  0.00    +0.097 C 
ATOM     16  N   UNL     1      -3.346   3.152  25.095  0.00  0.00    -0.262 N 
ATOM     17  C   UNL     1      -3.931   3.537  25.223  0.00  0.00    +0.101 C 
ATOM     18  C   UNL     1      -2.877   2.489  24.944  0.00  0.00    +0.327 C 
ATOM     19  O   UNL     1      -3.225   1.743  24.888  0.00  0.00    -0.250 OA
ATOM     20  N   UNL     1      -2.062   2.573  24.850  0.00  0.00    -0.162 NA
ATOM     27  C   UNL     1      -4.486   2.916  25.211  0.00  0.00    +0.110 C 
ATOM     28  N   UNL     1      -4.041   2.432  25.087  0.00  0.00    -0.299 N 
ATOM     29  C   UNL     1      -3.730   1.681  24.945  0.00  0.00    +0.261 A 
ATOM     30  O   UNL     1      -2.992   1.341  24.803  0.00  0.00    -0.267 OA
ENDROOT
BRANCH  20  21
ATOM     21  C   UNL     1      -1.594   1.911  24.699  0.00  0.00    +0.075 A 
ATOM     22  C   UNL     1      -1.459   1.669  23.922  0.00  0.00    +0.017 A 
ATOM     23  C   UNL     1      -0.991   1.007  23.772  0.00  0.00    +0.001 A 
ATOM     24  C   UNL     1      -0.658   0.585  24.399  0.00  0.00    +0.000 A 
ATOM     25  C   UNL     1      -0.793   0.827  25.175  0.00  0.00    +0.001 A 
ATOM     26  C   UNL     1      -1.261   1.489  25.326  0.00  0.00    +0.017 A 
ENDBRANCH  20  21
BRANCH   8   7
ATOM      6  C   UNL     1      -4.395  -0.392  24.866  0.00  0.00    +0.000 C 
ATOM      7  C   UNL     1      -3.919   0.275  24.778  0.00  0.00    +0.005 C 
BRANCH   6   5
ATOM      1 CL   UNL     1      -3.150  -3.395  24.296  0.00  0.00    -0.082 Cl
ATOM      2  C   UNL     1      -3.461  -2.645  24.439  0.00  0.00    +0.058 A 
ATOM      3  C   UNL     1      -3.340  -2.280  25.168  0.00  0.00    +0.011 A 
ATOM      4  C   UNL     1      -3.651  -1.529  25.311  0.00  0.00    +0.001 A 
ATOM      5  C   UNL     1      -4.083  -1.144  24.724  0.00  0.00    +0.000 A 
ATOM     31  C   UNL     1      -4.205  -1.508  23.994  0.00  0.00    +0.001 A 
ATOM     32  C   UNL     1      -3.893  -2.259  23.851  0.00  0.00    +0.011 A 
ENDBRANCH   6   5
ENDBRANCH   8   7
TORSDOF 3
ENDMDL
MODEL 2
REMARK VINA RESULT:     -16.4      2.056      4.333
REMARK  Name = 
REMARK  3 active torsions:
REMARK  status: ('A' for Active; 'I' for Inactive)
REMARK    1  A    between atoms: C_5  and  C_6
REMARK    2  A    between atoms: C_7  and  C_8
REMARK    3  A    between atoms: N_20  and  C_21
REMARK                            x       y       z     vdW  Elec       q    Type
REMARK                         _______ _______ _______ _____ _____    ______ ____
ROOT
ATOM      8  C   UNL     1      -3.581   0.035  24.465  0.00  0.00    +0.056 A 
ATOM      9  C   UNL     1      -4.307  -0.335  24.337  0.00  0.00    +0.006 A 
ATOM     10  C   UNL     1      -4.351  -1.158  24.303  0.00  0.00    +0.013 A 
ATOM     11  C   UNL     1      -3.668  -1.611  24.397  0.00  0.00    +0.041 A 
ATOM     12  C   UNL     1      -3.389  -2.487  24.413  0.00  0.00    +0.058 C 
ATOM     13  C   UNL     1      -3.632  -3.143  24.353  0.00  0.00    +0.011 C 
ATOM     14  C   UNL     1      -2.916  -2.774  24.479  0.00  0.00    +0.043 C 
ATOM     15  C   UNL     1      -1.975  -2.520  24.638  0.00  0.00    +0.097 C 
ATOM     16  N   UNL     1      -2.055  -1.689  24.653  0.00  0.00    -0.262 N 
ATOM     17  C   UNL     1      -2.475  -2.257  24.567  0.00  0.00    +0.101 C 
ATOM     18  C   UNL     1      -1.836  -0.895  24.714  0.00  0.00    +0.327 C 
ATOM     19  O   UNL     1      -2.407  -0.303  24.642  0.00  0.00    -0.250 OA
ATOM     20  N   UNL     1      -1.047  -0.694  24.846  0.00  0.00    -0.162 NA
ATOM     27  C   UNL     1      -3.198  -1.857  24.464  0.00  0.00    +0.110 C 
ATOM     28  N   UNL     1      -2.942  -1.241  24.525  0.00  0.00    -0.299 N 
ATOM     29  C   UNL     1      -2.898  -0.418  24.559  0.00  0.00    +0.261 A 
ATOM     30  O   UNL     1      -2.322   0.161  24.671  0.00  0.00    -0.267 OA
ENDROOT
BRANCH  20  21
ATOM     21  C   UNL     1      -0.828   0.099  24.907  0.00  0.00    +0.075 A 
ATOM     22  C   UNL     1      -0.859   0.481  25.639  0.00  0.00    +0.017 A 
ATOM     23  C   UNL     1      -0.640   1.274  25.699  0.00  0.00    +0.001 A 
ATOM     24  C   UNL     1      -0.391   1.686  25.029  0.00  0.00    +0.000 A 
ATOM     25  C   UNL     1      -0.360   1.304  24.298  0.00  0.00    +0.001 A 
ATOM     26  C   UNL     1      -0.579   0.511  24.237  0.00  0.00    +0.017 A 
ENDBRANCH  20  21
BRANCH   8   7
ATOM      6  C   UNL     1      -4.225   1.310  24.431  0.00  0.00    +0.000 C 
ATOM      7  C   UNL     1      -3.538   0.858  24.499  0.00  0.00    +0.005 C 
BRANCH   6   5
ATOM      1 CL   UNL     1      -4.051   4.603  24.567  0.00  0.00    -0.082 Cl
ATOM      2  C   UNL     1      -4.094   3.780  24.533  0.00  0.00    +0.058 A 
ATOM      3  C   UNL     1      -3.874   3.383  23.845  0.00  0.00    +0.011 A 
ATOM      4  C   UNL     1      -3.917   2.560  23.810  0.00  0.00    +0.001 A 
ATOM      5  C   UNL     1      -4.181   2.134  24.465  0.00  0.00    +0.000 A 
ATOM     31  C   UNL     1      -4.402   2.530  25.154  0.00  0.00    +0.001 A 
ATOM     32  C   UNL     1      -4.359   3.354  25.188  0.00  0.00    +0.011 A 
ENDBRANCH   6   5
ENDBRANCH   8   7
TORSDOF 3
ENDMDL
MODEL 3
REMARK VINA RESULT:     -16.2      1.216      2.918
REMARK  Name = 
REMARK  3 active torsions:
REMARK  status: ('A' for Active; 'I' for Inactive)
REMARK    1  A    between atoms: C_5  and  C_6
REMARK    2  A    between atoms: C_7  and  C_8
REMARK    3  A    between atoms: N_20  and  C_21
REMARK                            x       y       z     vdW  Elec       q    Type
REMARK                         _______ _______ _______ _____ _____    ______ ____
ROOT
ATOM      8  C   UNL     1      -2.211   1.797  25.007  0.00  0.00    +0.056 A 
ATOM      9  C   UNL     1      -1.388   1.775  24.965  0.00  0.00    +0.006 A 
ATOM     10  C   UNL     1      -0.954   2.476  24.995  0.00  0.00    +0.013 A 
ATOM     11  C   UNL     1      -1.343   3.199  25.068  0.00  0.00    +0.041 A 
ATOM     12  C   UNL     1      -1.171   4.100  25.126  0.00  0.00    +0.058 C 
ATOM     13  C   UNL     1      -0.641   4.559  25.133  0.00  0.00    +0.011 C 
ATOM     14  C   UNL     1      -1.454   4.578  25.175  0.00  0.00    +0.043 C 
ATOM     15  C   UNL     1      -2.414   4.804  25.240  0.00  0.00    +0.097 C 
ATOM     16  N   UNL     1      -2.741   4.037  25.199  0.00  0.00    -0.262 N 
ATOM     17  C   UNL     1      -2.095   4.335  25.189  0.00  0.00    +0.101 C 
ATOM     18  C   UNL     1      -3.317   3.446  25.184  0.00  0.00    +0.327 C 
ATOM     19  O   UNL     1      -3.094   2.654  25.115  0.00  0.00    -0.250 OA
ATOM     20  N   UNL     1      -4.115   3.646  25.239  0.00  0.00    -0.162 NA
ATOM     27  C   UNL     1      -1.644   3.639  25.115  0.00  0.00    +0.110 C 
ATOM     28  N   UNL     1      -2.167   3.221  25.110  0.00  0.00    -0.299 N 
ATOM     29  C   UNL     1      -2.601   2.520  25.080  0.00  0.00    +0.261 A 
ATOM     30  O   UNL     1      -3.392   2.288  25.102  0.00  0.00    -0.267 OA
ENDROOT
BRANCH  20  21
ATOM     21  C   UNL     1      -4.691   3.055  25.224  0.00  0.00    +0.075 A 
ATOM     22  C   UNL     1      -4.965   2.764  24.501  0.00  0.00    +0.017 A 
ATOM     23  C   UNL     1      -5.540   2.173  24.487  0.00  0.00    +0.001 A 
ATOM     24  C   UNL     1      -5.842   1.873  25.194  0.00  0.00    +0.000 A 
ATOM     25  C   UNL     1      -5.568   2.164  25.915  0.00  0.00    +0.001 A 
ATOM     26  C   UNL     1      -4.993   2.754  25.931  0.00  0.00    +0.017 A 
ENDBRANCH  20  21
BRANCH   8   7
ATOM      6  C   UNL     1      -2.254   0.372  24.913  0.00  0.00    +0.000 C 
ATOM      7  C   UNL     1      -2.645   1.096  24.977  0.00  0.00    +0.005 C 
BRANCH   6   5
ATOM      1 CL   UNL     1      -3.990  -2.432  24.792  0.00  0.00    -0.082 Cl
ATOM      2  C   UNL     1      -3.556  -1.731  24.822  0.00  0.00    +0.058 A 
ATOM      3  C   UNL     1      -3.468  -1.271  24.143  0.00  0.00    +0.011 A 
ATOM      4  C   UNL     1      -3.034  -0.570  24.173  0.00  0.00    +0.001 A 
ATOM      5  C   UNL     1      -2.689  -0.330  24.882  0.00  0.00    +0.000 A 
ATOM     31  C   UNL     1      -2.776  -0.789  25.562  0.00  0.00    +0.001 A 
ATOM     32  C   UNL     1      -3.211  -1.491  25.532  0.00  0.00    +0.011 A 
ENDBRANCH   6   5
ENDBRANCH   8   7
TORSDOF 3
ENDMDL
MODEL 4
REMARK VINA RESULT:     -15.4      2.125      4.793
REMARK  Name = 
REMARK  3 active torsions:
REMARK  status: ('A' for Active; 'I' for Inactive)
REMARK    1  A    between atoms: C_5  and  C_6
REMARK    2  A    between atoms: C_7  and  C_8
REMARK    3  A    between atoms: N_20  and  C_21
REMARK                            x       y       z     vdW  Elec       q    Type
REMARK                         _______ _______ _______ _____ _____    ______ ____
ROOT
ATOM      8  C   UNL     1      -2.030   0.806  24.985  0.00  0.00    +0.056 A 
ATOM      9  C   UNL     1      -1.336   0.360  25.010  0.00  0.00    +0.006 A 
ATOM     10  C   UNL     1      -1.374  -0.464  24.990  0.00  0.00    +0.013 A 
ATOM     11  C   UNL     1      -2.105  -0.842  24.946  0.00  0.00    +0.041 A 
ATOM     12  C   UNL     1      -2.472  -1.684  24.909  0.00  0.00    +0.058 C 
ATOM     13  C   UNL     1      -2.294  -2.362  24.904  0.00  0.00    +0.011 C 
ATOM     14  C   UNL     1      -2.977  -1.919  24.879  0.00  0.00    +0.043 C 
ATOM     15  C   UNL     1      -3.899  -1.566  24.841  0.00  0.00    +0.097 C 
ATOM     16  N   UNL     1      -3.736  -0.747  24.867  0.00  0.00    -0.262 N 
ATOM     17  C   UNL     1      -3.369  -1.357  24.872  0.00  0.00    +0.101 C 
ATOM     18  C   UNL     1      -3.877   0.066  24.878  0.00  0.00    +0.327 C 
ATOM     19  O   UNL     1      -3.245   0.595  24.920  0.00  0.00    -0.250 OA
ATOM     20  N   UNL     1      -4.651   0.351  24.845  0.00  0.00    -0.162 NA
ATOM     27  C   UNL     1      -2.603  -1.036  24.917  0.00  0.00    +0.110 C 
ATOM     28  N   UNL     1      -2.799  -0.396  24.921  0.00  0.00    -0.299 N 
ATOM     29  C   UNL     1      -2.762   0.428  24.941  0.00  0.00    +0.261 A 
ATOM     30  O   UNL     1      -3.284   1.065  24.929  0.00  0.00    -0.267 OA
ENDROOT
BRANCH  20  21
ATOM     21  C   UNL     1      -4.792   1.164  24.856  0.00  0.00    +0.075 A 
ATOM     22  C   UNL     1      -4.751   1.599  24.156  0.00  0.00    +0.017 A 
ATOM     23  C   UNL     1      -4.893   2.411  24.167  0.00  0.00    +0.001 A 
ATOM     24  C   UNL     1      -5.076   2.789  24.878  0.00  0.00    +0.000 A 
ATOM     25  C   UNL     1      -5.117   2.354  25.577  0.00  0.00    +0.001 A 
ATOM     26  C   UNL     1      -4.975   1.541  25.567  0.00  0.00    +0.017 A 
ENDBRANCH  20  21
BRANCH   8   7
ATOM      6  C   UNL     1      -1.260   2.007  25.057  0.00  0.00    +0.000 C 
ATOM      7  C   UNL     1      -1.992   1.629  25.005  0.00  0.00    +0.005 C 
BRANCH   6   5
ATOM      1 CL   UNL     1      -1.108   5.303  25.136  0.00  0.00    -0.082 Cl
ATOM      2  C   UNL     1      -1.147   4.479  25.117  0.00  0.00    +0.058 A 
ATOM      3  C   UNL     1      -1.475   4.066  25.750  0.00  0.00    +0.011 A 
ATOM      4  C   UNL     1      -1.513   3.243  25.731  0.00  0.00    +0.001 A 
ATOM      5  C   UNL     1      -1.222   2.832  25.077  0.00  0.00    +0.000 A 
ATOM     31  C   UNL     1      -0.893   3.244  24.443  0.00  0.00    +0.001 A 
ATOM     32  C   UNL     1      -0.855   4.069  24.462  0.00  0.00    +0.011 A 
ENDBRANCH   6   5
ENDBRANCH   8   7
TORSDOF 3
ENDMDL
MODEL 5
REMARK VINA RESULT:     -14.8      1.206      3.128
REMARK  Name = 
REMARK  3 active torsions:
REMARK  status: ('A' for Active; 'I' for Inactive)
REMARK    1  A    between atoms: C_5  and  C_6
REMARK    2  A    between atoms: C_7  and  C_8
REMARK    3  A    between atoms: N_20  and  C_21
REMARK                            x       y       z     vdW  Elec       q    Type
REMARK                         _______ _______ _______ _____ _____    ______ ____
ROOT
ATOM      8  C   UNL     1      -2.938   1.946  24.637  0.00  0.00    +0.056 A 
ATOM      9  C   UNL     1      -2.823   2.763  24.662  0.00  0.00    +0.006 A 
ATOM     10  C   UNL     1      -3.441   3.260  24.890  0.00  0.00    +0.013 A 
ATOM     11  C   UNL     1      -4.173   2.940  25.095  0.00  0.00    +0.041 A 
ATOM     12  C   UNL     1      -5.011   3.195  25.374  0.00  0.00    +0.058 C 
ATOM     13  C   UNL     1      -5.388   3.765  25.533  0.00  0.00    +0.011 C 
ATOM     14  C   UNL     1      -5.498   2.958  25.508  0.00  0.00    +0.043 C 
ATOM     15  C   UNL     1      -5.821   2.025  25.540  0.00  0.00    +0.097 C 
ATOM     16  N   UNL     1      -5.128   1.628  25.296  0.00  0.00    -0.262 N 
ATOM     17  C   UNL     1      -5.339   2.299  25.410  0.00  0.00    +0.101 C 
ATOM     18  C   UNL     1      -4.631   1.001  25.095  0.00  0.00    +0.327 C 
ATOM     19  O   UNL     1      -3.852   1.149  24.864  0.00  0.00    -0.250 OA
ATOM     20  N   UNL     1      -4.912   0.226  25.126  0.00  0.00    -0.162 NA
ATOM     27  C   UNL     1      -4.625   2.682  25.216  0.00  0.00    +0.110 C 
ATOM     28  N   UNL     1      -4.288   2.123  25.070  0.00  0.00    -0.299 N 
ATOM     29  C   UNL     1      -3.670   1.626  24.842  0.00  0.00    +0.261 A 
ATOM     30  O   UNL     1      -3.538   0.818  24.742  0.00  0.00    -0.267 OA
ENDROOT
BRANCH  20  21
ATOM     21  C   UNL     1      -4.414  -0.402  24.925  0.00  0.00    +0.075 A 
ATOM     22  C   UNL     1      -3.941  -0.754  25.502  0.00  0.00    +0.017 A 
ATOM     23  C   UNL     1      -3.444  -1.381  25.301  0.00  0.00    +0.001 A 
ATOM     24  C   UNL     1      -3.420  -1.656  24.523  0.00  0.00    +0.000 A 
ATOM     25  C   UNL     1      -3.893  -1.303  23.947  0.00  0.00    +0.001 A 
ATOM     26  C   UNL     1      -4.390  -0.677  24.147  0.00  0.00    +0.017 A 
ENDBRANCH  20  21
BRANCH   8   7
ATOM      6  C   UNL     1      -1.561   1.757  24.308  0.00  0.00    +0.000 C 
ATOM      7  C   UNL     1      -2.320   1.451  24.409  0.00  0.00    +0.005 C 
BRANCH   6   5
ATOM      1 CL   UNL     1       0.912  -0.229  23.393  0.00  0.00    -0.082 Cl
ATOM      2  C   UNL     1       0.294   0.268  23.622  0.00  0.00    +0.058 A 
ATOM      3  C   UNL     1      -0.129   0.688  23.053  0.00  0.00    +0.011 A 
ATOM      4  C   UNL     1      -0.747   1.185  23.281  0.00  0.00    +0.001 A 
ATOM      5  C   UNL     1      -0.942   1.260  24.079  0.00  0.00    +0.000 A 
ATOM     31  C   UNL     1      -0.519   0.839  24.649  0.00  0.00    +0.001 A 
ATOM     32  C   UNL     1       0.099   0.342  24.420  0.00  0.00    +0.011 A 
ENDBRANCH   6   5
ENDBRANCH   8   7
TORSDOF 3
ENDMDL
