MODEL 1
REMARK VINA RESULT:     -14.7      0.000      0.000
REMARK  Name = 
REMARK  4 active torsions:
REMARK  status: ('A' for Active; 'I' for Inactive)
REMARK    1  A    between atoms: C_4  and  C_8
REMARK    2  A    between atoms: C_11  and  C_13
REMARK    3  A    between atoms: N_18  and  C_19
REMARK    4  A    between atoms: C_19  and  C_20
REMARK                            x       y       z     vdW  Elec       q    Type
REMARK                         _______ _______ _______ _____ _____    ______ ____
ROOT
ATOM     13  C   UNL     1      -4.533   2.136  25.035  0.00  0.00    +0.140 C 
ATOM     14  C   UNL     1      -5.319   2.351  25.159  0.00  0.00    +0.060 C 
ATOM     15  C   UNL     1      -5.327   3.103  25.497  0.00  0.00    +0.170 C 
ATOM     16  O   UNL     1      -5.999   3.531  25.712  0.00  0.00    -0.222 OA
ATOM     17  C   UNL     1      -4.546   3.353  25.582  0.00  0.00    +0.106 C 
ATOM     18  N   UNL     1      -4.054   2.756  25.297  0.00  0.00    -0.260 NA
ENDROOT
BRANCH  13  11
ATOM      8  C   UNL     1      -3.932   0.143  24.561  0.00  0.00    +0.203 A 
ATOM      9  N   UNL     1      -3.796   0.526  23.842  0.00  0.00    -0.056 NA
ATOM     10  O   UNL     1      -4.005   1.319  23.933  0.00  0.00    -0.336 OA
ATOM     11  C   UNL     1      -4.269   1.426  24.707  0.00  0.00    +0.251 A 
ATOM     12  N   UNL     1      -4.224   0.700  25.094  0.00  0.00    -0.190 NA
BRANCH   8   4
ATOM      1  C   UNL     1      -4.155  -2.601  23.790  0.00  0.00    +0.031 C 
ATOM      2  C   UNL     1      -3.910  -2.028  24.332  0.00  0.00    -0.022 A 
ATOM      3  C   UNL     1      -4.043  -1.229  24.175  0.00  0.00    -0.001 A 
ATOM      4  C   UNL     1      -3.798  -0.656  24.717  0.00  0.00    +0.039 A 
ATOM      5  C   UNL     1      -3.420  -0.883  25.414  0.00  0.00    +0.003 A 
ATOM      6  C   UNL     1      -3.286  -1.682  25.570  0.00  0.00    -0.000 A 
ATOM      7  C   UNL     1      -3.531  -2.255  25.029  0.00  0.00    -0.004 A 
ENDBRANCH   8   4
ENDBRANCH  13  11
BRANCH  18  19
ATOM     19  C   UNL     1      -3.230   2.774  25.276  0.00  0.00    +0.101 C 
BRANCH  19  20
ATOM     20  C   UNL     1      -2.828   3.477  25.429  0.00  0.00    +0.014 A 
ATOM     21  C   UNL     1      -3.107   4.106  25.886  0.00  0.00    +0.096 A 
ATOM     22  N   UNL     1      -2.528   4.693  25.891  0.00  0.00    -0.244 NA
ATOM     23  C   UNL     1      -1.892   4.429  25.438  0.00  0.00    +0.081 A 
ATOM     24  C   UNL     1      -2.078   3.677  25.152  0.00  0.00    +0.016 A 
ATOM     25  C   UNL     1      -1.538   3.273  24.677  0.00  0.00    +0.001 A 
ATOM     26  C   UNL     1      -0.815   3.619  24.487  0.00  0.00    +0.000 A 
ATOM     27  C   UNL     1      -0.629   4.370  24.772  0.00  0.00    +0.002 A 
ATOM     28  C   UNL     1      -1.168   4.776  25.248  0.00  0.00    +0.019 A 
ENDBRANCH  19  20
ENDBRANCH  18  19
TORSDOF 4
ENDMDL
MODEL 2
REMARK VINA RESULT:     -14.2      2.377      5.714
REMARK  Name = 
REMARK  4 active torsions:
REMARK  status: ('A' for Active; 'I' for Inactive)
REMARK    1  A    between atoms: C_4  and  C_8
REMARK    2  A    between atoms: C_11  and  C_13
REMARK    3  A    between atoms: N_18  and  C_19
REMARK    4  A    between atoms: C_19  and  C_20
REMARK                            x       y       z     vdW  Elec       q    Type
REMARK                         _______ _______ _______ _____ _____    ______ ____
ROOT
ATOM     13  C   UNL     1      -0.241   0.828  24.408  0.00  0.00    +0.140 C 
ATOM     14  C   UNL     1       0.388   0.775  23.878  0.00  0.00    +0.060 C 
ATOM     15  C   UNL     1       0.348   0.039  23.507  0.00  0.00    +0.170 C 
ATOM     16  O   UNL     1       0.871  -0.245  22.936  0.00  0.00    -0.222 OA
ATOM     17  C   UNL     1      -0.305  -0.363  23.809  0.00  0.00    +0.106 C 
ATOM     18  N   UNL     1      -0.670   0.124  24.366  0.00  0.00    -0.260 NA
ENDROOT
BRANCH  13  11
ATOM      8  C   UNL     1      -0.866   2.647  25.333  0.00  0.00    +0.203 A 
ATOM      9  N   UNL     1      -0.485   2.272  25.962  0.00  0.00    -0.056 NA
ATOM     10  O   UNL     1      -0.204   1.545  25.691  0.00  0.00    -0.336 OA
ATOM     11  C   UNL     1      -0.412   1.471  24.896  0.00  0.00    +0.251 A 
ATOM     12  N   UNL     1      -0.821   2.152  24.675  0.00  0.00    -0.190 NA
BRANCH   8   4
ATOM      1  C   UNL     1      -3.091   4.290  26.056  0.00  0.00    +0.031 C 
ATOM      2  C   UNL     1      -2.341   4.209  25.720  0.00  0.00    -0.022 A 
ATOM      3  C   UNL     1      -1.978   3.469  25.694  0.00  0.00    -0.001 A 
ATOM      4  C   UNL     1      -1.228   3.388  25.359  0.00  0.00    +0.039 A 
ATOM      5  C   UNL     1      -0.842   4.048  25.051  0.00  0.00    +0.003 A 
ATOM      6  C   UNL     1      -1.204   4.788  25.077  0.00  0.00    -0.000 A 
ATOM      7  C   UNL     1      -1.954   4.869  25.412  0.00  0.00    -0.004 A 
ENDBRANCH   8   4
ENDBRANCH  13  11
BRANCH  18  19
ATOM     19  C   UNL     1      -1.345  -0.060  24.804  0.00  0.00    +0.101 C 
BRANCH  19  20
ATOM     20  C   UNL     1      -1.667  -0.818  24.768  0.00  0.00    +0.014 A 
ATOM     21  C   UNL     1      -1.247  -1.527  24.821  0.00  0.00    +0.096 A 
ATOM     22  N   UNL     1      -1.786  -2.148  24.758  0.00  0.00    -0.244 NA
ATOM     23  C   UNL     1      -2.539  -1.823  24.666  0.00  0.00    +0.081 A 
ATOM     24  C   UNL     1      -2.465  -1.002  24.672  0.00  0.00    +0.016 A 
ATOM     25  C   UNL     1      -3.135  -0.527  24.590  0.00  0.00    +0.001 A 
ATOM     26  C   UNL     1      -3.878  -0.874  24.502  0.00  0.00    +0.000 A 
ATOM     27  C   UNL     1      -3.952  -1.695  24.495  0.00  0.00    +0.002 A 
ATOM     28  C   UNL     1      -3.283  -2.171  24.577  0.00  0.00    +0.019 A 
ENDBRANCH  19  20
ENDBRANCH  18  19
TORSDOF 4
ENDMDL
MODEL 3
REMARK VINA RESULT:     -13.9      0.940      4.821
REMARK  Name = 
REMARK  4 active torsions:
REMARK  status: ('A' for Active; 'I' for Inactive)
REMARK    1  A    between atoms: C_4  and  C_8
REMARK    2  A    between atoms: C_11  and  C_13
REMARK    3  A    between atoms: N_18  and  C_19
REMARK    4  A    between atoms: C_19  and  C_20
REMARK                            x       y       z     vdW  Elec       q    Type
REMARK                         _______ _______ _______ _____ _____    ______ ____
ROOT
ATOM     13  C   UNL     1      -4.423   1.809  24.934  0.00  0.00    +0.140 C 
ATOM     14  C   UNL     1      -5.078   2.137  25.314  0.00  0.00    +0.060 C 
ATOM     15  C   UNL     1      -5.580   1.520  25.533  0.00  0.00    +0.170 C 
ATOM     16  O   UNL     1      -6.300   1.598  25.928  0.00  0.00    -0.222 OA
ATOM     17  C   UNL     1      -5.235   0.811  25.289  0.00  0.00    +0.106 C 
ATOM     18  N   UNL     1      -4.521   0.989  24.918  0.00  0.00    -0.260 NA
ENDROOT
BRANCH  13  11
ATOM      8  C   UNL     1      -2.660   2.942  24.526  0.00  0.00    +0.203 A 
ATOM      9  N   UNL     1      -2.935   2.795  23.762  0.00  0.00    -0.056 NA
ATOM     10  O   UNL     1      -3.629   2.353  23.822  0.00  0.00    -0.336 OA
ATOM     11  C   UNL     1      -3.783   2.227  24.623  0.00  0.00    +0.251 A 
ATOM     12  N   UNL     1      -3.184   2.590  25.058  0.00  0.00    -0.190 NA
BRANCH   8   4
ATOM      1  C   UNL     1      -1.375   5.428  25.109  0.00  0.00    +0.031 C 
ATOM      2  C   UNL     1      -1.338   4.609  25.014  0.00  0.00    -0.022 A 
ATOM      3  C   UNL     1      -2.018   4.185  24.817  0.00  0.00    -0.001 A 
ATOM      4  C   UNL     1      -1.981   3.366  24.723  0.00  0.00    +0.039 A 
ATOM      5  C   UNL     1      -1.263   2.971  24.827  0.00  0.00    +0.003 A 
ATOM      6  C   UNL     1      -0.584   3.395  25.024  0.00  0.00    -0.000 A 
ATOM      7  C   UNL     1      -0.621   4.214  25.118  0.00  0.00    -0.004 A 
ENDBRANCH   8   4
ENDBRANCH  13  11
BRANCH  18  19
ATOM     19  C   UNL     1      -3.995   0.445  24.590  0.00  0.00    +0.101 C 
BRANCH  19  20
ATOM     20  C   UNL     1      -3.849  -0.271  24.972  0.00  0.00    +0.014 A 
ATOM     21  C   UNL     1      -3.664  -0.365  25.771  0.00  0.00    +0.096 A 
ATOM     22  N   UNL     1      -3.563  -1.171  25.916  0.00  0.00    -0.244 NA
ATOM     23  C   UNL     1      -3.686  -1.574  25.208  0.00  0.00    +0.081 A 
ATOM     24  C   UNL     1      -3.862  -1.018  24.624  0.00  0.00    +0.016 A 
ATOM     25  C   UNL     1      -4.012  -1.266  23.851  0.00  0.00    +0.001 A 
ATOM     26  C   UNL     1      -3.986  -2.067  23.662  0.00  0.00    +0.000 A 
ATOM     27  C   UNL     1      -3.809  -2.623  24.245  0.00  0.00    +0.002 A 
ATOM     28  C   UNL     1      -3.659  -2.378  25.018  0.00  0.00    +0.019 A 
ENDBRANCH  19  20
ENDBRANCH  18  19
TORSDOF 4
ENDMDL
MODEL 4
REMARK VINA RESULT:     -13.6      1.838      5.026
REMARK  Name = 
REMARK  4 active torsions:
REMARK  status: ('A' for Active; 'I' for Inactive)
REMARK    1  A    between atoms: C_4  and  C_8
REMARK    2  A    between atoms: C_11  and  C_13
REMARK    3  A    between atoms: N_18  and  C_19
REMARK    4  A    between atoms: C_19  and  C_20
REMARK                            x       y       z     vdW  Elec       q    Type
REMARK                         _______ _______ _______ _____ _____    ______ ____
ROOT
ATOM     13  C   UNL     1      -1.790   1.182  24.084  0.00  0.00    +0.140 C 
ATOM     14  C   UNL     1      -1.030   1.454  23.919  0.00  0.00    +0.060 C 
ATOM     15  C   UNL     1      -0.501   0.840  24.073  0.00  0.00    +0.170 C 
ATOM     16  O   UNL     1       0.318   0.872  23.983  0.00  0.00    -0.222 OA
ATOM     17  C   UNL     1      -0.935   0.189  24.333  0.00  0.00    +0.106 C 
ATOM     18  N   UNL     1      -1.732   0.399  24.340  0.00  0.00    -0.260 NA
ENDROOT
BRANCH  13  11
ATOM      8  C   UNL     1      -3.604   2.288  24.297  0.00  0.00    +0.203 A 
ATOM      9  N   UNL     1      -3.521   2.276  23.476  0.00  0.00    -0.056 NA
ATOM     10  O   UNL     1      -2.831   1.860  23.297  0.00  0.00    -0.336 OA
ATOM     11  C   UNL     1      -2.489   1.615  24.007  0.00  0.00    +0.251 A 
ATOM     12  N   UNL     1      -2.967   1.879  24.624  0.00  0.00    -0.190 NA
BRANCH   8   4
ATOM      1  C   UNL     1      -6.198   2.145  25.490  0.00  0.00    +0.031 C 
ATOM      2  C   UNL     1      -5.515   2.574  25.313  0.00  0.00    -0.022 A 
ATOM      3  C   UNL     1      -4.901   2.217  24.894  0.00  0.00    -0.001 A 
ATOM      4  C   UNL     1      -4.218   2.645  24.716  0.00  0.00    +0.039 A 
ATOM      5  C   UNL     1      -4.150   3.431  24.959  0.00  0.00    +0.003 A 
ATOM      6  C   UNL     1      -4.764   3.788  25.378  0.00  0.00    -0.000 A 
ATOM      7  C   UNL     1      -5.447   3.360  25.555  0.00  0.00    -0.004 A 
ENDBRANCH   8   4
ENDBRANCH  13  11
BRANCH  18  19
ATOM     19  C   UNL     1      -2.361  -0.086  24.563  0.00  0.00    +0.101 C 
BRANCH  19  20
ATOM     20  C   UNL     1      -2.255  -0.902  24.612  0.00  0.00    +0.014 A 
ATOM     21  C   UNL     1      -1.552  -1.290  24.803  0.00  0.00    +0.096 A 
ATOM     22  N   UNL     1      -1.696  -2.102  24.788  0.00  0.00    -0.244 NA
ATOM     23  C   UNL     1      -2.487  -2.216  24.588  0.00  0.00    +0.081 A 
ATOM     24  C   UNL     1      -2.833  -1.475  24.479  0.00  0.00    +0.016 A 
ATOM     25  C   UNL     1      -3.630  -1.419  24.273  0.00  0.00    +0.001 A 
ATOM     26  C   UNL     1      -4.081  -2.102  24.176  0.00  0.00    +0.000 A 
ATOM     27  C   UNL     1      -3.735  -2.843  24.285  0.00  0.00    +0.002 A 
ATOM     28  C   UNL     1      -2.939  -2.901  24.491  0.00  0.00    +0.019 A 
ENDBRANCH  19  20
ENDBRANCH  18  19
TORSDOF 4
ENDMDL
MODEL 5
REMARK VINA RESULT:     -13.4      1.986      3.122
REMARK  Name = 
REMARK  4 active torsions:
REMARK  status: ('A' for Active; 'I' for Inactive)
REMARK    1  A    between atoms: C_4  and  C_8
REMARK    2  A    between atoms: C_11  and  C_13
REMARK    3  A    between atoms: N_18  and  C_19
REMARK    4  A    between atoms: C_19  and  C_20
REMARK                            x       y       z     vdW  Elec       q    Type
REMARK                         _______ _______ _______ _____ _____    ______ ____
ROOT
ATOM     13  C   UNL     1      -0.632   0.798  24.660  0.00  0.00    +0.140 C 
ATOM     14  C   UNL     1       0.021   0.615  24.193  0.00  0.00    +0.060 C 
ATOM     15  C   UNL     1       0.469   1.302  24.101  0.00  0.00    +0.170 C 
ATOM     16  O   UNL     1       1.171   1.369  23.673  0.00  0.00    -0.222 OA
ATOM     17  C   UNL     1       0.092   1.909  24.511  0.00  0.00    +0.106 C 
ATOM     18  N   UNL     1      -0.590   1.599  24.857  0.00  0.00    -0.260 NA
ENDROOT
BRANCH  13  11
ATOM      8  C   UNL     1      -2.304  -0.513  24.869  0.00  0.00    +0.203 A 
ATOM      9  N   UNL     1      -1.976  -0.552  25.625  0.00  0.00    -0.056 NA
ATOM     10  O   UNL     1      -1.310  -0.065  25.638  0.00  0.00    -0.336 OA
ATOM     11  C   UNL     1      -1.227   0.274  24.891  0.00  0.00    +0.251 A 
ATOM     12  N   UNL     1      -1.841  -0.003  24.416  0.00  0.00    -0.190 NA
BRANCH   8   4
ATOM      1  C   UNL     1      -3.660  -2.966  24.309  0.00  0.00    +0.031 C 
ATOM      2  C   UNL     1      -3.655  -2.141  24.332  0.00  0.00    -0.022 A 
ATOM      3  C   UNL     1      -2.982  -1.740  24.589  0.00  0.00    -0.001 A 
ATOM      4  C   UNL     1      -2.977  -0.915  24.612  0.00  0.00    +0.039 A 
ATOM      5  C   UNL     1      -3.646  -0.492  24.377  0.00  0.00    +0.003 A 
ATOM      6  C   UNL     1      -4.319  -0.893  24.120  0.00  0.00    -0.000 A 
ATOM      7  C   UNL     1      -4.324  -1.719  24.097  0.00  0.00    -0.004 A 
ENDBRANCH   8   4
ENDBRANCH  13  11
BRANCH  18  19
ATOM     19  C   UNL     1      -1.132   2.015  25.319  0.00  0.00    +0.101 C 
BRANCH  19  20
ATOM     20  C   UNL     1      -1.125   2.839  25.324  0.00  0.00    +0.014 A 
ATOM     21  C   UNL     1      -0.460   3.319  25.227  0.00  0.00    +0.096 A 
ATOM     22  N   UNL     1      -0.705   4.105  25.269  0.00  0.00    -0.244 NA
ATOM     23  C   UNL     1      -1.520   4.112  25.392  0.00  0.00    +0.081 A 
ATOM     24  C   UNL     1      -1.780   3.329  25.425  0.00  0.00    +0.016 A 
ATOM     25  C   UNL     1      -2.580   3.165  25.544  0.00  0.00    +0.001 A 
ATOM     26  C   UNL     1      -3.120   3.783  25.629  0.00  0.00    +0.000 A 
ATOM     27  C   UNL     1      -2.860   4.565  25.595  0.00  0.00    +0.002 A 
ATOM     28  C   UNL     1      -2.061   4.730  25.477  0.00  0.00    +0.019 A 
ENDBRANCH  19  20
ENDBRANCH  18  19
TORSDOF 4
ENDMDL
