MODEL 1
REMARK VINA RESULT:      -9.9      0.000      0.000
REMARK  Name = 
REMARK  8 active torsions:
REMARK  status: ('A' for Active; 'I' for Inactive)
REMARK    1  A    between atoms: C_2  and  C_4
REMARK    2  A    between atoms: C_6  and  C_7
REMARK    3  A    between atoms: C_7  and  C_8
REMARK    4  A    between atoms: N_10  and  C_11
REMARK    5  A    between atoms: C_19  and  C_20
REMARK    6  A    between atoms: C_20  and  N_21
REMARK    7  A    between atoms: C_22  and  C_24
REMARK    8  A    between atoms: C_27  and  C_30
REMARK                            x       y       z     vdW  Elec       q    Type
REMARK                         _______ _______ _______ _____ _____    ______ ____
ROOT
ATOM      4  C   UNL     1      -0.415  -0.263  24.330  0.00  0.00    +0.006 C 
ATOM      5  C   UNL     1      -0.790  -0.982  24.478  0.00  0.00    +0.005 C 
ATOM      6  C   UNL     1      -1.178  -1.106  25.194  0.00  0.00    +0.027 C 
ATOM     16  C   UNL     1      -1.191  -0.511  25.765  0.00  0.00    -0.048 C 
ATOM     17  C   UNL     1      -1.579  -0.635  26.482  0.00  0.00    +0.026 C 
ATOM     18  C   UNL     1      -0.816   0.210  25.618  0.00  0.00    -0.033 C 
ATOM     19  C   UNL     1      -0.428   0.334  24.901  0.00  0.00    +0.043 C 
ENDROOT
BRANCH   4   2
ATOM      1  C   UNL     1       0.763  -0.362  23.528  0.00  0.00    +0.000 C 
ATOM      2  C   UNL     1      -0.027  -0.139  23.613  0.00  0.00    +0.000 C 
ATOM      3  C   UNL     1      -0.428   0.208  22.982  0.00  0.00    +0.000 C 
ENDBRANCH   4   2
BRANCH   6   7
ATOM      7  C   UNL     1      -1.554  -1.827  25.341  0.00  0.00    +0.091 C 
BRANCH   7   8
ATOM      8  C   UNL     1      -2.141  -2.098  24.830  0.00  0.00    +0.242 C 
ATOM      9  O   UNL     1      -1.936  -2.546  24.168  0.00  0.00    -0.273 OA
ATOM     10  N   UNL     1      -2.932  -1.921  24.980  0.00  0.00    -0.207 NA
BRANCH  10  11
ATOM     11  C   UNL     1      -3.520  -2.193  24.467  0.00  0.00    +0.095 C 
ATOM     12  C   UNL     1      -4.017  -1.721  24.007  0.00  0.00    +0.022 C 
ATOM     13  C   UNL     1      -4.518  -2.220  23.581  0.00  0.00    +0.002 C 
ATOM     14  C   UNL     1      -4.330  -2.999  23.779  0.00  0.00    +0.002 C 
ATOM     15  C   UNL     1      -3.713  -2.981  24.327  0.00  0.00    +0.022 C 
ENDBRANCH  10  11
ENDBRANCH   7   8
ENDBRANCH   6   7
BRANCH  19  20
ATOM     20  C   UNL     1      -0.053   1.053  24.754  0.00  0.00    +0.120 C 
BRANCH  20  21
ATOM     21  N   UNL     1      -0.477   1.759  24.806  0.00  0.00    -0.201 NA
ATOM     22  C   UNL     1      -0.093   2.455  25.024  0.00  0.00    +0.265 C 
ATOM     23  O   UNL     1       0.715   2.447  25.190  0.00  0.00    -0.268 OA
BRANCH  22  24
ATOM     24  C   UNL     1      -0.518   3.161  25.076  0.00  0.00    +0.055 A 
ATOM     25  C   UNL     1      -1.111   3.245  25.645  0.00  0.00    +0.005 A 
ATOM     26  C   UNL     1      -1.535   3.950  25.697  0.00  0.00    +0.010 A 
ATOM     27  C   UNL     1      -1.367   4.573  25.181  0.00  0.00    +0.068 A 
ATOM     28  C   UNL     1      -0.775   4.488  24.613  0.00  0.00    +0.010 A 
ATOM     29  C   UNL     1      -0.350   3.782  24.561  0.00  0.00    +0.005 A 
BRANCH  27  30
ATOM     30  C   UNL     1      -1.791   5.277  25.233  0.00  0.00    +0.100 C 
ATOM     31  N   UNL     1      -2.216   5.984  25.285  0.00  0.00    -0.191 NA
ENDBRANCH  27  30
ENDBRANCH  22  24
ENDBRANCH  20  21
ENDBRANCH  19  20
TORSDOF 8
ENDMDL
MODEL 2
REMARK VINA RESULT:      -9.6      2.927      4.663
REMARK  Name = 
REMARK  8 active torsions:
REMARK  status: ('A' for Active; 'I' for Inactive)
REMARK    1  A    between atoms: C_2  and  C_4
REMARK    2  A    between atoms: C_6  and  C_7
REMARK    3  A    between atoms: C_7  and  C_8
REMARK    4  A    between atoms: N_10  and  C_11
REMARK    5  A    between atoms: C_19  and  C_20
REMARK    6  A    between atoms: C_20  and  N_21
REMARK    7  A    between atoms: C_22  and  C_24
REMARK    8  A    between atoms: C_27  and  C_30
REMARK                            x       y       z     vdW  Elec       q    Type
REMARK                         _______ _______ _______ _____ _____    ______ ____
ROOT
ATOM      4  C   UNL     1      -2.456   0.454  24.265  0.00  0.00    +0.006 C 
ATOM      5  C   UNL     1      -3.090   0.980  24.215  0.00  0.00    +0.005 C 
ATOM      6  C   UNL     1      -3.006   1.690  23.806  0.00  0.00    +0.027 C 
ATOM     16  C   UNL     1      -2.288   1.876  23.445  0.00  0.00    -0.048 C 
ATOM     17  C   UNL     1      -2.203   2.586  23.034  0.00  0.00    +0.026 C 
ATOM     18  C   UNL     1      -1.653   1.350  23.494  0.00  0.00    -0.033 C 
ATOM     19  C   UNL     1      -1.737   0.640  23.904  0.00  0.00    +0.043 C 
ENDROOT
BRANCH   4   2
ATOM      1  C   UNL     1      -2.277  -0.316  25.455  0.00  0.00    +0.000 C 
ATOM      2  C   UNL     1      -2.541  -0.256  24.676  0.00  0.00    +0.000 C 
ATOM      3  C   UNL     1      -2.889  -0.906  24.307  0.00  0.00    +0.000 C 
ENDBRANCH   4   2
BRANCH   6   7
ATOM      7  C   UNL     1      -3.640   2.216  23.756  0.00  0.00    +0.091 C 
BRANCH   7   8
ATOM      8  C   UNL     1      -4.099   2.374  24.423  0.00  0.00    +0.242 C 
ATOM      9  O   UNL     1      -3.752   2.713  25.091  0.00  0.00    -0.273 OA
ATOM     10  N   UNL     1      -4.903   2.192  24.423  0.00  0.00    -0.207 NA
BRANCH  10  11
ATOM     11  C   UNL     1      -5.362   2.350  25.091  0.00  0.00    +0.095 C 
ATOM     12  C   UNL     1      -5.767   1.791  25.543  0.00  0.00    +0.022 C 
ATOM     13  C   UNL     1      -6.152   2.190  26.155  0.00  0.00    +0.002 C 
ATOM     14  C   UNL     1      -5.984   2.994  26.080  0.00  0.00    +0.002 C 
ATOM     15  C   UNL     1      -5.496   3.093  25.422  0.00  0.00    +0.022 C 
ENDBRANCH  10  11
ENDBRANCH   7   8
ENDBRANCH   6   7
BRANCH  19  20
ATOM     20  C   UNL     1      -1.104   0.114  23.954  0.00  0.00    +0.120 C 
BRANCH  20  21
ATOM     21  N   UNL     1      -0.365   0.329  23.658  0.00  0.00    -0.201 NA
ATOM     22  C   UNL     1       0.246  -0.225  23.632  0.00  0.00    +0.265 C 
ATOM     23  O   UNL     1       0.118  -0.994  23.903  0.00  0.00    -0.268 OA
BRANCH  22  24
ATOM     24  C   UNL     1       0.986  -0.010  23.335  0.00  0.00    +0.055 A 
ATOM     25  C   UNL     1       1.293  -0.397  22.674  0.00  0.00    +0.005 A 
ATOM     26  C   UNL     1       2.032  -0.182  22.378  0.00  0.00    +0.010 A 
ATOM     27  C   UNL     1       2.465   0.419  22.742  0.00  0.00    +0.068 A 
ATOM     28  C   UNL     1       2.156   0.806  23.403  0.00  0.00    +0.010 A 
ATOM     29  C   UNL     1       1.417   0.591  23.699  0.00  0.00    +0.005 A 
BRANCH  27  30
ATOM     30  C   UNL     1       3.203   0.634  22.446  0.00  0.00    +0.100 C 
ATOM     31  N   UNL     1       3.943   0.849  22.149  0.00  0.00    -0.191 NA
ENDBRANCH  27  30
ENDBRANCH  22  24
ENDBRANCH  20  21
ENDBRANCH  19  20
TORSDOF 8
ENDMDL
MODEL 3
REMARK VINA RESULT:      -9.1      2.567      4.126
REMARK  Name = 
REMARK  8 active torsions:
REMARK  status: ('A' for Active; 'I' for Inactive)
REMARK    1  A    between atoms: C_2  and  C_4
REMARK    2  A    between atoms: C_6  and  C_7
REMARK    3  A    between atoms: C_7  and  C_8
REMARK    4  A    between atoms: N_10  and  C_11
REMARK    5  A    between atoms: C_19  and  C_20
REMARK    6  A    between atoms: C_20  and  N_21
REMARK    7  A    between atoms: C_22  and  C_24
REMARK    8  A    between atoms: C_27  and  C_30
REMARK                            x       y       z     vdW  Elec       q    Type
REMARK                         _______ _______ _______ _____ _____    ______ ____
ROOT
ATOM      4  C   UNL     1      -2.713  -0.880  24.704  0.00  0.00    +0.006 C 
ATOM      5  C   UNL     1      -1.908  -1.060  24.714  0.00  0.00    +0.005 C 
ATOM      6  C   UNL     1      -1.367  -0.516  25.015  0.00  0.00    +0.027 C 
ATOM     16  C   UNL     1      -1.629   0.210  25.306  0.00  0.00    -0.048 C 
ATOM     17  C   UNL     1      -1.088   0.755  25.607  0.00  0.00    +0.026 C 
ATOM     18  C   UNL     1      -2.435   0.391  25.296  0.00  0.00    -0.033 C 
ATOM     19  C   UNL     1      -2.976  -0.153  24.996  0.00  0.00    +0.043 C 
ENDROOT
BRANCH   4   2
ATOM      1  C   UNL     1      -3.530  -2.038  24.882  0.00  0.00    +0.000 C 
ATOM      2  C   UNL     1      -3.254  -1.425  24.404  0.00  0.00    +0.000 C 
ATOM      3  C   UNL     1      -3.519  -1.356  23.626  0.00  0.00    +0.000 C 
ENDBRANCH   4   2
BRANCH   6   7
ATOM      7  C   UNL     1      -0.561  -0.696  25.025  0.00  0.00    +0.091 C 
BRANCH   7   8
ATOM      8  C   UNL     1      -0.144  -0.759  24.316  0.00  0.00    +0.242 C 
ATOM      9  O   UNL     1      -0.165  -1.463  23.886  0.00  0.00    -0.273 OA
ATOM     10  N   UNL     1       0.295  -0.119  24.038  0.00  0.00    -0.207 NA
BRANCH  10  11
ATOM     11  C   UNL     1       0.712  -0.182  23.328  0.00  0.00    +0.095 C 
ATOM     12  C   UNL     1       1.533  -0.225  23.251  0.00  0.00    +0.022 C 
ATOM     13  C   UNL     1       1.710  -0.283  22.447  0.00  0.00    +0.002 C 
ATOM     14  C   UNL     1       1.000  -0.274  22.028  0.00  0.00    +0.002 C 
ATOM     15  C   UNL     1       0.383  -0.211  22.573  0.00  0.00    +0.022 C 
ENDBRANCH  10  11
ENDBRANCH   7   8
ENDBRANCH   6   7
BRANCH  19  20
ATOM     20  C   UNL     1      -3.781   0.027  24.986  0.00  0.00    +0.120 C 
BRANCH  20  21
ATOM     21  N   UNL     1      -4.033   0.799  25.128  0.00  0.00    -0.201 NA
ATOM     22  C   UNL     1      -4.832   0.991  25.057  0.00  0.00    +0.265 C 
ATOM     23  O   UNL     1      -5.379   0.412  24.846  0.00  0.00    -0.268 OA
BRANCH  22  24
ATOM     24  C   UNL     1      -5.084   1.765  25.199  0.00  0.00    +0.055 A 
ATOM     25  C   UNL     1      -4.809   2.382  24.725  0.00  0.00    +0.005 A 
ATOM     26  C   UNL     1      -5.061   3.154  24.867  0.00  0.00    +0.010 A 
ATOM     27  C   UNL     1      -5.589   3.310  25.483  0.00  0.00    +0.068 A 
ATOM     28  C   UNL     1      -5.863   2.693  25.956  0.00  0.00    +0.010 A 
ATOM     29  C   UNL     1      -5.611   1.920  25.814  0.00  0.00    +0.005 A 
BRANCH  27  30
ATOM     30  C   UNL     1      -5.840   4.082  25.625  0.00  0.00    +0.100 C 
ATOM     31  N   UNL     1      -6.093   4.855  25.767  0.00  0.00    -0.191 NA
ENDBRANCH  27  30
ENDBRANCH  22  24
ENDBRANCH  20  21
ENDBRANCH  19  20
TORSDOF 8
ENDMDL
MODEL 4
REMARK VINA RESULT:      -8.9      2.321      3.307
REMARK  Name = 
REMARK  8 active torsions:
REMARK  status: ('A' for Active; 'I' for Inactive)
REMARK    1  A    between atoms: C_2  and  C_4
REMARK    2  A    between atoms: C_6  and  C_7
REMARK    3  A    between atoms: C_7  and  C_8
REMARK    4  A    between atoms: N_10  and  C_11
REMARK    5  A    between atoms: C_19  and  C_20
REMARK    6  A    between atoms: C_20  and  N_21
REMARK    7  A    between atoms: C_22  and  C_24
REMARK    8  A    between atoms: C_27  and  C_30
REMARK                            x       y       z     vdW  Elec       q    Type
REMARK                         _______ _______ _______ _____ _____    ______ ____
ROOT
ATOM      4  C   UNL     1      -4.638   1.238  24.747  0.00  0.00    +0.006 C 
ATOM      5  C   UNL     1      -4.662   0.510  24.360  0.00  0.00    +0.005 C 
ATOM      6  C   UNL     1      -4.049   0.290  23.855  0.00  0.00    +0.027 C 
ATOM     16  C   UNL     1      -3.410   0.799  23.736  0.00  0.00    -0.048 C 
ATOM     17  C   UNL     1      -2.797   0.579  23.230  0.00  0.00    +0.026 C 
ATOM     18  C   UNL     1      -3.386   1.528  24.122  0.00  0.00    -0.033 C 
ATOM     19  C   UNL     1      -3.999   1.747  24.627  0.00  0.00    +0.043 C 
ENDROOT
BRANCH   4   2
ATOM      1  C   UNL     1      -5.882   1.905  24.965  0.00  0.00    +0.000 C 
ATOM      2  C   UNL     1      -5.252   1.458  25.253  0.00  0.00    +0.000 C 
ATOM      3  C   UNL     1      -5.235   1.230  26.045  0.00  0.00    +0.000 C 
ENDBRANCH   4   2
BRANCH   6   7
ATOM      7  C   UNL     1      -4.073  -0.439  23.469  0.00  0.00    +0.091 C 
BRANCH   7   8
ATOM      8  C   UNL     1      -4.081  -1.138  23.907  0.00  0.00    +0.242 C 
ATOM      9  O   UNL     1      -4.797  -1.452  24.169  0.00  0.00    -0.273 OA
ATOM     10  N   UNL     1      -3.373  -1.522  24.081  0.00  0.00    -0.207 NA
BRANCH  10  11
ATOM     11  C   UNL     1      -3.380  -2.222  24.520  0.00  0.00    +0.095 C 
ATOM     12  C   UNL     1      -3.588  -2.969  24.236  0.00  0.00    +0.022 C 
ATOM     13  C   UNL     1      -3.517  -3.506  24.859  0.00  0.00    +0.002 C 
ATOM     14  C   UNL     1      -3.266  -3.091  25.526  0.00  0.00    +0.002 C 
ATOM     15  C   UNL     1      -3.181  -2.297  25.316  0.00  0.00    +0.022 C 
ENDBRANCH  10  11
ENDBRANCH   7   8
ENDBRANCH   6   7
BRANCH  19  20
ATOM     20  C   UNL     1      -3.975   2.475  25.014  0.00  0.00    +0.120 C 
BRANCH  20  21
ATOM     21  N   UNL     1      -3.344   2.991  24.885  0.00  0.00    -0.201 NA
ATOM     22  C   UNL     1      -3.176   3.582  25.434  0.00  0.00    +0.265 C 
ATOM     23  O   UNL     1      -3.638   3.658  26.114  0.00  0.00    -0.268 OA
BRANCH  22  24
ATOM     24  C   UNL     1      -2.544   4.098  25.305  0.00  0.00    +0.055 A 
ATOM     25  C   UNL     1      -1.770   3.813  25.314  0.00  0.00    +0.005 A 
ATOM     26  C   UNL     1      -1.139   4.328  25.184  0.00  0.00    +0.010 A 
ATOM     27  C   UNL     1      -1.283   5.130  25.046  0.00  0.00    +0.068 A 
ATOM     28  C   UNL     1      -2.057   5.414  25.038  0.00  0.00    +0.010 A 
ATOM     29  C   UNL     1      -2.688   4.898  25.167  0.00  0.00    +0.005 A 
BRANCH  27  30
ATOM     30  C   UNL     1      -0.652   5.645  24.917  0.00  0.00    +0.100 C 
ATOM     31  N   UNL     1      -0.021   6.161  24.788  0.00  0.00    -0.191 NA
ENDBRANCH  27  30
ENDBRANCH  22  24
ENDBRANCH  20  21
ENDBRANCH  19  20
TORSDOF 8
ENDMDL
MODEL 5
REMARK VINA RESULT:      -8.4      2.909      4.776
REMARK  Name = 
REMARK  8 active torsions:
REMARK  status: ('A' for Active; 'I' for Inactive)
REMARK    1  A    between atoms: C_2  and  C_4
REMARK    2  A    between atoms: C_6  and  C_7
REMARK    3  A    between atoms: C_7  and  C_8
REMARK    4  A    between atoms: N_10  and  C_11
REMARK    5  A    between atoms: C_19  and  C_20
REMARK    6  A    between atoms: C_20  and  N_21
REMARK    7  A    between atoms: C_22  and  C_24
REMARK    8  A    between atoms: C_27  and  C_30
REMARK                            x       y       z     vdW  Elec       q    Type
REMARK                         _______ _______ _______ _____ _____    ______ ____
ROOT
ATOM      4  C   UNL     1      -2.025   3.284  24.754  0.00  0.00    +0.006 C 
ATOM      5  C   UNL     1      -2.816   3.402  24.553  0.00  0.00    +0.005 C 
ATOM      6  C   UNL     1      -3.162   2.951  23.956  0.00  0.00    +0.027 C 
ATOM     16  C   UNL     1      -2.718   2.381  23.559  0.00  0.00    -0.048 C 
ATOM     17  C   UNL     1      -3.064   1.929  22.962  0.00  0.00    +0.026 C 
ATOM     18  C   UNL     1      -1.926   2.262  23.760  0.00  0.00    -0.033 C 
ATOM     19  C   UNL     1      -1.580   2.713  24.357  0.00  0.00    +0.043 C 
ENDROOT
BRANCH   4   2
ATOM      1  C   UNL     1      -1.322   4.457  25.168  0.00  0.00    +0.000 C 
ATOM      2  C   UNL     1      -1.679   3.736  25.351  0.00  0.00    +0.000 C 
ATOM      3  C   UNL     1      -1.688   3.466  26.130  0.00  0.00    +0.000 C 
ENDBRANCH   4   2
BRANCH   6   7
ATOM      7  C   UNL     1      -3.954   3.070  23.755  0.00  0.00    +0.091 C 
BRANCH   7   8
ATOM      8  C   UNL     1      -4.541   2.999  24.331  0.00  0.00    +0.242 C 
ATOM      9  O   UNL     1      -4.795   3.666  24.745  0.00  0.00    -0.273 OA
ATOM     10  N   UNL     1      -4.873   2.262  24.492  0.00  0.00    -0.207 NA
BRANCH  10  11
ATOM     11  C   UNL     1      -5.461   2.191  25.069  0.00  0.00    +0.095 C 
ATOM     12  C   UNL     1      -6.205   1.853  24.962  0.00  0.00    +0.022 C 
ATOM     13  C   UNL     1      -6.611   1.899  25.679  0.00  0.00    +0.002 C 
ATOM     14  C   UNL     1      -6.116   2.266  26.228  0.00  0.00    +0.002 C 
ATOM     15  C   UNL     1      -5.405   2.447  25.850  0.00  0.00    +0.022 C 
ENDBRANCH  10  11
ENDBRANCH   7   8
ENDBRANCH   6   7
BRANCH  19  20
ATOM     20  C   UNL     1      -0.789   2.595  24.558  0.00  0.00    +0.120 C 
BRANCH  20  21
ATOM     21  N   UNL     1      -0.304   2.135  24.074  0.00  0.00    -0.201 NA
ATOM     22  C   UNL     1       0.375   1.785  24.384  0.00  0.00    +0.265 C 
ATOM     23  O   UNL     1       0.571   1.895  25.178  0.00  0.00    -0.268 OA
BRANCH  22  24
ATOM     24  C   UNL     1       0.861   1.325  23.900  0.00  0.00    +0.055 A 
ATOM     25  C   UNL     1       0.610   0.577  23.656  0.00  0.00    +0.005 A 
ATOM     26  C   UNL     1       1.094   0.117  23.173  0.00  0.00    +0.010 A 
ATOM     27  C   UNL     1       1.830   0.405  22.933  0.00  0.00    +0.068 A 
ATOM     28  C   UNL     1       2.080   1.152  23.177  0.00  0.00    +0.010 A 
ATOM     29  C   UNL     1       1.595   1.612  23.660  0.00  0.00    +0.005 A 
BRANCH  27  30
ATOM     30  C   UNL     1       2.314  -0.055  22.449  0.00  0.00    +0.100 C 
ATOM     31  N   UNL     1       2.800  -0.515  21.965  0.00  0.00    -0.191 NA
ENDBRANCH  27  30
ENDBRANCH  22  24
ENDBRANCH  20  21
ENDBRANCH  19  20
TORSDOF 8
ENDMDL
MODEL 6
REMARK VINA RESULT:      -8.4      2.730      4.567
REMARK  Name = 
REMARK  8 active torsions:
REMARK  status: ('A' for Active; 'I' for Inactive)
REMARK    1  A    between atoms: C_2  and  C_4
REMARK    2  A    between atoms: C_6  and  C_7
REMARK    3  A    between atoms: C_7  and  C_8
REMARK    4  A    between atoms: N_10  and  C_11
REMARK    5  A    between atoms: C_19  and  C_20
REMARK    6  A    between atoms: C_20  and  N_21
REMARK    7  A    between atoms: C_22  and  C_24
REMARK    8  A    between atoms: C_27  and  C_30
REMARK                            x       y       z     vdW  Elec       q    Type
REMARK                         _______ _______ _______ _____ _____    ______ ____
ROOT
ATOM      4  C   UNL     1      -0.672   2.080  24.340  0.00  0.00    +0.006 C 
ATOM      5  C   UNL     1      -0.114   1.483  24.222  0.00  0.00    +0.005 C 
ATOM      6  C   UNL     1      -0.360   0.720  24.032  0.00  0.00    +0.027 C 
ATOM     16  C   UNL     1      -1.165   0.551  23.960  0.00  0.00    -0.048 C 
ATOM     17  C   UNL     1      -1.411  -0.213  23.770  0.00  0.00    +0.026 C 
ATOM     18  C   UNL     1      -1.723   1.148  24.077  0.00  0.00    -0.033 C 
ATOM     19  C   UNL     1      -1.477   1.911  24.267  0.00  0.00    +0.043 C 
ENDROOT
BRANCH   4   2
ATOM      1  C   UNL     1      -0.288   3.049  25.317  0.00  0.00    +0.000 C 
ATOM      2  C   UNL     1      -0.425   2.844  24.529  0.00  0.00    +0.000 C 
ATOM      3  C   UNL     1      -0.316   3.402  23.933  0.00  0.00    +0.000 C 
ENDBRANCH   4   2
BRANCH   6   7
ATOM      7  C   UNL     1       0.198   0.123  23.915  0.00  0.00    +0.091 C 
BRANCH   7   8
ATOM      8  C   UNL     1       0.806   0.229  23.367  0.00  0.00    +0.242 C 
ATOM      9  O   UNL     1       0.626   0.414  22.583  0.00  0.00    -0.273 OA
ATOM     10  N   UNL     1       1.592   0.149  23.603  0.00  0.00    -0.207 NA
BRANCH  10  11
ATOM     11  C   UNL     1       2.200   0.255  23.054  0.00  0.00    +0.095 C 
ATOM     12  C   UNL     1       2.807   0.810  23.106  0.00  0.00    +0.022 C 
ATOM     13  C   UNL     1       3.290   0.722  22.442  0.00  0.00    +0.002 C 
ATOM     14  C   UNL     1       2.980   0.113  21.981  0.00  0.00    +0.002 C 
ATOM     15  C   UNL     1       2.306  -0.176  22.360  0.00  0.00    +0.022 C 
ENDBRANCH  10  11
ENDBRANCH   7   8
ENDBRANCH   6   7
BRANCH  19  20
ATOM     20  C   UNL     1      -2.034   2.508  24.385  0.00  0.00    +0.120 C 
BRANCH  20  21
ATOM     21  N   UNL     1      -2.744   2.340  24.769  0.00  0.00    -0.201 NA
ATOM     22  C   UNL     1      -3.412   2.801  24.622  0.00  0.00    +0.265 C 
ATOM     23  O   UNL     1      -3.370   3.431  24.091  0.00  0.00    -0.268 OA
BRANCH  22  24
ATOM     24  C   UNL     1      -4.123   2.632  25.007  0.00  0.00    +0.055 A 
ATOM     25  C   UNL     1      -4.414   3.150  25.580  0.00  0.00    +0.005 A 
ATOM     26  C   UNL     1      -5.124   2.981  25.965  0.00  0.00    +0.010 A 
ATOM     27  C   UNL     1      -5.543   2.296  25.776  0.00  0.00    +0.068 A 
ATOM     28  C   UNL     1      -5.252   1.779  25.203  0.00  0.00    +0.010 A 
ATOM     29  C   UNL     1      -4.541   1.948  24.818  0.00  0.00    +0.005 A 
BRANCH  27  30
ATOM     30  C   UNL     1      -6.253   2.127  26.160  0.00  0.00    +0.100 C 
ATOM     31  N   UNL     1      -6.964   1.959  26.545  0.00  0.00    -0.191 NA
ENDBRANCH  27  30
ENDBRANCH  22  24
ENDBRANCH  20  21
ENDBRANCH  19  20
TORSDOF 8
ENDMDL
MODEL 7
REMARK VINA RESULT:      -6.4     16.910     18.514
REMARK  Name = 
REMARK  8 active torsions:
REMARK  status: ('A' for Active; 'I' for Inactive)
REMARK    1  A    between atoms: C_2  and  C_4
REMARK    2  A    between atoms: C_6  and  C_7
REMARK    3  A    between atoms: C_7  and  C_8
REMARK    4  A    between atoms: N_10  and  C_11
REMARK    5  A    between atoms: C_19  and  C_20
REMARK    6  A    between atoms: C_20  and  N_21
REMARK    7  A    between atoms: C_22  and  C_24
REMARK    8  A    between atoms: C_27  and  C_30
REMARK                            x       y       z     vdW  Elec       q    Type
REMARK                         _______ _______ _______ _____ _____    ______ ____
ROOT
ATOM      4  C   UNL     1      -6.437  -9.420  10.472  0.00  0.00    +0.006 C 
ATOM      5  C   UNL     1      -6.957  -9.186   9.877  0.00  0.00    +0.005 C 
ATOM      6  C   UNL     1      -6.700  -9.150   9.095  0.00  0.00    +0.027 C 
ATOM     16  C   UNL     1      -5.922  -9.349   8.907  0.00  0.00    -0.048 C 
ATOM     17  C   UNL     1      -5.664  -9.314   8.124  0.00  0.00    +0.026 C 
ATOM     18  C   UNL     1      -5.401  -9.584   9.503  0.00  0.00    -0.033 C 
ATOM     19  C   UNL     1      -5.658  -9.620  10.285  0.00  0.00    +0.043 C 
ENDROOT
BRANCH   4   2
ATOM      1  C   UNL     1      -6.560  -8.820  11.763  0.00  0.00    +0.000 C 
ATOM      2  C   UNL     1      -6.695  -9.456  11.255  0.00  0.00    +0.000 C 
ATOM      3  C   UNL     1      -7.087 -10.127  11.530  0.00  0.00    +0.000 C 
ENDBRANCH   4   2
BRANCH   6   7
ATOM      7  C   UNL     1      -7.221  -8.916   8.499  0.00  0.00    +0.091 C 
BRANCH   7   8
ATOM      8  C   UNL     1      -7.610  -8.190   8.553  0.00  0.00    +0.242 C 
ATOM      9  O   UNL     1      -7.178  -7.501   8.692  0.00  0.00    -0.273 OA
ATOM     10  N   UNL     1      -8.429  -8.155   8.468  0.00  0.00    -0.207 NA
BRANCH  10  11
ATOM     11  C   UNL     1      -8.819  -7.428   8.522  0.00  0.00    +0.095 C 
ATOM     12  C   UNL     1      -9.482  -7.269   8.985  0.00  0.00    +0.022 C 
ATOM     13  C   UNL     1      -9.686  -6.477   8.872  0.00  0.00    +0.002 C 
ATOM     14  C   UNL     1      -9.148  -6.149   8.340  0.00  0.00    +0.002 C 
ATOM     15  C   UNL     1      -8.612  -6.737   8.124  0.00  0.00    +0.022 C 
ENDBRANCH  10  11
ENDBRANCH   7   8
ENDBRANCH   6   7
BRANCH  19  20
ATOM     20  C   UNL     1      -5.138  -9.854  10.881  0.00  0.00    +0.120 C 
BRANCH  20  21
ATOM     21  N   UNL     1      -4.351  -9.608  10.863  0.00  0.00    -0.201 NA
ATOM     22  C   UNL     1      -3.768 -10.065  11.224  0.00  0.00    +0.265 C 
ATOM     23  O   UNL     1      -3.971 -10.769  11.604  0.00  0.00    -0.268 OA
BRANCH  22  24
ATOM     24  C   UNL     1      -2.980  -9.818  11.206  0.00  0.00    +0.055 A 
ATOM     25  C   UNL     1      -2.734  -9.267  10.643  0.00  0.00    +0.005 A 
ATOM     26  C   UNL     1      -1.947  -9.020  10.625  0.00  0.00    +0.010 A 
ATOM     27  C   UNL     1      -1.406  -9.325  11.170  0.00  0.00    +0.068 A 
ATOM     28  C   UNL     1      -1.653  -9.876  11.732  0.00  0.00    +0.010 A 
ATOM     29  C   UNL     1      -2.440 -10.122  11.750  0.00  0.00    +0.005 A 
BRANCH  27  30
ATOM     30  C   UNL     1      -0.620  -9.079  11.152  0.00  0.00    +0.100 C 
ATOM     31  N   UNL     1       0.168  -8.832  11.134  0.00  0.00    -0.191 NA
ENDBRANCH  27  30
ENDBRANCH  22  24
ENDBRANCH  20  21
ENDBRANCH  19  20
TORSDOF 8
ENDMDL
MODEL 8
REMARK VINA RESULT:      -6.0     14.460     16.293
REMARK  Name = 
REMARK  8 active torsions:
REMARK  status: ('A' for Active; 'I' for Inactive)
REMARK    1  A    between atoms: C_2  and  C_4
REMARK    2  A    between atoms: C_6  and  C_7
REMARK    3  A    between atoms: C_7  and  C_8
REMARK    4  A    between atoms: N_10  and  C_11
REMARK    5  A    between atoms: C_19  and  C_20
REMARK    6  A    between atoms: C_20  and  N_21
REMARK    7  A    between atoms: C_22  and  C_24
REMARK    8  A    between atoms: C_27  and  C_30
REMARK                            x       y       z     vdW  Elec       q    Type
REMARK                         _______ _______ _______ _____ _____    ______ ____
ROOT
ATOM      4  C   UNL     1      -6.795 -10.142  15.209  0.00  0.00    +0.006 C 
ATOM      5  C   UNL     1      -7.586 -10.094  15.436  0.00  0.00    +0.005 C 
ATOM      6  C   UNL     1      -8.182 -10.142  14.868  0.00  0.00    +0.027 C 
ATOM     16  C   UNL     1      -7.987 -10.237  14.072  0.00  0.00    -0.048 C 
ATOM     17  C   UNL     1      -8.583 -10.285  13.504  0.00  0.00    +0.026 C 
ATOM     18  C   UNL     1      -7.195 -10.285  13.845  0.00  0.00    -0.033 C 
ATOM     19  C   UNL     1      -6.599 -10.238  14.412  0.00  0.00    +0.043 C 
ENDROOT
BRANCH   4   2
ATOM      1  C   UNL     1      -5.923 -10.780  16.144  0.00  0.00    +0.000 C 
ATOM      2  C   UNL     1      -6.198 -10.094  15.777  0.00  0.00    +0.000 C 
ATOM      3  C   UNL     1      -5.878  -9.361  15.977  0.00  0.00    +0.000 C 
ENDBRANCH   4   2
BRANCH   6   7
ATOM      7  C   UNL     1      -8.974 -10.094  15.096  0.00  0.00    +0.091 C 
BRANCH   7   8
ATOM      8  C   UNL     1      -9.248  -9.428  15.498  0.00  0.00    +0.242 C 
ATOM      9  O   UNL     1      -9.163  -8.679  15.162  0.00  0.00    -0.273 OA
ATOM     10  N   UNL     1      -9.607  -9.511  16.235  0.00  0.00    -0.207 NA
BRANCH  10  11
ATOM     11  C   UNL     1      -9.882  -8.844  16.638  0.00  0.00    +0.095 C 
ATOM     12  C   UNL     1      -9.492  -8.455  17.253  0.00  0.00    +0.022 C 
ATOM     13  C   UNL     1      -9.963  -7.821  17.491  0.00  0.00    +0.002 C 
ATOM     14  C   UNL     1     -10.643  -7.818  17.023  0.00  0.00    +0.002 C 
ATOM     15  C   UNL     1     -10.592  -8.451  16.496  0.00  0.00    +0.022 C 
ENDBRANCH  10  11
ENDBRANCH   7   8
ENDBRANCH   6   7
BRANCH  19  20
ATOM     20  C   UNL     1      -5.808 -10.286  14.185  0.00  0.00    +0.120 C 
BRANCH  20  21
ATOM     21  N   UNL     1      -5.582 -10.062  13.424  0.00  0.00    -0.201 NA
ATOM     22  C   UNL     1      -4.841 -10.278  13.134  0.00  0.00    +0.265 C 
ATOM     23  O   UNL     1      -4.325 -10.717  13.605  0.00  0.00    -0.268 OA
BRANCH  22  24
ATOM     24  C   UNL     1      -4.615 -10.054  12.371  0.00  0.00    +0.055 A 
ATOM     25  C   UNL     1      -5.050  -9.484  11.963  0.00  0.00    +0.005 A 
ATOM     26  C   UNL     1      -4.824  -9.260  11.202  0.00  0.00    +0.010 A 
ATOM     27  C   UNL     1      -4.164  -9.608  10.848  0.00  0.00    +0.068 A 
ATOM     28  C   UNL     1      -3.730 -10.178  11.257  0.00  0.00    +0.010 A 
ATOM     29  C   UNL     1      -3.956 -10.402  12.019  0.00  0.00    +0.005 A 
BRANCH  27  30
ATOM     30  C   UNL     1      -3.939  -9.385  10.088  0.00  0.00    +0.100 C 
ATOM     31  N   UNL     1      -3.713  -9.162   9.325  0.00  0.00    -0.191 NA
ENDBRANCH  27  30
ENDBRANCH  22  24
ENDBRANCH  20  21
ENDBRANCH  19  20
TORSDOF 8
ENDMDL
MODEL 9
REMARK VINA RESULT:      -6.0     14.839     17.131
REMARK  Name = 
REMARK  8 active torsions:
REMARK  status: ('A' for Active; 'I' for Inactive)
REMARK    1  A    between atoms: C_2  and  C_4
REMARK    2  A    between atoms: C_6  and  C_7
REMARK    3  A    between atoms: C_7  and  C_8
REMARK    4  A    between atoms: N_10  and  C_11
REMARK    5  A    between atoms: C_19  and  C_20
REMARK    6  A    between atoms: C_20  and  N_21
REMARK    7  A    between atoms: C_22  and  C_24
REMARK    8  A    between atoms: C_27  and  C_30
REMARK                            x       y       z     vdW  Elec       q    Type
REMARK                         _______ _______ _______ _____ _____    ______ ____
ROOT
ATOM      4  C   UNL     1      -7.356 -10.062  12.068  0.00  0.00    +0.006 C 
ATOM      5  C   UNL     1      -6.570 -10.177  11.846  0.00  0.00    +0.005 C 
ATOM      6  C   UNL     1      -5.975 -10.170  12.416  0.00  0.00    +0.027 C 
ATOM     16  C   UNL     1      -6.164 -10.049  13.209  0.00  0.00    -0.048 C 
ATOM     17  C   UNL     1      -5.569 -10.042  13.780  0.00  0.00    +0.026 C 
ATOM     18  C   UNL     1      -6.951  -9.933  13.432  0.00  0.00    -0.033 C 
ATOM     19  C   UNL     1      -7.546  -9.940  12.862  0.00  0.00    +0.043 C 
ENDROOT
BRANCH   4   2
ATOM      1  C   UNL     1      -8.304 -10.781  11.278  0.00  0.00    +0.000 C 
ATOM      2  C   UNL     1      -7.951 -10.068  11.497  0.00  0.00    +0.000 C 
ATOM      3  C   UNL     1      -8.194  -9.363  11.146  0.00  0.00    +0.000 C 
ENDBRANCH   4   2
BRANCH   6   7
ATOM      7  C   UNL     1      -5.188 -10.286  12.193  0.00  0.00    +0.091 C 
BRANCH   7   8
ATOM      8  C   UNL     1      -4.856  -9.824  11.595  0.00  0.00    +0.242 C 
ATOM      9  O   UNL     1      -4.932  -9.003  11.619  0.00  0.00    -0.273 OA
ATOM     10  N   UNL     1      -4.451 -10.183  10.974  0.00  0.00    -0.207 NA
BRANCH  10  11
ATOM     11  C   UNL     1      -4.118  -9.721  10.376  0.00  0.00    +0.095 C 
ATOM     12  C   UNL     1      -4.482  -9.517   9.663  0.00  0.00    +0.022 C 
ATOM     13  C   UNL     1      -3.953  -9.052   9.233  0.00  0.00    +0.002 C 
ATOM     14  C   UNL     1      -3.264  -8.969   9.679  0.00  0.00    +0.002 C 
ATOM     15  C   UNL     1      -3.367  -9.383  10.386  0.00  0.00    +0.022 C 
ENDBRANCH  10  11
ENDBRANCH   7   8
ENDBRANCH   6   7
BRANCH  19  20
ATOM     20  C   UNL     1      -8.332  -9.824  13.084  0.00  0.00    +0.120 C 
BRANCH  20  21
ATOM     21  N   UNL     1      -8.509  -9.469  13.807  0.00  0.00    -0.201 NA
ATOM     22  C   UNL     1      -9.281  -9.483  14.095  0.00  0.00    +0.265 C 
ATOM     23  O   UNL     1      -9.878  -9.853  13.661  0.00  0.00    -0.268 OA
BRANCH  22  24
ATOM     24  C   UNL     1      -9.459  -9.127  14.819  0.00  0.00    +0.055 A 
ATOM     25  C   UNL     1      -9.167  -9.451  15.520  0.00  0.00    +0.005 A 
ATOM     26  C   UNL     1      -9.344  -9.095  16.243  0.00  0.00    +0.010 A 
ATOM     27  C   UNL     1      -9.813  -8.416  16.265  0.00  0.00    +0.068 A 
ATOM     28  C   UNL     1     -10.104  -8.093  15.564  0.00  0.00    +0.010 A 
ATOM     29  C   UNL     1      -9.927  -8.449  14.841  0.00  0.00    +0.005 A 
BRANCH  27  30
ATOM     30  C   UNL     1      -9.990  -8.061  16.987  0.00  0.00    +0.100 C 
ATOM     31  N   UNL     1     -10.167  -7.705  17.711  0.00  0.00    -0.191 NA
ENDBRANCH  27  30
ENDBRANCH  22  24
ENDBRANCH  20  21
ENDBRANCH  19  20
TORSDOF 8
ENDMDL
MODEL 10
REMARK VINA RESULT:      -5.9     13.773     16.566
REMARK  Name = 
REMARK  8 active torsions:
REMARK  status: ('A' for Active; 'I' for Inactive)
REMARK    1  A    between atoms: C_2  and  C_4
REMARK    2  A    between atoms: C_6  and  C_7
REMARK    3  A    between atoms: C_7  and  C_8
REMARK    4  A    between atoms: N_10  and  C_11
REMARK    5  A    between atoms: C_19  and  C_20
REMARK    6  A    between atoms: C_20  and  N_21
REMARK    7  A    between atoms: C_22  and  C_24
REMARK    8  A    between atoms: C_27  and  C_30
REMARK                            x       y       z     vdW  Elec       q    Type
REMARK                         _______ _______ _______ _____ _____    ______ ____
ROOT
ATOM      4  C   UNL     1      -8.431  -9.983  13.841  0.00  0.00    +0.006 C 
ATOM      5  C   UNL     1      -8.060 -10.074  13.110  0.00  0.00    +0.005 C 
ATOM      6  C   UNL     1      -7.238 -10.118  13.067  0.00  0.00    +0.027 C 
ATOM     16  C   UNL     1      -6.785 -10.072  13.755  0.00  0.00    -0.048 C 
ATOM     17  C   UNL     1      -5.962 -10.116  13.711  0.00  0.00    +0.026 C 
ATOM     18  C   UNL     1      -7.156  -9.980  14.487  0.00  0.00    -0.033 C 
ATOM     19  C   UNL     1      -7.978  -9.936  14.530  0.00  0.00    +0.043 C 
ENDROOT
BRANCH   4   2
ATOM      1  C   UNL     1      -9.629  -9.206  13.839  0.00  0.00    +0.000 C 
ATOM      2  C   UNL     1      -9.253  -9.939  13.884  0.00  0.00    +0.000 C 
ATOM      3  C   UNL     1      -9.699 -10.627  13.973  0.00  0.00    +0.000 C 
ENDBRANCH   4   2
BRANCH   6   7
ATOM      7  C   UNL     1      -6.867 -10.210  12.335  0.00  0.00    +0.091 C 
BRANCH   7   8
ATOM      8  C   UNL     1      -6.996  -9.657  11.735  0.00  0.00    +0.242 C 
ATOM      9  O   UNL     1      -6.867  -8.855  11.880  0.00  0.00    -0.273 OA
ATOM     10  N   UNL     1      -7.253  -9.907  10.993  0.00  0.00    -0.207 NA
BRANCH  10  11
ATOM     11  C   UNL     1      -7.382  -9.354  10.393  0.00  0.00    +0.095 C 
ATOM     12  C   UNL     1      -6.803  -9.026   9.905  0.00  0.00    +0.022 C 
ATOM     13  C   UNL     1      -7.175  -8.502   9.387  0.00  0.00    +0.002 C 
ATOM     14  C   UNL     1      -7.983  -8.508   9.555  0.00  0.00    +0.002 C 
ATOM     15  C   UNL     1      -8.110  -9.035  10.177  0.00  0.00    +0.022 C 
ENDBRANCH  10  11
ENDBRANCH   7   8
ENDBRANCH   6   7
BRANCH  19  20
ATOM     20  C   UNL     1      -8.348  -9.845  15.261  0.00  0.00    +0.120 C 
BRANCH  20  21
ATOM     21  N   UNL     1      -7.951 -10.052  15.954  0.00  0.00    -0.201 NA
ATOM     22  C   UNL     1      -8.202  -9.748  16.679  0.00  0.00    +0.265 C 
ATOM     23  O   UNL     1      -8.849  -9.238  16.711  0.00  0.00    -0.268 OA
BRANCH  22  24
ATOM     24  C   UNL     1      -7.804  -9.955  17.372  0.00  0.00    +0.055 A 
ATOM     25  C   UNL     1      -8.151 -10.481  17.905  0.00  0.00    +0.005 A 
ATOM     26  C   UNL     1      -7.754 -10.688  18.598  0.00  0.00    +0.010 A 
ATOM     27  C   UNL     1      -7.010 -10.367  18.759  0.00  0.00    +0.068 A 
ATOM     28  C   UNL     1      -6.665  -9.841  18.226  0.00  0.00    +0.010 A 
ATOM     29  C   UNL     1      -7.062  -9.634  17.533  0.00  0.00    +0.005 A 
BRANCH  27  30
ATOM     30  C   UNL     1      -6.613 -10.573  19.451  0.00  0.00    +0.100 C 
ATOM     31  N   UNL     1      -6.216 -10.780  20.145  0.00  0.00    -0.191 NA
ENDBRANCH  27  30
ENDBRANCH  22  24
ENDBRANCH  20  21
ENDBRANCH  19  20
TORSDOF 8
ENDMDL
