MODEL 1
REMARK VINA RESULT:     -12.6      0.000      0.000
REMARK  Name = 
REMARK  3 active torsions:
REMARK  status: ('A' for Active; 'I' for Inactive)
REMARK    1  A    between atoms: C_7  and  C_8
REMARK    2  A    between atoms: C_8  and  N_9
REMARK    3  A    between atoms: C_12  and  C_14
REMARK                            x       y       z     vdW  Elec       q    Type
REMARK                         _______ _______ _______ _____ _____    ______ ____
ROOT
ATOM      9  N   UNL     1      -4.200   2.183  24.531  0.00  0.00    -0.269 NA
ATOM     10  C   UNL     1      -4.923   2.031  24.898  0.00  0.00    +0.073 C 
ATOM     11  C   UNL     1      -4.995   1.215  24.993  0.00  0.00    +0.025 C 
ATOM     12  C   UNL     1      -4.316   0.861  24.683  0.00  0.00    +0.064 C 
ATOM     13  C   UNL     1      -3.825   1.459  24.398  0.00  0.00    +0.079 C 
ENDROOT
BRANCH  12  14
ATOM     14  C   UNL     1      -4.157   0.052  24.663  0.00  0.00    +0.089 A 
ATOM     15  N   UNL     1      -4.368  -0.469  24.059  0.00  0.00    -0.243 NA
ATOM     16  C   UNL     1      -4.100  -1.221  24.266  0.00  0.00    +0.087 A 
ATOM     17  C   UNL     1      -3.725  -1.165  24.999  0.00  0.00    +0.048 A 
ATOM     18  S   UNL     1      -3.760  -0.379  25.244  0.00  0.00    -0.071 S 
ATOM     19  C   UNL     1      -3.400  -1.839  25.347  0.00  0.00    +0.008 A 
ATOM     20  C   UNL     1      -3.450  -2.567  24.964  0.00  0.00    +0.001 A 
ATOM     21  C   UNL     1      -3.825  -2.622  24.231  0.00  0.00    +0.002 A 
ATOM     22  C   UNL     1      -4.151  -1.950  23.882  0.00  0.00    +0.020 A 
ENDBRANCH  12  14
BRANCH   9   8
ATOM      8  C   UNL     1      -3.903   2.926  24.331  0.00  0.00    +0.101 C 
BRANCH   8   7
ATOM      1  F   UNL     1      -2.345   3.316  23.952  0.00  0.00    -0.204 F 
ATOM      2  C   UNL     1      -2.661   3.539  24.681  0.00  0.00    +0.137 A 
ATOM      3  C   UNL     1      -2.198   3.957  25.221  0.00  0.00    +0.029 A 
ATOM      4  C   UNL     1      -2.513   4.179  25.950  0.00  0.00    +0.002 A 
ATOM      5  C   UNL     1      -3.292   3.984  26.139  0.00  0.00    -0.000 A 
ATOM      6  C   UNL     1      -3.756   3.566  25.600  0.00  0.00    -0.001 A 
ATOM      7  C   UNL     1      -3.440   3.344  24.870  0.00  0.00    +0.021 A 
ENDBRANCH   8   7
ENDBRANCH   9   8
TORSDOF 3
ENDMDL
MODEL 2
REMARK VINA RESULT:     -12.3      1.631      4.805
REMARK  Name = 
REMARK  3 active torsions:
REMARK  status: ('A' for Active; 'I' for Inactive)
REMARK    1  A    between atoms: C_7  and  C_8
REMARK    2  A    between atoms: C_8  and  N_9
REMARK    3  A    between atoms: C_12  and  C_14
REMARK                            x       y       z     vdW  Elec       q    Type
REMARK                         _______ _______ _______ _____ _____    ______ ____
ROOT
ATOM      9  N   UNL     1      -4.046   0.747  25.005  0.00  0.00    -0.269 NA
ATOM     10  C   UNL     1      -4.389   1.116  24.351  0.00  0.00    +0.073 C 
ATOM     11  C   UNL     1      -3.980   1.819  24.211  0.00  0.00    +0.025 C 
ATOM     12  C   UNL     1      -3.384   1.885  24.779  0.00  0.00    +0.064 C 
ATOM     13  C   UNL     1      -3.425   1.223  25.269  0.00  0.00    +0.079 C 
ENDROOT
BRANCH  12  14
ATOM     14  C   UNL     1      -2.844   2.505  24.845  0.00  0.00    +0.089 A 
ATOM     15  N   UNL     1      -2.042   2.472  24.652  0.00  0.00    -0.243 NA
ATOM     16  C   UNL     1      -1.713   3.212  24.803  0.00  0.00    +0.087 A 
ATOM     17  C   UNL     1      -2.311   3.704  25.089  0.00  0.00    +0.048 A 
ATOM     18  S   UNL     1      -3.009   3.267  25.116  0.00  0.00    -0.071 S 
ATOM     19  C   UNL     1      -2.141   4.486  25.289  0.00  0.00    +0.008 A 
ATOM     20  C   UNL     1      -1.374   4.777  25.203  0.00  0.00    +0.001 A 
ATOM     21  C   UNL     1      -0.776   4.285  24.917  0.00  0.00    +0.002 A 
ATOM     22  C   UNL     1      -0.945   3.503  24.716  0.00  0.00    +0.020 A 
ENDBRANCH  12  14
BRANCH   9   8
ATOM      8  C   UNL     1      -4.281   0.030  25.336  0.00  0.00    +0.101 C 
BRANCH   8   7
ATOM      1  F   UNL     1      -3.469  -1.090  26.236  0.00  0.00    -0.204 F 
ATOM      2  C   UNL     1      -3.636  -1.241  25.443  0.00  0.00    +0.137 A 
ATOM      3  C   UNL     1      -3.397  -1.952  25.099  0.00  0.00    +0.029 A 
ATOM      4  C   UNL     1      -3.564  -2.103  24.306  0.00  0.00    +0.002 A 
ATOM      5  C   UNL     1      -3.969  -1.544  23.856  0.00  0.00    -0.000 A 
ATOM      6  C   UNL     1      -4.209  -0.833  24.199  0.00  0.00    -0.001 A 
ATOM      7  C   UNL     1      -4.042  -0.682  24.993  0.00  0.00    +0.021 A 
ENDBRANCH   8   7
ENDBRANCH   9   8
TORSDOF 3
ENDMDL
MODEL 3
REMARK VINA RESULT:     -12.1      0.804      1.159
REMARK  Name = 
REMARK  3 active torsions:
REMARK  status: ('A' for Active; 'I' for Inactive)
REMARK    1  A    between atoms: C_7  and  C_8
REMARK    2  A    between atoms: C_8  and  N_9
REMARK    3  A    between atoms: C_12  and  C_14
REMARK                            x       y       z     vdW  Elec       q    Type
REMARK                         _______ _______ _______ _____ _____    ______ ____
ROOT
ATOM      9  N   UNL     1      -3.734   2.228  24.251  0.00  0.00    -0.269 NA
ATOM     10  C   UNL     1      -3.330   2.101  23.543  0.00  0.00    +0.073 C 
ATOM     11  C   UNL     1      -3.230   1.287  23.449  0.00  0.00    +0.025 C 
ATOM     12  C   UNL     1      -3.573   0.911  24.099  0.00  0.00    +0.064 C 
ATOM     13  C   UNL     1      -3.884   1.492  24.594  0.00  0.00    +0.079 C 
ENDROOT
BRANCH  12  14
ATOM     14  C   UNL     1      -3.600   0.097  24.229  0.00  0.00    +0.089 A 
ATOM     15  N   UNL     1      -4.013  -0.454  23.775  0.00  0.00    -0.243 NA
ATOM     16  C   UNL     1      -3.886  -1.200  24.102  0.00  0.00    +0.087 A 
ATOM     17  C   UNL     1      -3.395  -1.111  24.759  0.00  0.00    +0.048 A 
ATOM     18  S   UNL     1      -3.218  -0.309  24.838  0.00  0.00    -0.071 S 
ATOM     19  C   UNL     1      -3.173  -1.772  25.200  0.00  0.00    +0.008 A 
ATOM     20  C   UNL     1      -3.441  -2.521  24.985  0.00  0.00    +0.001 A 
ATOM     21  C   UNL     1      -3.932  -2.610  24.329  0.00  0.00    +0.002 A 
ATOM     22  C   UNL     1      -4.155  -1.950  23.887  0.00  0.00    +0.020 A 
ENDBRANCH  12  14
BRANCH   9   8
ATOM      8  C   UNL     1      -3.950   2.961  24.562  0.00  0.00    +0.101 C 
BRANCH   8   7
ATOM      1  F   UNL     1      -4.382   3.522  26.052  0.00  0.00    -0.204 F 
ATOM      2  C   UNL     1      -3.628   3.673  25.757  0.00  0.00    +0.137 A 
ATOM      3  C   UNL     1      -3.088   4.106  26.208  0.00  0.00    +0.029 A 
ATOM      4  C   UNL     1      -2.333   4.258  25.913  0.00  0.00    +0.002 A 
ATOM      5  C   UNL     1      -2.116   3.977  25.168  0.00  0.00    -0.000 A 
ATOM      6  C   UNL     1      -2.655   3.545  24.717  0.00  0.00    -0.001 A 
ATOM      7  C   UNL     1      -3.411   3.393  25.013  0.00  0.00    +0.021 A 
ENDBRANCH   8   7
ENDBRANCH   9   8
TORSDOF 3
ENDMDL
